#       Name:                CT1002167954
#       Creating user name   hitesit
#       Creation time:       Sun Apr 16 22:50:18 2023


#       File generated by GOLD software.
#

@<TRIPOS>MOLECULE
CT1002167954|ligand_prepared|mol2|1|dock7
    29    30     1
SMALL
NO_CHARGES


@<TRIPOS>ATOM
      1 C1          -9.3369  -8.8815  16.8429 C.3            1 RES1               0.0000
      2 C2          -8.9481 -10.3739  16.8533 C.ar           1 RES1               0.0000
      3 C3          -9.4050  -8.4463  18.3038 C.2            1 RES1               0.0000
      4 C4          -8.2630  -8.1666  16.0302 C.2            1 RES1               0.0000
      5 C5         -10.7054  -8.5968  16.1812 C.3            1 RES1               0.0000
      6 C6          -8.6355 -11.0164  18.0475 C.ar           1 RES1               0.0000
      7 C7          -8.9004 -11.1208  15.6791 C.ar           1 RES1               0.0000
      8 N8          -8.3950  -7.6615  18.7770 N.am           1 RES1               0.0000
      9 O9         -10.3104  -8.8186  19.0399 O.2            1 RES1               0.0000
     10 N10         -7.4547  -7.2716  16.6809 N.am           1 RES1               0.0000
     11 O11         -8.0987  -8.3826  14.8358 O.2            1 RES1               0.0000
     12 C12        -11.0968  -7.1275  16.1898 C.3            1 RES1               0.0000
     13 C13         -8.2905 -12.3577  18.0677 C.ar           1 RES1               0.0000
     14 C14         -8.5550 -12.4619  15.7015 C.ar           1 RES1               0.0000
     15 C15         -7.4520  -7.0094  18.0238 C.2            1 RES1               0.0000
     16 C16         -8.2505 -13.0814  16.8950 C.ar           1 RES1               0.0000
     17 O17         -6.6575  -6.2312  18.5438 O.2            1 RES1               0.0000
     18 H18        -10.6753  -8.9482  15.1425 H              1 RES1               0.0000
     19 H19        -11.4781  -9.1711  16.7072 H              1 RES1               0.0000
     20 H20         -8.6592 -10.4626  18.9801 H              1 RES1               0.0000
     21 H21         -9.1350 -10.6540  14.7285 H              1 RES1               0.0000
     22 H22         -8.3353  -7.5491  19.7840 H              1 RES1               0.0000
     23 H23         -6.7940  -6.7526  16.1114 H              1 RES1               0.0000
     24 H24        -12.0645  -6.9834  15.7138 H              1 RES1               0.0000
     25 H25        -11.1609  -6.7513  17.2087 H              1 RES1               0.0000
     26 H26        -10.3628  -6.5298  15.6533 H              1 RES1               0.0000
     27 H27         -8.0504 -12.8402  19.0094 H              1 RES1               0.0000
     28 H28         -8.5242 -13.0274  14.7761 H              1 RES1               0.0000
     29 H29         -7.9806 -14.1321  16.9111 H              1 RES1               0.0000
@<TRIPOS>BOND
    1    1    2 1     
    2    1    3 1     
    3    1    4 1     
    4    1    5 1     
    5    2    6 ar    
    6    2    7 ar    
    7    3    8 1     
    8    3    9 2     
    9    4   10 1     
   10    4   11 2     
   11    5   12 1     
   12    5   18 1     
   13    5   19 1     
   14    6   13 ar    
   15    6   20 1     
   16    7   14 ar    
   17    7   21 1     
   18    8   15 1     
   19    8   22 1     
   20   10   15 1     
   21   10   23 1     
   22   12   24 1     
   23   12   25 1     
   24   12   26 1     
   25   13   16 ar    
   26   13   27 1     
   27   14   16 ar    
   28   14   28 1     
   29   15   17 2     
   30   16   29 1     
@<TRIPOS>SUBSTRUCTURE
      1 RES1           1
@<TRIPOS>SET
DONOR_HYDROGENS      STATIC     ATOMS    <user>   **** ""
2 22 23
ATOM$RED        STATIC     ATOMS    COLORGROUP SYSTEM
2 22 23
@<TRIPOS>COMMENT
> <Gold.Version>
2022.3.0

> <Gold.Id.Protein>
unknown|3ovv_clean|pdb

> <Gold.Protein.RotatedTorsions>
[  602  597  595  592 ] final  157.14 input   59.96 | X-H torsion
[  622  617  616  613 ] final   16.18 input   59.98 | X-H torsion
[ 2560 2551 2550 2548 ] final  -26.25 input   59.99 | X-H torsion
[ 2635 2624 2623 2622 ] final   27.87 input   60.00 | X-H torsion
[ 1835 1828 1827 1825 ] final   77.31 input   60.01 | X-H torsion
[ 5212 5203 5202 5200 ] final   81.96 input   59.98 | X-H torsion

> <Gold.Protein.ActiveResidues>
 THR48   LEU49   GLY50   THR51   GLY52   SER53   PHE54   GLY55   ARG56   VAL57  
 MET58   LEU59   VAL60   HIS68   TYR69   ALA70   MET71   LYS72   ILE73   LEU74  
 ASP75   LYS78   VAL79   LEU82   GLN84   THR88   GLU91   LEU95   VAL104  LYS105 
 LEU106  MET118  VAL119  MET120  GLU121  TYR122  VAL123  PRO124  GLY125  GLY126 
 GLU127  TYR164  ASP166  LYS168  GLU170  ASN171  LEU172  LEU173  ILE174  ASP175 
 GLN181  VAL182  THR183  ASP184  PHE185  GLY186  PHE187  PHE327  TYR330 

> <Gold.Protein.RotatedAtoms>
   -4.8943   -1.2951   13.5200 H   0  0  0  0  0  0  0  0  0  0  0  0  # atno 602  bound_to 597 
   -7.2759    1.1866   20.4617 H   0  0  0  0  0  0  0  0  0  0  0  0  # atno 622  bound_to 617 
   -6.2349  -16.4667    9.3560 H   0  0  0  0  0  0  0  0  0  0  0  0  # atno 1835 bound_to 1828
  -15.3523   -8.2329   23.0412 H   0  0  0  0  0  0  0  0  0  0  0  0  # atno 2560 bound_to 2551
  -15.4591   -0.5357   19.3871 H   0  0  0  0  0  0  0  0  0  0  0  0  # atno 2635 bound_to 2624
  -14.0857   -1.3659   19.7995 H   0  0  0  0  0  0  0  0  0  0  0  0  # atno 2636 bound_to 2624
  -14.3512   -0.9344   18.2213 H   0  0  0  0  0  0  0  0  0  0  0  0  # atno 2637 bound_to 2624
   -8.5544   -5.2928   11.5634 H   0  0  0  0  0  0  0  0  0  0  0  0  # atno 5212 bound_to 5203
   -6.0743   -2.1190   14.2794 LP  0  0  0  0  0  0  0  0  0  0  0  0  # atno 5531 bound_to 597 
   -5.4274   -2.7009   12.8976 LP  0  0  0  0  0  0  0  0  0  0  0  0  # atno 5532 bound_to 597 
   -7.2286    2.7629   20.8629 LP  0  0  0  0  0  0  0  0  0  0  0  0  # atno 5535 bound_to 617 
   -7.6134    1.6426   21.9869 LP  0  0  0  0  0  0  0  0  0  0  0  0  # atno 5536 bound_to 617 
  -16.5712   -7.4385   22.3128 LP  0  0  0  0  0  0  0  0  0  0  0  0  # atno 5569 bound_to 2551
  -16.5300   -9.0708   22.2940 LP  0  0  0  0  0  0  0  0  0  0  0  0  # atno 5570 bound_to 2551
   -7.8360  -16.3061    9.6007 LP  0  0  0  0  0  0  0  0  0  0  0  0  # atno 5599 bound_to 1828
   -7.2450  -17.6621    8.9088 LP  0  0  0  0  0  0  0  0  0  0  0  0  # atno 5600 bound_to 1828

> <Gold.Score>
     Fitness  S(hb_ext) S(vdw_ext)  S(hb_int)    S(int)      intcor
     47.48       0.00      36.62       0.00      -2.88      -0.76

> <Gold.Goldscore.Fitness>
47.4787

> <Gold.Goldscore.Internal.Vdw>
-3.2664

> <Gold.Goldscore.Internal.Torsion>
-0.3684

> <Gold.Goldscore.External.Vdw>
36.6219

> <Gold.Goldscore.Internal.HBond>
0.0000

> <Gold.Goldscore.External.HBond>
0.0000

> <Gold.Goldscore.Internal.Correction>
-0.7585

> <Gold.Goldscore.Internal.Vdw.Weighted>
-3.2664

> <Gold.Goldscore.Internal.Torsion.Weighted>
-0.3684

> <Gold.Goldscore.External.Vdw.Weighted>
50.3550

> <Gold.Goldscore.Internal.HBond.Weighted>
0.0000

> <Gold.Goldscore.External.HBond.Weighted>
0.0000

> <Gold.Goldscore.Internal.Correction.Weighted>
-0.7585

> <Gold.Rescore>
     Score     S(PLP)   S(hbond)     S(cho)   S(metal)  DE(clash)   DE(tors)     intcor
     47.88     -50.50       0.00       0.00       0.00       0.17       1.22       ----

> <Gold.PLP.Fitness>
47.8794

> <Gold.PLP.PLP>
-50.4960

> <Gold.PLP.part.hbond>
-1.4931

> <Gold.PLP.part.metal>
0.0000

> <Gold.PLP.part.buried>
1.2107

> <Gold.PLP.part.nonpolar>
-52.3580

> <Gold.PLP.part.repulsive>
0.3862

> <Gold.PLP.ligand.clash>
0.1735

> <Gold.PLP.ligand.torsion>
1.2215

> <Gold.PLP.Chemscore.Hbond>
0.0000

> <Gold.PLP.Chemscore.CHOScore>
0.0000

> <Gold.PLP.Chemscore.Metal>
0.0000

> <Gold.PLP.Chemscore.Internal.Correction>
   9.000000E+99

#       Name:                CT1002167954
#       Creating user name   hitesit
#       Creation time:       Sun Apr 16 22:50:17 2023


#       File generated by GOLD software.
#

@<TRIPOS>MOLECULE
CT1002167954|ligand_prepared|mol2|1|dock6
    29    30     1
SMALL
NO_CHARGES


@<TRIPOS>ATOM
      1 C1          -9.6900  -8.7350  16.5366 C.3            1 RES1               0.0000
      2 C2          -9.3940  -9.0982  18.0060 C.ar           1 RES1               0.0000
      3 C3         -11.1864  -8.4467  16.4596 C.2            1 RES1               0.0000
      4 C4          -8.8077  -7.5359  16.2074 C.2            1 RES1               0.0000
      5 C5          -9.3552  -9.8640  15.5342 C.3            1 RES1               0.0000
      6 C6          -9.5350  -8.1481  19.0130 C.ar           1 RES1               0.0000
      7 C7          -8.9823 -10.3777  18.3696 C.ar           1 RES1               0.0000
      8 N8         -11.5734  -7.1451  16.3328 N.am           1 RES1               0.0000
      9 O9         -12.0155  -9.3439  16.5487 O.2            1 RES1               0.0000
     10 N10         -9.4224  -6.3417  15.9358 N.am           1 RES1               0.0000
     11 O11         -7.5851  -7.6104  16.1971 O.2            1 RES1               0.0000
     12 C12         -9.4933  -9.4513  14.0772 C.3            1 RES1               0.0000
     13 C13         -9.2768  -8.4662  20.3361 C.ar           1 RES1               0.0000
     14 C14         -8.7244 -10.6936  19.6933 C.ar           1 RES1               0.0000
     15 C15        -10.7640  -6.0845  16.0137 C.2            1 RES1               0.0000
     16 C16         -8.8718  -9.7391  20.6771 C.ar           1 RES1               0.0000
     17 O17        -11.2365  -4.9703  15.8078 O.2            1 RES1               0.0000
     18 H18         -8.3254 -10.1986  15.7103 H              1 RES1               0.0000
     19 H19        -10.0213 -10.7145  15.7248 H              1 RES1               0.0000
     20 H20         -9.8504  -7.1405  18.7634 H              1 RES1               0.0000
     21 H21         -8.8586 -11.1443  17.6123 H              1 RES1               0.0000
     22 H22        -12.5553  -6.9415  16.4897 H              1 RES1               0.0000
     23 H23         -8.8244  -5.5733  15.6489 H              1 RES1               0.0000
     24 H24         -9.2469 -10.2799  13.4166 H              1 RES1               0.0000
     25 H25        -10.5119  -9.1363  13.8604 H              1 RES1               0.0000
     26 H26         -8.8260  -8.6235  13.8460 H              1 RES1               0.0000
     27 H27         -9.3929  -7.7111  21.1064 H              1 RES1               0.0000
     28 H28         -8.4053 -11.6965  19.9571 H              1 RES1               0.0000
     29 H29         -8.6699  -9.9882  21.7137 H              1 RES1               0.0000
@<TRIPOS>BOND
    1    1    2 1     
    2    1    3 1     
    3    1    4 1     
    4    1    5 1     
    5    2    6 ar    
    6    2    7 ar    
    7    3    8 1     
    8    3    9 2     
    9    4   10 1     
   10    4   11 2     
   11    5   12 1     
   12    5   18 1     
   13    5   19 1     
   14    6   13 ar    
   15    6   20 1     
   16    7   14 ar    
   17    7   21 1     
   18    8   15 1     
   19    8   22 1     
   20   10   15 1     
   21   10   23 1     
   22   12   24 1     
   23   12   25 1     
   24   12   26 1     
   25   13   16 ar    
   26   13   27 1     
   27   14   16 ar    
   28   14   28 1     
   29   15   17 2     
   30   16   29 1     
@<TRIPOS>SUBSTRUCTURE
      1 RES1           1
@<TRIPOS>SET
DONOR_HYDROGENS      STATIC     ATOMS    <user>   **** ""
2 22 23
ATOM$RED        STATIC     ATOMS    COLORGROUP SYSTEM
2 22 23
@<TRIPOS>COMMENT
> <Gold.Version>
2022.3.0

> <Gold.Id.Protein>
unknown|3ovv_clean|pdb

> <Gold.Protein.RotatedTorsions>
[  602  597  595  592 ] final   64.14 input   59.96 | X-H torsion
[  622  617  616  613 ] final   17.05 input   59.98 | X-H torsion
[ 2560 2551 2550 2548 ] final  179.16 input   59.99 | X-H torsion
[ 2635 2624 2623 2622 ] final -125.91 input   60.00 | X-H torsion
[ 1835 1828 1827 1825 ] final   23.87 input   60.01 | X-H torsion
[ 5212 5203 5202 5200 ] final   88.82 input   59.98 | X-H torsion

> <Gold.Protein.ActiveResidues>
 THR48   LEU49   GLY50   THR51   GLY52   SER53   PHE54   GLY55   ARG56   VAL57  
 MET58   LEU59   VAL60   HIS68   TYR69   ALA70   MET71   LYS72   ILE73   LEU74  
 ASP75   LYS78   VAL79   LEU82   GLN84   THR88   GLU91   LEU95   VAL104  LYS105 
 LEU106  MET118  VAL119  MET120  GLU121  TYR122  VAL123  PRO124  GLY125  GLY126 
 GLU127  TYR164  ASP166  LYS168  GLU170  ASN171  LEU172  LEU173  ILE174  ASP175 
 GLN181  VAL182  THR183  ASP184  PHE185  GLY186  PHE187  PHE327  TYR330 

> <Gold.Protein.RotatedAtoms>
   -5.8631   -1.7429   14.3598 H   0  0  0  0  0  0  0  0  0  0  0  0  # atno 602  bound_to 597 
   -7.2793    1.1769   20.4716 H   0  0  0  0  0  0  0  0  0  0  0  0  # atno 622  bound_to 617 
   -6.8583  -15.9814    9.6480 H   0  0  0  0  0  0  0  0  0  0  0  0  # atno 1835 bound_to 1828
  -16.8805   -7.8590   22.1142 H   0  0  0  0  0  0  0  0  0  0  0  0  # atno 2560 bound_to 2551
  -13.9576   -1.2029   18.5084 H   0  0  0  0  0  0  0  0  0  0  0  0  # atno 2635 bound_to 2624
  -15.4045   -0.4660   18.8381 H   0  0  0  0  0  0  0  0  0  0  0  0  # atno 2636 bound_to 2624
  -14.5335   -1.1673   20.0615 H   0  0  0  0  0  0  0  0  0  0  0  0  # atno 2637 bound_to 2624
   -8.5443   -5.1881   11.6016 H   0  0  0  0  0  0  0  0  0  0  0  0  # atno 5212 bound_to 5203
   -5.7414   -2.8460   13.1697 LP  0  0  0  0  0  0  0  0  0  0  0  0  # atno 5531 bound_to 597 
   -4.7845   -1.5228   13.1614 LP  0  0  0  0  0  0  0  0  0  0  0  0  # atno 5532 bound_to 597 
   -7.2257    2.7588   20.8494 LP  0  0  0  0  0  0  0  0  0  0  0  0  # atno 5535 bound_to 617 
   -7.6130    1.6565   21.9903 LP  0  0  0  0  0  0  0  0  0  0  0  0  # atno 5536 bound_to 617 
  -16.0607   -9.1856   22.5786 LP  0  0  0  0  0  0  0  0  0  0  0  0  # atno 5569 bound_to 2551
  -15.5009   -7.7003   22.9621 LP  0  0  0  0  0  0  0  0  0  0  0  0  # atno 5570 bound_to 2551
   -8.0108  -17.0659    9.2675 LP  0  0  0  0  0  0  0  0  0  0  0  0  # atno 5599 bound_to 1828
   -6.4427  -17.3908    8.9479 LP  0  0  0  0  0  0  0  0  0  0  0  0  # atno 5600 bound_to 1828

> <Gold.Score>
     Fitness  S(hb_ext) S(vdw_ext)  S(hb_int)    S(int)      intcor
     46.74       0.48      33.81       0.00      -0.23      -0.76

> <Gold.Goldscore.Fitness>
46.7447

> <Gold.Goldscore.Internal.Vdw>
-0.5486

> <Gold.Goldscore.Internal.Torsion>
-0.4372

> <Gold.Goldscore.External.Vdw>
33.8149

> <Gold.Goldscore.Internal.HBond>
0.0000

> <Gold.Goldscore.External.HBond>
0.4765

> <Gold.Goldscore.Internal.Correction>
-0.7585

> <Gold.Goldscore.Hbonds>
donor molecule, donor type, donor heavy atom, donor atom, acceptor molecule, acceptor atom, score
      L1  H     8    22       P1  2655  0.16
      L1  H    10    23       P1   594  0.08

> <Gold.Goldscore.Internal.Vdw.Weighted>
-0.5486

> <Gold.Goldscore.Internal.Torsion.Weighted>
-0.4372

> <Gold.Goldscore.External.Vdw.Weighted>
46.4955

> <Gold.Goldscore.Internal.HBond.Weighted>
0.0000

> <Gold.Goldscore.External.HBond.Weighted>
0.4765

> <Gold.Goldscore.Internal.Correction.Weighted>
-0.7585

> <Gold.Rescore>
     Score     S(PLP)   S(hbond)     S(cho)   S(metal)  DE(clash)   DE(tors)     intcor
     41.02     -38.80       0.85       0.00       0.00       0.00       0.16       ----

> <Gold.PLP.Fitness>
41.0187

> <Gold.PLP.PLP>
-38.7977

> <Gold.PLP.part.hbond>
-2.0000

> <Gold.PLP.part.metal>
0.0000

> <Gold.PLP.part.buried>
2.9515

> <Gold.PLP.part.nonpolar>
-41.2503

> <Gold.PLP.part.repulsive>
0.6332

> <Gold.PLP.ligand.clash>
0.0000

> <Gold.PLP.ligand.torsion>
0.1615

> <Gold.PLP.Chemscore.Hbond>
0.8480

> <Gold.PLP.Chemscore.CHOScore>
0.0000

> <Gold.PLP.Chemscore.Metal>
0.0000

> <Gold.Chemscore.Hbonds>
donor molecule, donor type, donor heavy atom, donor atom, acceptor molecule, acceptor atom, score
      L1  H     8    22       P1  2655  0.69

> <Gold.PLP.Chemscore.Internal.Correction>
   9.000000E+99

#       Name:                CT1002167954
#       Creating user name   hitesit
#       Creation time:       Sun Apr 16 22:50:14 2023


#       File generated by GOLD software.
#

@<TRIPOS>MOLECULE
CT1002167954|ligand_prepared|mol2|1|dock3
    29    30     1
SMALL
NO_CHARGES


@<TRIPOS>ATOM
      1 C1          -9.4159  -8.2426  17.6668 C.3            1 RES1               0.0000
      2 C2          -9.1307  -9.6669  17.1483 C.ar           1 RES1               0.0000
      3 C3          -8.3755  -7.3343  17.0182 C.2            1 RES1               0.0000
      4 C4         -10.8533  -7.9242  17.2706 C.2            1 RES1               0.0000
      5 C5          -9.3014  -8.1022  19.2026 C.3            1 RES1               0.0000
      6 C6          -8.9654  -9.9057  15.7873 C.ar           1 RES1               0.0000
      7 C7          -9.0278 -10.7497  18.0175 C.ar           1 RES1               0.0000
      8 N8          -8.7937  -6.5098  16.0156 N.am           1 RES1               0.0000
      9 O9          -7.1982  -7.3693  17.3543 O.2            1 RES1               0.0000
     10 N10        -11.0612  -6.9217  16.3597 N.am           1 RES1               0.0000
     11 O11        -11.8068  -8.5435  17.7263 O.2            1 RES1               0.0000
     12 C12         -9.4142  -6.6688  19.6974 C.3            1 RES1               0.0000
     13 C13         -8.7037 -11.1802  15.3126 C.ar           1 RES1               0.0000
     14 C14         -8.7662 -12.0236  17.5406 C.ar           1 RES1               0.0000
     15 C15        -10.0948  -6.2207  15.6912 C.2            1 RES1               0.0000
     16 C16         -8.6035 -12.2398  16.1888 C.ar           1 RES1               0.0000
     17 O17        -10.3601  -5.3712  14.8456 O.2            1 RES1               0.0000
     18 H18        -10.0918  -8.7009  19.6718 H              1 RES1               0.0000
     19 H19         -8.3355  -8.5115  19.5236 H              1 RES1               0.0000
     20 H20         -9.0433  -9.0846  15.0824 H              1 RES1               0.0000
     21 H21         -9.1532 -10.6034  19.0850 H              1 RES1               0.0000
     22 H22         -8.0723  -6.0672  15.4552 H              1 RES1               0.0000
     23 H23        -12.0258  -6.6751  16.1618 H              1 RES1               0.0000
     24 H24         -9.3272  -6.6268  20.7811 H              1 RES1               0.0000
     25 H25         -8.6277  -6.0502  19.2701 H              1 RES1               0.0000
     26 H26        -10.3736  -6.2386  19.4174 H              1 RES1               0.0000
     27 H27         -8.5778 -11.3454  14.2476 H              1 RES1               0.0000
     28 H28         -8.6887 -12.8547  18.2338 H              1 RES1               0.0000
     29 H29         -8.3980 -13.2381  15.8167 H              1 RES1               0.0000
@<TRIPOS>BOND
    1    1    2 1     
    2    1    3 1     
    3    1    4 1     
    4    1    5 1     
    5    2    6 ar    
    6    2    7 ar    
    7    3    8 1     
    8    3    9 2     
    9    4   10 1     
   10    4   11 2     
   11    5   12 1     
   12    5   18 1     
   13    5   19 1     
   14    6   13 ar    
   15    6   20 1     
   16    7   14 ar    
   17    7   21 1     
   18    8   15 1     
   19    8   22 1     
   20   10   15 1     
   21   10   23 1     
   22   12   24 1     
   23   12   25 1     
   24   12   26 1     
   25   13   16 ar    
   26   13   27 1     
   27   14   16 ar    
   28   14   28 1     
   29   15   17 2     
   30   16   29 1     
@<TRIPOS>SUBSTRUCTURE
      1 RES1           1
@<TRIPOS>SET
DONOR_HYDROGENS      STATIC     ATOMS    <user>   **** ""
2 22 23
ATOM$RED        STATIC     ATOMS    COLORGROUP SYSTEM
2 22 23
@<TRIPOS>COMMENT
> <Gold.Version>
2022.3.0

> <Gold.Id.Protein>
unknown|3ovv_clean|pdb

> <Gold.Protein.RotatedTorsions>
[  602  597  595  592 ] final  -27.01 input   59.96 | X-H torsion
[  622  617  616  613 ] final  154.63 input   59.98 | X-H torsion
[ 2560 2551 2550 2548 ] final   73.41 input   59.99 | X-H torsion
[ 2635 2624 2623 2622 ] final  170.15 input   60.00 | X-H torsion
[ 1835 1828 1827 1825 ] final   91.62 input   60.01 | X-H torsion
[ 5212 5203 5202 5200 ] final   69.21 input   59.98 | X-H torsion

> <Gold.Protein.ActiveResidues>
 THR48   LEU49   GLY50   THR51   GLY52   SER53   PHE54   GLY55   ARG56   VAL57  
 MET58   LEU59   VAL60   HIS68   TYR69   ALA70   MET71   LYS72   ILE73   LEU74  
 ASP75   LYS78   VAL79   LEU82   GLN84   THR88   GLU91   LEU95   VAL104  LYS105 
 LEU106  MET118  VAL119  MET120  GLU121  TYR122  VAL123  PRO124  GLY125  GLY126 
 GLU127  TYR164  ASP166  LYS168  GLU170  ASN171  LEU172  LEU173  ILE174  ASP175 
 GLN181  VAL182  THR183  ASP184  PHE185  GLY186  PHE187  PHE327  TYR330 

> <Gold.Protein.RotatedAtoms>
   -6.0034   -2.8015   13.5551 H   0  0  0  0  0  0  0  0  0  0  0  0  # atno 602  bound_to 597 
   -7.5883    1.9419   22.0098 H   0  0  0  0  0  0  0  0  0  0  0  0  # atno 622  bound_to 617 
   -6.1781  -16.6696    9.2559 H   0  0  0  0  0  0  0  0  0  0  0  0  # atno 1835 bound_to 1828
  -16.2605   -9.1721   22.4589 H   0  0  0  0  0  0  0  0  0  0  0  0  # atno 2560 bound_to 2551
  -13.8841   -1.4220   19.4946 H   0  0  0  0  0  0  0  0  0  0  0  0  # atno 2635 bound_to 2624
  -14.6723   -0.7533   18.1996 H   0  0  0  0  0  0  0  0  0  0  0  0  # atno 2636 bound_to 2624
  -15.3394   -0.6608   19.7141 H   0  0  0  0  0  0  0  0  0  0  0  0  # atno 2637 bound_to 2624
   -8.5810   -5.4720   11.4615 H   0  0  0  0  0  0  0  0  0  0  0  0  # atno 5212 bound_to 5203
   -4.8338   -1.8946   12.8788 LP  0  0  0  0  0  0  0  0  0  0  0  0  # atno 5531 bound_to 597 
   -5.5508   -1.4079   14.2628 LP  0  0  0  0  0  0  0  0  0  0  0  0  # atno 5532 bound_to 597 
   -7.3527    1.0123   20.6951 LP  0  0  0  0  0  0  0  0  0  0  0  0  # atno 5535 bound_to 617 
   -7.1747    2.6325   20.5956 LP  0  0  0  0  0  0  0  0  0  0  0  0  # atno 5536 bound_to 617 
  -15.4037   -7.9060   23.0161 LP  0  0  0  0  0  0  0  0  0  0  0  0  # atno 5569 bound_to 2551
  -16.7825   -7.6570   22.1774 LP  0  0  0  0  0  0  0  0  0  0  0  0  # atno 5570 bound_to 2551
   -7.6684  -16.1507    9.6546 LP  0  0  0  0  0  0  0  0  0  0  0  0  # atno 5599 bound_to 1828
   -7.4699  -17.6132    8.9557 LP  0  0  0  0  0  0  0  0  0  0  0  0  # atno 5600 bound_to 1828

> <Gold.Score>
     Fitness  S(hb_ext) S(vdw_ext)  S(hb_int)    S(int)      intcor
     46.07       0.43      33.24       0.00      -0.07      -0.76

> <Gold.Goldscore.Fitness>
46.0682

> <Gold.Goldscore.Internal.Vdw>
-0.3771

> <Gold.Goldscore.Internal.Torsion>
-0.4494

> <Gold.Goldscore.External.Vdw>
33.2417

> <Gold.Goldscore.Internal.HBond>
0.0000

> <Gold.Goldscore.External.HBond>
0.4289

> <Gold.Goldscore.Internal.Correction>
-0.7585

> <Gold.Goldscore.Hbonds>
donor molecule, donor type, donor heavy atom, donor atom, acceptor molecule, acceptor atom, score
      L1  H    10    23       P1  2655  0.21

> <Gold.Goldscore.Internal.Vdw.Weighted>
-0.3771

> <Gold.Goldscore.Internal.Torsion.Weighted>
-0.4494

> <Gold.Goldscore.External.Vdw.Weighted>
45.7073

> <Gold.Goldscore.Internal.HBond.Weighted>
0.0000

> <Gold.Goldscore.External.HBond.Weighted>
0.4289

> <Gold.Goldscore.Internal.Correction.Weighted>
-0.7585

> <Gold.Rescore>
     Score     S(PLP)   S(hbond)     S(cho)   S(metal)  DE(clash)   DE(tors)     intcor
     49.21     -47.56       1.13       0.00       0.00       0.00       0.87       ----

> <Gold.PLP.Fitness>
49.2074

> <Gold.PLP.PLP>
-47.5636

> <Gold.PLP.part.hbond>
-2.6372

> <Gold.PLP.part.metal>
0.0000

> <Gold.PLP.part.buried>
0.1017

> <Gold.PLP.part.nonpolar>
-46.8585

> <Gold.PLP.part.repulsive>
1.3342

> <Gold.PLP.ligand.clash>
0.0000

> <Gold.PLP.ligand.torsion>
0.8741

> <Gold.PLP.Chemscore.Hbond>
1.1307

> <Gold.PLP.Chemscore.CHOScore>
0.0000

> <Gold.PLP.Chemscore.Metal>
0.0000

> <Gold.Chemscore.Hbonds>
donor molecule, donor type, donor heavy atom, donor atom, acceptor molecule, acceptor atom, score
      L1  H    10    23       P1  2655  0.38

> <Gold.PLP.Chemscore.Internal.Correction>
   9.000000E+99

#       Name:                CT1002167954
#       Creating user name   hitesit
#       Creation time:       Sun Apr 16 22:50:13 2023


#       File generated by GOLD software.
#

@<TRIPOS>MOLECULE
CT1002167954|ligand_prepared|mol2|1|dock2
    29    30     1
SMALL
NO_CHARGES


@<TRIPOS>ATOM
      1 C1          -8.8035  -7.1037  18.0305 C.3            1 RES1               0.0000
      2 C2          -8.9232  -8.6400  18.0967 C.ar           1 RES1               0.0000
      3 C3          -8.6891  -6.6203  19.4733 C.2            1 RES1               0.0000
      4 C4          -7.5759  -6.8078  17.1761 C.2            1 RES1               0.0000
      5 C5         -10.0203  -6.4099  17.3751 C.3            1 RES1               0.0000
      6 C6          -9.2375  -9.3759  16.9581 C.ar           1 RES1               0.0000
      7 C7          -8.7199  -9.3342  19.2863 C.ar           1 RES1               0.0000
      8 N8          -7.4667  -6.1935  19.9015 N.am           1 RES1               0.0000
      9 O9          -9.6477  -6.6504  20.2352 O.2            1 RES1               0.0000
     10 N10         -6.5037  -6.2048  17.7797 N.am           1 RES1               0.0000
     11 O11         -7.5211  -7.1066  15.9895 O.2            1 RES1               0.0000
     12 C12        -11.3606  -6.9735  17.8200 C.3            1 RES1               0.0000
     13 C13         -9.3418 -10.7562  17.0064 C.ar           1 RES1               0.0000
     14 C14         -8.8249 -10.7146  19.3324 C.ar           1 RES1               0.0000
     15 C15         -6.3817  -5.9121  19.1107 C.2            1 RES1               0.0000
     16 C16         -9.1352 -11.4264  18.1932 C.ar           1 RES1               0.0000
     17 O17         -5.3639  -5.4193  19.5886 O.2            1 RES1               0.0000
     18 H18         -9.9893  -5.3403  17.6166 H              1 RES1               0.0000
     19 H19         -9.9393  -6.5100  16.2856 H              1 RES1               0.0000
     20 H20         -9.4060  -8.8656  16.0157 H              1 RES1               0.0000
     21 H21         -8.4758  -8.7948  20.1952 H              1 RES1               0.0000
     22 H22         -7.3483  -6.0723  20.9023 H              1 RES1               0.0000
     23 H23         -5.7242  -5.9504  17.1813 H              1 RES1               0.0000
     24 H24        -12.1802  -6.4515  17.3305 H              1 RES1               0.0000
     25 H25        -11.4360  -8.0303  17.5725 H              1 RES1               0.0000
     26 H26        -11.4857  -6.8675  18.8956 H              1 RES1               0.0000
     27 H27         -9.5876 -11.3117  16.1073 H              1 RES1               0.0000
     28 H28         -8.6621 -11.2378  20.2688 H              1 RES1               0.0000
     29 H29         -9.2166 -12.5077  18.2307 H              1 RES1               0.0000
@<TRIPOS>BOND
    1    1    2 1     
    2    1    3 1     
    3    1    4 1     
    4    1    5 1     
    5    2    6 ar    
    6    2    7 ar    
    7    3    8 1     
    8    3    9 2     
    9    4   10 1     
   10    4   11 2     
   11    5   12 1     
   12    5   18 1     
   13    5   19 1     
   14    6   13 ar    
   15    6   20 1     
   16    7   14 ar    
   17    7   21 1     
   18    8   15 1     
   19    8   22 1     
   20   10   15 1     
   21   10   23 1     
   22   12   24 1     
   23   12   25 1     
   24   12   26 1     
   25   13   16 ar    
   26   13   27 1     
   27   14   16 ar    
   28   14   28 1     
   29   15   17 2     
   30   16   29 1     
@<TRIPOS>SUBSTRUCTURE
      1 RES1           1
@<TRIPOS>SET
DONOR_HYDROGENS      STATIC     ATOMS    <user>   **** ""
2 22 23
ATOM$RED        STATIC     ATOMS    COLORGROUP SYSTEM
2 22 23
@<TRIPOS>COMMENT
> <Gold.Version>
2022.3.0

> <Gold.Id.Protein>
unknown|3ovv_clean|pdb

> <Gold.Protein.RotatedTorsions>
[  602  597  595  592 ] final  128.43 input   59.96 | X-H torsion
[  622  617  616  613 ] final  -46.63 input   59.98 | X-H torsion
[ 2560 2551 2550 2548 ] final  -24.28 input   59.99 | X-H torsion
[ 2635 2624 2623 2622 ] final -102.19 input   60.00 | X-H torsion
[ 1835 1828 1827 1825 ] final -134.76 input   60.01 | X-H torsion
[ 5212 5203 5202 5200 ] final   65.65 input   59.98 | X-H torsion

> <Gold.Protein.ActiveResidues>
 THR48   LEU49   GLY50   THR51   GLY52   SER53   PHE54   GLY55   ARG56   VAL57  
 MET58   LEU59   VAL60   HIS68   TYR69   ALA70   MET71   LYS72   ILE73   LEU74  
 ASP75   LYS78   VAL79   LEU82   GLN84   THR88   GLU91   LEU95   VAL104  LYS105 
 LEU106  MET118  VAL119  MET120  GLU121  TYR122  VAL123  PRO124  GLY125  GLY126 
 GLU127  TYR164  ASP166  LYS168  GLU170  ASN171  LEU172  LEU173  ILE174  ASP175 
 GLN181  VAL182  THR183  ASP184  PHE185  GLY186  PHE187  PHE327  TYR330 

> <Gold.Protein.RotatedAtoms>
   -5.1424   -1.2261   13.9063 H   0  0  0  0  0  0  0  0  0  0  0  0  # atno 602  bound_to 597 
   -7.1313    2.1249   20.2366 H   0  0  0  0  0  0  0  0  0  0  0  0  # atno 622  bound_to 617 
   -7.6591  -17.5165    9.0232 H   0  0  0  0  0  0  0  0  0  0  0  0  # atno 1835 bound_to 1828
  -15.3519   -8.2650   23.0405 H   0  0  0  0  0  0  0  0  0  0  0  0  # atno 2560 bound_to 2551
  -14.2168   -1.0184   18.2773 H   0  0  0  0  0  0  0  0  0  0  0  0  # atno 2635 bound_to 2624
  -15.4732   -0.4981   19.2241 H   0  0  0  0  0  0  0  0  0  0  0  0  # atno 2636 bound_to 2624
  -14.2057   -1.3196   19.9066 H   0  0  0  0  0  0  0  0  0  0  0  0  # atno 2637 bound_to 2624
   -8.5901   -5.5174   11.4265 H   0  0  0  0  0  0  0  0  0  0  0  0  # atno 5212 bound_to 5203
   -6.1479   -2.5005   14.0193 LP  0  0  0  0  0  0  0  0  0  0  0  0  # atno 5531 bound_to 597 
   -5.1039   -2.3889   12.7686 LP  0  0  0  0  0  0  0  0  0  0  0  0  # atno 5532 bound_to 597 
   -7.4796    2.5104   21.7787 LP  0  0  0  0  0  0  0  0  0  0  0  0  # atno 5535 bound_to 617 
   -7.5081    0.9501   21.2977 LP  0  0  0  0  0  0  0  0  0  0  0  0  # atno 5536 bound_to 617 
  -16.5475   -7.4223   22.3278 LP  0  0  0  0  0  0  0  0  0  0  0  0  # atno 5569 bound_to 2551
  -16.5541   -9.0546   22.2797 LP  0  0  0  0  0  0  0  0  0  0  0  0  # atno 5570 bound_to 2551
   -6.1713  -16.8706    9.1597 LP  0  0  0  0  0  0  0  0  0  0  0  0  # atno 5599 bound_to 1828
   -7.4760  -16.0407    9.6848 LP  0  0  0  0  0  0  0  0  0  0  0  0  # atno 5600 bound_to 1828

> <Gold.Score>
     Fitness  S(hb_ext) S(vdw_ext)  S(hb_int)    S(int)      intcor
     45.41       0.00      35.42       0.00      -3.30      -0.77

> <Gold.Goldscore.Fitness>
45.4085

> <Gold.Goldscore.Internal.Vdw>
-3.2465

> <Gold.Goldscore.Internal.Torsion>
-0.8153

> <Gold.Goldscore.External.Vdw>
35.4219

> <Gold.Goldscore.Internal.HBond>
0.0000

> <Gold.Goldscore.External.HBond>
0.0000

> <Gold.Goldscore.Internal.Correction>
-0.7653

> <Gold.Goldscore.Internal.Vdw.Weighted>
-3.2465

> <Gold.Goldscore.Internal.Torsion.Weighted>
-0.8153

> <Gold.Goldscore.External.Vdw.Weighted>
48.7051

> <Gold.Goldscore.Internal.HBond.Weighted>
0.0000

> <Gold.Goldscore.External.HBond.Weighted>
0.0000

> <Gold.Goldscore.Internal.Correction.Weighted>
-0.7653

> <Gold.Rescore>
     Score     S(PLP)   S(hbond)     S(cho)   S(metal)  DE(clash)   DE(tors)     intcor
     47.82     -46.64       1.00       0.00       0.00       1.36       0.23       ----

> <Gold.PLP.Fitness>
47.8169

> <Gold.PLP.PLP>
-46.6419

> <Gold.PLP.part.hbond>
-2.0000

> <Gold.PLP.part.metal>
0.0000

> <Gold.PLP.part.buried>
-4.7632

> <Gold.PLP.part.nonpolar>
-41.9013

> <Gold.PLP.part.repulsive>
0.7386

> <Gold.PLP.ligand.clash>
1.3578

> <Gold.PLP.ligand.torsion>
0.2336

> <Gold.PLP.Chemscore.Hbond>
1.0000

> <Gold.PLP.Chemscore.CHOScore>
0.0000

> <Gold.PLP.Chemscore.Metal>
0.0000

> <Gold.PLP.Chemscore.Internal.Correction>
   9.000000E+99

#       Name:                CT1002167954
#       Creating user name   hitesit
#       Creation time:       Sun Apr 16 22:50:15 2023


#       File generated by GOLD software.
#

@<TRIPOS>MOLECULE
CT1002167954|ligand_prepared|mol2|1|dock4
    29    30     1
SMALL
NO_CHARGES


@<TRIPOS>ATOM
      1 C1          -8.7303  -7.1674  17.5900 C.3            1 RES1               0.0000
      2 C2          -8.9076  -8.6551  17.9560 C.ar           1 RES1               0.0000
      3 C3          -8.5002  -6.4273  18.9044 C.2            1 RES1               0.0000
      4 C4          -7.5515  -7.1029  16.6252 C.2            1 RES1               0.0000
      5 C5          -9.9589  -6.5466  16.8854 C.3            1 RES1               0.0000
      6 C6          -9.3554  -9.5697  17.0074 C.ar           1 RES1               0.0000
      7 C7          -8.6253  -9.1276  19.2349 C.ar           1 RES1               0.0000
      8 N8          -7.2356  -5.9923  19.1716 N.am           1 RES1               0.0000
      9 O9          -9.4061  -6.2628  19.7122 O.2            1 RES1               0.0000
     10 N10         -6.4177  -6.4541  17.0391 N.am           1 RES1               0.0000
     11 O11         -7.5883  -7.6225  15.5166 O.2            1 RES1               0.0000
     12 C12         -9.7431  -5.1130  16.4265 C.3            1 RES1               0.0000
     13 C13         -9.5125 -10.9087  17.3250 C.ar           1 RES1               0.0000
     14 C14         -8.7834 -10.4670  19.5505 C.ar           1 RES1               0.0000
     15 C15         -6.1953  -5.9225  18.2801 C.2            1 RES1               0.0000
     16 C16         -9.2263 -11.3583  18.5964 C.ar           1 RES1               0.0000
     17 O17         -5.1287  -5.4027  18.5950 O.2            1 RES1               0.0000
     18 H18        -10.2143  -7.1617  16.0137 H              1 RES1               0.0000
     19 H19        -10.8117  -6.5719  17.5750 H              1 RES1               0.0000
     20 H20         -9.5880  -9.2339  16.0023 H              1 RES1               0.0000
     21 H21         -8.2766  -8.4444  20.0019 H              1 RES1               0.0000
     22 H22         -7.0457  -5.6910  20.1221 H              1 RES1               0.0000
     23 H23         -5.6702  -6.3585  16.3590 H              1 RES1               0.0000
     24 H24        -10.6353  -4.7257  15.9388 H              1 RES1               0.0000
     25 H25         -9.5119  -4.4681  17.2717 H              1 RES1               0.0000
     26 H26         -8.9180  -5.0544  15.7197 H              1 RES1               0.0000
     27 H27         -9.8627 -11.6058  16.5709 H              1 RES1               0.0000
     28 H28         -8.5575 -10.8163  20.5525 H              1 RES1               0.0000
     29 H29         -9.3491 -12.4073  18.8448 H              1 RES1               0.0000
@<TRIPOS>BOND
    1    1    2 1     
    2    1    3 1     
    3    1    4 1     
    4    1    5 1     
    5    2    6 ar    
    6    2    7 ar    
    7    3    8 1     
    8    3    9 2     
    9    4   10 1     
   10    4   11 2     
   11    5   12 1     
   12    5   18 1     
   13    5   19 1     
   14    6   13 ar    
   15    6   20 1     
   16    7   14 ar    
   17    7   21 1     
   18    8   15 1     
   19    8   22 1     
   20   10   15 1     
   21   10   23 1     
   22   12   24 1     
   23   12   25 1     
   24   12   26 1     
   25   13   16 ar    
   26   13   27 1     
   27   14   16 ar    
   28   14   28 1     
   29   15   17 2     
   30   16   29 1     
@<TRIPOS>SUBSTRUCTURE
      1 RES1           1
@<TRIPOS>SET
DONOR_HYDROGENS      STATIC     ATOMS    <user>   **** ""
2 22 23
ATOM$RED        STATIC     ATOMS    COLORGROUP SYSTEM
2 22 23
@<TRIPOS>COMMENT
> <Gold.Version>
2022.3.0

> <Gold.Id.Protein>
unknown|3ovv_clean|pdb

> <Gold.Protein.RotatedTorsions>
[  602  597  595  592 ] final   76.82 input   59.96 | X-H torsion
[  622  617  616  613 ] final  -16.19 input   59.98 | X-H torsion
[ 2560 2551 2550 2548 ] final   63.88 input   59.99 | X-H torsion
[ 2635 2624 2623 2622 ] final -133.89 input   60.00 | X-H torsion
[ 1835 1828 1827 1825 ] final   81.29 input   60.01 | X-H torsion
[ 5212 5203 5202 5200 ] final   67.87 input   59.98 | X-H torsion

> <Gold.Protein.ActiveResidues>
 THR48   LEU49   GLY50   THR51   GLY52   SER53   PHE54   GLY55   ARG56   VAL57  
 MET58   LEU59   VAL60   HIS68   TYR69   ALA70   MET71   LYS72   ILE73   LEU74  
 ASP75   LYS78   VAL79   LEU82   GLN84   THR88   GLU91   LEU95   VAL104  LYS105 
 LEU106  MET118  VAL119  MET120  GLU121  TYR122  VAL123  PRO124  GLY125  GLY126 
 GLU127  TYR164  ASP166  LYS168  GLU170  ASN171  LEU172  LEU173  ILE174  ASP175 
 GLN181  VAL182  THR183  ASP184  PHE185  GLY186  PHE187  PHE327  TYR330 

> <Gold.Protein.RotatedAtoms>
   -5.7329   -1.5836   14.3394 H   0  0  0  0  0  0  0  0  0  0  0  0  # atno 602  bound_to 597 
   -7.1725    1.6355   20.2163 H   0  0  0  0  0  0  0  0  0  0  0  0  # atno 622  bound_to 617 
   -6.2135  -16.5215    9.3283 H   0  0  0  0  0  0  0  0  0  0  0  0  # atno 1835 bound_to 1828
  -16.1280   -9.1830   22.5398 H   0  0  0  0  0  0  0  0  0  0  0  0  # atno 2560 bound_to 2551
  -13.8943   -1.2566   18.6125 H   0  0  0  0  0  0  0  0  0  0  0  0  # atno 2635 bound_to 2624
  -15.3508   -0.4735   18.7165 H   0  0  0  0  0  0  0  0  0  0  0  0  # atno 2636 bound_to 2624
  -14.6505   -1.1061   20.0791 H   0  0  0  0  0  0  0  0  0  0  0  0  # atno 2637 bound_to 2624
   -8.5843   -5.4895   11.4486 H   0  0  0  0  0  0  0  0  0  0  0  0  # atno 5212 bound_to 5203
   -5.8719   -2.8538   13.3318 LP  0  0  0  0  0  0  0  0  0  0  0  0  # atno 5531 bound_to 597 
   -4.7851   -1.6755   13.0199 LP  0  0  0  0  0  0  0  0  0  0  0  0  # atno 5532 bound_to 597 
   -7.3549    2.7653   21.3731 LP  0  0  0  0  0  0  0  0  0  0  0  0  # atno 5535 bound_to 617 
   -7.5912    1.1880   21.7238 LP  0  0  0  0  0  0  0  0  0  0  0  0  # atno 5536 bound_to 617 
  -15.4640   -7.7652   22.9829 LP  0  0  0  0  0  0  0  0  0  0  0  0  # atno 5569 bound_to 2551
  -16.8557   -7.7868   22.1290 LP  0  0  0  0  0  0  0  0  0  0  0  0  # atno 5570 bound_to 2551
   -7.7936  -16.2593    9.6178 LP  0  0  0  0  0  0  0  0  0  0  0  0  # atno 5599 bound_to 1828
   -7.3090  -17.6537    8.9196 LP  0  0  0  0  0  0  0  0  0  0  0  0  # atno 5600 bound_to 1828

> <Gold.Score>
     Fitness  S(hb_ext) S(vdw_ext)  S(hb_int)    S(int)      intcor
     42.74       0.05      32.64       0.00      -2.19      -0.76

> <Gold.Goldscore.Fitness>
42.7372

> <Gold.Goldscore.Internal.Vdw>
-2.5441

> <Gold.Goldscore.Internal.Torsion>
-0.3997

> <Gold.Goldscore.External.Vdw>
32.6357

> <Gold.Goldscore.Internal.HBond>
0.0000

> <Gold.Goldscore.External.HBond>
0.0483

> <Gold.Goldscore.Internal.Correction>
-0.7585

> <Gold.Goldscore.Hbonds>
donor molecule, donor type, donor heavy atom, donor atom, acceptor molecule, acceptor atom, score
      L1  H    10    23       P1   587  0.02

> <Gold.Goldscore.Internal.Vdw.Weighted>
-2.5441

> <Gold.Goldscore.Internal.Torsion.Weighted>
-0.3997

> <Gold.Goldscore.External.Vdw.Weighted>
44.8741

> <Gold.Goldscore.Internal.HBond.Weighted>
0.0000

> <Gold.Goldscore.External.HBond.Weighted>
0.0483

> <Gold.Goldscore.Internal.Correction.Weighted>
-0.7585

> <Gold.Rescore>
     Score     S(PLP)   S(hbond)     S(cho)   S(metal)  DE(clash)   DE(tors)     intcor
     47.66     -49.35       0.06       0.00       0.00       1.22       0.32       ----

> <Gold.PLP.Fitness>
47.6577

> <Gold.PLP.PLP>
-49.3479

> <Gold.PLP.part.hbond>
-1.0000

> <Gold.PLP.part.metal>
0.0000

> <Gold.PLP.part.buried>
-4.3464

> <Gold.PLP.part.nonpolar>
-45.0966

> <Gold.PLP.part.repulsive>
0.5765

> <Gold.PLP.ligand.clash>
1.2216

> <Gold.PLP.ligand.torsion>
0.3218

> <Gold.PLP.Chemscore.Hbond>
0.0583

> <Gold.PLP.Chemscore.CHOScore>
0.0000

> <Gold.PLP.Chemscore.Metal>
0.0000

> <Gold.PLP.Chemscore.Internal.Correction>
   9.000000E+99

#       Name:                CT1002167954
#       Creating user name   hitesit
#       Creation time:       Sun Apr 16 22:50:12 2023


#       File generated by GOLD software.
#

@<TRIPOS>MOLECULE
CT1002167954|ligand_prepared|mol2|1|dock1
    29    30     1
SMALL
NO_CHARGES


@<TRIPOS>ATOM
      1 C1          -9.4215  -7.9170  17.6224 C.3            1 RES1               0.0000
      2 C2          -9.2982  -9.4415  17.4235 C.ar           1 RES1               0.0000
      3 C3          -8.9370  -7.2752  16.3256 C.2            1 RES1               0.0000
      4 C4         -10.8876  -7.6455  17.9410 C.2            1 RES1               0.0000
      5 C5          -8.5692  -7.3683  18.7903 C.3            1 RES1               0.0000
      6 C6          -9.1144 -10.2858  18.5144 C.ar           1 RES1               0.0000
      7 C7          -9.3689 -10.0174  16.1578 C.ar           1 RES1               0.0000
      8 N8          -9.8771  -6.7357  15.4979 N.am           1 RES1               0.0000
      9 O9          -7.7521  -7.2775  16.0152 O.2            1 RES1               0.0000
     10 N10        -11.6179  -6.9208  17.0359 N.am           1 RES1               0.0000
     11 O11        -11.4213  -8.0668  18.9598 O.2            1 RES1               0.0000
     12 C12         -8.4838  -5.8506  18.8268 C.3            1 RES1               0.0000
     13 C13         -9.0080 -11.6565  18.3464 C.ar           1 RES1               0.0000
     14 C14         -9.2621 -11.3883  15.9921 C.ar           1 RES1               0.0000
     15 C15        -11.1871  -6.4798  15.8143 C.2            1 RES1               0.0000
     16 C16         -9.0823 -12.2087  17.0854 C.ar           1 RES1               0.0000
     17 O17        -11.9196  -5.8812  15.0318 O.2            1 RES1               0.0000
     18 H18         -8.9982  -7.7207  19.7364 H              1 RES1               0.0000
     19 H19         -7.5544  -7.7771  18.7094 H              1 RES1               0.0000
     20 H20         -9.0511  -9.8692  19.5141 H              1 RES1               0.0000
     21 H21         -9.5090  -9.3913  15.2831 H              1 RES1               0.0000
     22 H22         -9.5785  -6.5008  14.5566 H              1 RES1               0.0000
     23 H23        -12.5708  -6.6884  17.2970 H              1 RES1               0.0000
     24 H24         -7.8746  -5.5186  19.6649 H              1 RES1               0.0000
     25 H25         -8.0383  -5.4671  17.9112 H              1 RES1               0.0000
     26 H26         -9.4735  -5.4110  18.9321 H              1 RES1               0.0000
     27 H27         -8.8652 -12.2976  19.2100 H              1 RES1               0.0000
     28 H28         -9.3205 -11.8185  14.9977 H              1 RES1               0.0000
     29 H29         -8.9993 -13.2825  16.9542 H              1 RES1               0.0000
@<TRIPOS>BOND
    1    1    2 1     
    2    1    3 1     
    3    1    4 1     
    4    1    5 1     
    5    2    6 ar    
    6    2    7 ar    
    7    3    8 1     
    8    3    9 2     
    9    4   10 1     
   10    4   11 2     
   11    5   12 1     
   12    5   18 1     
   13    5   19 1     
   14    6   13 ar    
   15    6   20 1     
   16    7   14 ar    
   17    7   21 1     
   18    8   15 1     
   19    8   22 1     
   20   10   15 1     
   21   10   23 1     
   22   12   24 1     
   23   12   25 1     
   24   12   26 1     
   25   13   16 ar    
   26   13   27 1     
   27   14   16 ar    
   28   14   28 1     
   29   15   17 2     
   30   16   29 1     
@<TRIPOS>SUBSTRUCTURE
      1 RES1           1
@<TRIPOS>SET
DONOR_HYDROGENS      STATIC     ATOMS    <user>   **** ""
2 22 23
ATOM$RED        STATIC     ATOMS    COLORGROUP SYSTEM
2 22 23
@<TRIPOS>COMMENT
> <Gold.Version>
2022.3.0

> <Gold.Id.Protein>
unknown|3ovv_clean|pdb

> <Gold.Protein.RotatedTorsions>
[  602  597  595  592 ] final -154.07 input   59.96 | X-H torsion
[  622  617  616  613 ] final -170.92 input   59.98 | X-H torsion
[ 2560 2551 2550 2548 ] final -129.36 input   59.99 | X-H torsion
[ 2635 2624 2623 2622 ] final  -81.15 input   60.00 | X-H torsion
[ 1835 1828 1827 1825 ] final  140.46 input   60.01 | X-H torsion
[ 5212 5203 5202 5200 ] final   82.75 input   59.98 | X-H torsion

> <Gold.Protein.ActiveResidues>
 THR48   LEU49   GLY50   THR51   GLY52   SER53   PHE54   GLY55   ARG56   VAL57  
 MET58   LEU59   VAL60   HIS68   TYR69   ALA70   MET71   LYS72   ILE73   LEU74  
 ASP75   LYS78   VAL79   LEU82   GLN84   THR88   GLU91   LEU95   VAL104  LYS105 
 LEU106  MET118  VAL119  MET120  GLU121  TYR122  VAL123  PRO124  GLY125  GLY126 
 GLU127  TYR164  ASP166  LYS168  GLU170  ASN171  LEU172  LEU173  ILE174  ASP175 
 GLN181  VAL182  THR183  ASP184  PHE185  GLY186  PHE187  PHE327  TYR330 

> <Gold.Protein.RotatedAtoms>
   -4.8094   -1.7993   12.9399 H   0  0  0  0  0  0  0  0  0  0  0  0  # atno 602  bound_to 597 
   -7.4924    2.4535   21.8184 H   0  0  0  0  0  0  0  0  0  0  0  0  # atno 622  bound_to 617 
   -6.4087  -17.3496    8.9657 H   0  0  0  0  0  0  0  0  0  0  0  0  # atno 1835 bound_to 1828
  -16.3539   -7.3395   22.4511 H   0  0  0  0  0  0  0  0  0  0  0  0  # atno 2560 bound_to 2551
  -14.5071   -0.8434   18.1931 H   0  0  0  0  0  0  0  0  0  0  0  0  # atno 2635 bound_to 2624
  -15.4149   -0.5903   19.5559 H   0  0  0  0  0  0  0  0  0  0  0  0  # atno 2636 bound_to 2624
  -13.9737   -1.4024   19.6588 H   0  0  0  0  0  0  0  0  0  0  0  0  # atno 2637 bound_to 2624
   -8.5531   -5.2810   11.5685 H   0  0  0  0  0  0  0  0  0  0  0  0  # atno 5212 bound_to 5203
   -5.6336   -1.4774   14.3055 LP  0  0  0  0  0  0  0  0  0  0  0  0  # atno 5531 bound_to 597 
   -5.9537   -2.8347   13.4558 LP  0  0  0  0  0  0  0  0  0  0  0  0  # atno 5532 bound_to 597 
   -7.4927    0.9361   21.2304 LP  0  0  0  0  0  0  0  0  0  0  0  0  # atno 5535 bound_to 617 
   -7.1313    2.1935   20.2531 LP  0  0  0  0  0  0  0  0  0  0  0  0  # atno 5536 bound_to 617 
  -16.7191   -8.9021   22.1826 LP  0  0  0  0  0  0  0  0  0  0  0  0  # atno 5569 bound_to 2551
  -15.3731   -8.5072   23.0186 LP  0  0  0  0  0  0  0  0  0  0  0  0  # atno 5570 bound_to 2551
   -6.9111  -15.9653    9.6588 LP  0  0  0  0  0  0  0  0  0  0  0  0  # atno 5599 bound_to 1828
   -7.9950  -17.1140    9.2436 LP  0  0  0  0  0  0  0  0  0  0  0  0  # atno 5600 bound_to 1828

> <Gold.Score>
     Fitness  S(hb_ext) S(vdw_ext)  S(hb_int)    S(int)      intcor
     42.65       0.23      31.48       0.00      -0.88      -0.77

> <Gold.Goldscore.Fitness>
42.6463

> <Gold.Goldscore.Internal.Vdw>
-1.0887

> <Gold.Goldscore.Internal.Torsion>
-0.5562

> <Gold.Goldscore.External.Vdw>
31.4845

> <Gold.Goldscore.Internal.HBond>
0.0000

> <Gold.Goldscore.External.HBond>
0.2347

> <Gold.Goldscore.Internal.Correction>
-0.7653

> <Gold.Goldscore.Hbonds>
donor molecule, donor type, donor heavy atom, donor atom, acceptor molecule, acceptor atom, score
      L1  H    10    23       P1  2674  0.12

> <Gold.Goldscore.Internal.Vdw.Weighted>
-1.0887

> <Gold.Goldscore.Internal.Torsion.Weighted>
-0.5562

> <Gold.Goldscore.External.Vdw.Weighted>
43.2912

> <Gold.Goldscore.Internal.HBond.Weighted>
0.0000

> <Gold.Goldscore.External.HBond.Weighted>
0.2347

> <Gold.Goldscore.Internal.Correction.Weighted>
-0.7653

> <Gold.Rescore>
     Score     S(PLP)   S(hbond)     S(cho)   S(metal)  DE(clash)   DE(tors)     intcor
     48.07     -45.91       1.32       0.00       0.00       0.00       0.90       ----

> <Gold.PLP.Fitness>
48.0712

> <Gold.PLP.PLP>
-45.9135

> <Gold.PLP.part.hbond>
-2.9580

> <Gold.PLP.part.metal>
0.0000

> <Gold.PLP.part.buried>
-0.3499

> <Gold.PLP.part.nonpolar>
-44.9417

> <Gold.PLP.part.repulsive>
1.0639

> <Gold.PLP.ligand.clash>
0.0000

> <Gold.PLP.ligand.torsion>
0.9011

> <Gold.PLP.Chemscore.Hbond>
1.3200

> <Gold.PLP.Chemscore.CHOScore>
0.0000

> <Gold.PLP.Chemscore.Metal>
0.0000

> <Gold.Chemscore.Hbonds>
donor molecule, donor type, donor heavy atom, donor atom, acceptor molecule, acceptor atom, score
      L1  H    10    23       P1  2674  0.25
      P1  H  2880  2892       L1    11  0.28

> <Gold.PLP.Chemscore.Internal.Correction>
   9.000000E+99

#       Name:                CT1002167954
#       Creating user name   hitesit
#       Creation time:       Sun Apr 16 22:50:19 2023


#       File generated by GOLD software.
#

@<TRIPOS>MOLECULE
CT1002167954|ligand_prepared|mol2|1|dock8
    29    30     1
SMALL
NO_CHARGES


@<TRIPOS>ATOM
      1 C1          -9.2255  -7.3124  18.1909 C.3            1 RES1               0.0000
      2 C2          -7.9352  -6.5713  18.5969 C.ar           1 RES1               0.0000
      3 C3          -9.0683  -7.6694  16.7157 C.2            1 RES1               0.0000
      4 C4          -9.3326  -8.5202  19.1153 C.2            1 RES1               0.0000
      5 C5         -10.5101  -6.4677  18.3577 C.3            1 RES1               0.0000
      6 C6          -7.8105  -6.0075  19.8631 C.ar           1 RES1               0.0000
      7 C7          -6.8621  -6.4458  17.7187 C.ar           1 RES1               0.0000
      8 N8          -8.8207  -8.9738  16.4042 N.am           1 RES1               0.0000
      9 O9          -9.1215  -6.8128  15.8418 O.2            1 RES1               0.0000
     10 N10         -9.2272  -9.7672  18.5572 N.am           1 RES1               0.0000
     11 O11         -9.4907  -8.4028  20.3242 O.2            1 RES1               0.0000
     12 C12        -11.7638  -7.1478  17.8307 C.3            1 RES1               0.0000
     13 C13         -6.6538  -5.3448  20.2389 C.ar           1 RES1               0.0000
     14 C14         -5.7064  -5.7825  18.0964 C.ar           1 RES1               0.0000
     15 C15         -8.9454 -10.0482  17.2480 C.2            1 RES1               0.0000
     16 C16         -5.6009  -5.2322  19.3561 C.ar           1 RES1               0.0000
     17 O17         -8.8121 -11.1955  16.8321 O.2            1 RES1               0.0000
     18 H18        -10.6503  -6.2448  19.4226 H              1 RES1               0.0000
     19 H19        -10.3771  -5.5149  17.8304 H              1 RES1               0.0000
     20 H20         -8.6296  -6.0839  20.5705 H              1 RES1               0.0000
     21 H21         -6.9232  -6.8699  16.7222 H              1 RES1               0.0000
     22 H22         -8.5144  -9.1685  15.4563 H              1 RES1               0.0000
     23 H23         -9.3724 -10.5595  19.1749 H              1 RES1               0.0000
     24 H24        -12.6357  -6.5126  17.9723 H              1 RES1               0.0000
     25 H25        -11.6691  -7.3614  16.7681 H              1 RES1               0.0000
     26 H26        -11.9407  -8.0870  18.3508 H              1 RES1               0.0000
     27 H27         -6.5764  -4.9123  21.2310 H              1 RES1               0.0000
     28 H28         -4.8804  -5.6957  17.3982 H              1 RES1               0.0000
     29 H29         -4.6948  -4.7133  19.6509 H              1 RES1               0.0000
@<TRIPOS>BOND
    1    1    2 1     
    2    1    3 1     
    3    1    4 1     
    4    1    5 1     
    5    2    6 ar    
    6    2    7 ar    
    7    3    8 1     
    8    3    9 2     
    9    4   10 1     
   10    4   11 2     
   11    5   12 1     
   12    5   18 1     
   13    5   19 1     
   14    6   13 ar    
   15    6   20 1     
   16    7   14 ar    
   17    7   21 1     
   18    8   15 1     
   19    8   22 1     
   20   10   15 1     
   21   10   23 1     
   22   12   24 1     
   23   12   25 1     
   24   12   26 1     
   25   13   16 ar    
   26   13   27 1     
   27   14   16 ar    
   28   14   28 1     
   29   15   17 2     
   30   16   29 1     
@<TRIPOS>SUBSTRUCTURE
      1 RES1           1
@<TRIPOS>SET
DONOR_HYDROGENS      STATIC     ATOMS    <user>   **** ""
2 22 23
ATOM$RED        STATIC     ATOMS    COLORGROUP SYSTEM
2 22 23
@<TRIPOS>COMMENT
> <Gold.Version>
2022.3.0

> <Gold.Id.Protein>
unknown|3ovv_clean|pdb

> <Gold.Protein.RotatedTorsions>
[  602  597  595  592 ] final -149.89 input   59.96 | X-H torsion
[  622  617  616  613 ] final  -28.27 input   59.98 | X-H torsion
[ 2560 2551 2550 2548 ] final  -56.52 input   59.99 | X-H torsion
[ 2635 2624 2623 2622 ] final -146.59 input   60.00 | X-H torsion
[ 1835 1828 1827 1825 ] final  -73.54 input   60.01 | X-H torsion
[ 5212 5203 5202 5200 ] final   93.25 input   59.98 | X-H torsion

> <Gold.Protein.ActiveResidues>
 THR48   LEU49   GLY50   THR51   GLY52   SER53   PHE54   GLY55   ARG56   VAL57  
 MET58   LEU59   VAL60   HIS68   TYR69   ALA70   MET71   LYS72   ILE73   LEU74  
 ASP75   LYS78   VAL79   LEU82   GLN84   THR88   GLU91   LEU95   VAL104  LYS105 
 LEU106  MET118  VAL119  MET120  GLU121  TYR122  VAL123  PRO124  GLY125  GLY126 
 GLU127  TYR164  ASP166  LYS168  GLU170  ASN171  LEU172  LEU173  ILE174  ASP175 
 GLN181  VAL182  THR183  ASP184  PHE185  GLY186  PHE187  PHE327  TYR330 

> <Gold.Protein.RotatedAtoms>
   -4.8245   -1.8566   12.9061 H   0  0  0  0  0  0  0  0  0  0  0  0  # atno 602  bound_to 597 
   -7.1486    1.8297   20.1938 H   0  0  0  0  0  0  0  0  0  0  0  0  # atno 622  bound_to 617 
   -8.0267  -16.7336    9.4255 H   0  0  0  0  0  0  0  0  0  0  0  0  # atno 1835 bound_to 1828
  -15.4729   -7.7632   22.9798 H   0  0  0  0  0  0  0  0  0  0  0  0  # atno 2560 bound_to 2551
  -13.8235   -1.3292   18.7981 H   0  0  0  0  0  0  0  0  0  0  0  0  # atno 2635 bound_to 2624
  -15.2372   -0.5042   18.5406 H   0  0  0  0  0  0  0  0  0  0  0  0  # atno 2636 bound_to 2624
  -14.8349   -1.0028   20.0693 H   0  0  0  0  0  0  0  0  0  0  0  0  # atno 2637 bound_to 2624
   -8.5395   -5.1181   11.6197 H   0  0  0  0  0  0  0  0  0  0  0  0  # atno 5212 bound_to 5203
   -5.5849   -1.4352   14.2816 LP  0  0  0  0  0  0  0  0  0  0  0  0  # atno 5531 bound_to 597 
   -5.9872   -2.8191   13.5138 LP  0  0  0  0  0  0  0  0  0  0  0  0  # atno 5532 bound_to 597 
   -7.4058    2.6915   21.5500 LP  0  0  0  0  0  0  0  0  0  0  0  0  # atno 5535 bound_to 617 
   -7.5644    1.0663   21.5694 LP  0  0  0  0  0  0  0  0  0  0  0  0  # atno 5536 bound_to 617 
  -16.8584   -7.7927   22.1272 LP  0  0  0  0  0  0  0  0  0  0  0  0  # atno 5569 bound_to 2551
  -16.1212   -9.1897   22.5414 LP  0  0  0  0  0  0  0  0  0  0  0  0  # atno 5570 bound_to 2551
   -6.7494  -17.5882    8.8896 LP  0  0  0  0  0  0  0  0  0  0  0  0  # atno 5599 bound_to 1828
   -6.5279  -16.1112    9.5499 LP  0  0  0  0  0  0  0  0  0  0  0  0  # atno 5600 bound_to 1828

> <Gold.Score>
     Fitness  S(hb_ext) S(vdw_ext)  S(hb_int)    S(int)      intcor
     42.58       1.09      31.70       0.00      -2.10      -0.76

> <Gold.Goldscore.Fitness>
42.5849

> <Gold.Goldscore.Internal.Vdw>
-2.4390

> <Gold.Goldscore.Internal.Torsion>
-0.4215

> <Gold.Goldscore.External.Vdw>
31.7039

> <Gold.Goldscore.Internal.HBond>
0.0000

> <Gold.Goldscore.External.HBond>
1.0940

> <Gold.Goldscore.Internal.Correction>
-0.7585

> <Gold.Goldscore.Hbonds>
donor molecule, donor type, donor heavy atom, donor atom, acceptor molecule, acceptor atom, score
      P1  H   932   945       L1    11  0.18

> <Gold.Goldscore.Internal.Vdw.Weighted>
-2.4390

> <Gold.Goldscore.Internal.Torsion.Weighted>
-0.4215

> <Gold.Goldscore.External.Vdw.Weighted>
43.5929

> <Gold.Goldscore.Internal.HBond.Weighted>
0.0000

> <Gold.Goldscore.External.HBond.Weighted>
1.0940

> <Gold.Goldscore.Internal.Correction.Weighted>
-0.7585

> <Gold.Rescore>
     Score     S(PLP)   S(hbond)     S(cho)   S(metal)  DE(clash)   DE(tors)     intcor
     40.23     -41.76       0.00       0.00       0.00       1.31       0.11       ----

> <Gold.PLP.Fitness>
40.2291

> <Gold.PLP.PLP>
-41.7552

> <Gold.PLP.part.hbond>
-0.1725

> <Gold.PLP.part.metal>
0.0000

> <Gold.PLP.part.buried>
-5.2887

> <Gold.PLP.part.nonpolar>
-37.0310

> <Gold.PLP.part.repulsive>
0.2890

> <Gold.PLP.ligand.clash>
1.3055

> <Gold.PLP.ligand.torsion>
0.1103

> <Gold.PLP.Chemscore.Hbond>
0.0000

> <Gold.PLP.Chemscore.CHOScore>
0.0000

> <Gold.PLP.Chemscore.Metal>
0.0000

> <Gold.PLP.Chemscore.Internal.Correction>
   9.000000E+99

#       Name:                CT1002167954
#       Creating user name   hitesit
#       Creation time:       Sun Apr 16 22:50:16 2023


#       File generated by GOLD software.
#

@<TRIPOS>MOLECULE
CT1002167954|ligand_prepared|mol2|1|dock5
    29    30     1
SMALL
NO_CHARGES


@<TRIPOS>ATOM
      1 C1          -9.3481  -7.4831  17.5801 C.3            1 RES1               0.0000
      2 C2          -8.1305  -6.7434  18.1708 C.ar           1 RES1               0.0000
      3 C3          -9.1258  -7.5378  16.0715 C.2            1 RES1               0.0000
      4 C4          -9.3845  -8.8505  18.2536 C.2            1 RES1               0.0000
      5 C5         -10.6986  -6.7804  17.8524 C.3            1 RES1               0.0000
      6 C6          -8.1369  -6.3118  19.4938 C.ar           1 RES1               0.0000
      7 C7          -6.9946  -6.4880  17.4071 C.ar           1 RES1               0.0000
      8 N8          -8.7692  -8.7370  15.5285 N.am           1 RES1               0.0000
      9 O9          -9.2231  -6.5354  15.3745 O.2            1 RES1               0.0000
     10 N10         -9.1678  -9.9563  17.4738 N.am           1 RES1               0.0000
     11 O11         -9.5822  -8.9793  19.4555 O.2            1 RES1               0.0000
     12 C12        -11.8834  -7.4423  17.1665 C.3            1 RES1               0.0000
     13 C13         -7.0462  -5.6516  20.0349 C.ar           1 RES1               0.0000
     14 C14         -5.9050  -5.8273  17.9501 C.ar           1 RES1               0.0000
     15 C15         -8.8314  -9.9595  16.1475 C.2            1 RES1               0.0000
     16 C16         -5.9295  -5.4092  19.2636 C.ar           1 RES1               0.0000
     17 O17         -8.5984 -10.9930  15.5272 O.2            1 RES1               0.0000
     18 H18        -10.8785  -6.7684  18.9344 H              1 RES1               0.0000
     19 H19        -10.6300  -5.7397  17.5123 H              1 RES1               0.0000
     20 H20         -9.0079  -6.4914  20.1154 H              1 RES1               0.0000
     21 H21         -6.9535  -6.8067  16.3711 H              1 RES1               0.0000
     22 H22         -8.4245  -8.7234  14.5739 H              1 RES1               0.0000
     23 H23         -9.2666 -10.8608  17.9237 H              1 RES1               0.0000
     24 H24        -12.8054  -6.9099  17.3905 H              1 RES1               0.0000
     25 H25        -11.7496  -7.4491  16.0868 H              1 RES1               0.0000
     26 H26        -11.9967  -8.4716  17.5005 H              1 RES1               0.0000
     27 H27         -7.0710  -5.3234  21.0687 H              1 RES1               0.0000
     28 H28         -5.0285  -5.6382  17.3392 H              1 RES1               0.0000
     29 H29         -5.0751  -4.8923  19.6878 H              1 RES1               0.0000
@<TRIPOS>BOND
    1    1    2 1     
    2    1    3 1     
    3    1    4 1     
    4    1    5 1     
    5    2    6 ar    
    6    2    7 ar    
    7    3    8 1     
    8    3    9 2     
    9    4   10 1     
   10    4   11 2     
   11    5   12 1     
   12    5   18 1     
   13    5   19 1     
   14    6   13 ar    
   15    6   20 1     
   16    7   14 ar    
   17    7   21 1     
   18    8   15 1     
   19    8   22 1     
   20   10   15 1     
   21   10   23 1     
   22   12   24 1     
   23   12   25 1     
   24   12   26 1     
   25   13   16 ar    
   26   13   27 1     
   27   14   16 ar    
   28   14   28 1     
   29   15   17 2     
   30   16   29 1     
@<TRIPOS>SUBSTRUCTURE
      1 RES1           1
@<TRIPOS>SET
DONOR_HYDROGENS      STATIC     ATOMS    <user>   **** ""
2 22 23
ATOM$RED        STATIC     ATOMS    COLORGROUP SYSTEM
2 22 23
@<TRIPOS>COMMENT
> <Gold.Version>
2022.3.0

> <Gold.Id.Protein>
unknown|3ovv_clean|pdb

> <Gold.Protein.RotatedTorsions>
[  602  597  595  592 ] final  -47.24 input   59.96 | X-H torsion
[  622  617  616  613 ] final -159.30 input   59.98 | X-H torsion
[ 2560 2551 2550 2548 ] final   35.69 input   59.99 | X-H torsion
[ 2635 2624 2623 2622 ] final  -74.29 input   60.00 | X-H torsion
[ 1835 1828 1827 1825 ] final   47.16 input   60.01 | X-H torsion
[ 5212 5203 5202 5200 ] final   84.00 input   59.98 | X-H torsion

> <Gold.Protein.ActiveResidues>
 THR48   LEU49   GLY50   THR51   GLY52   SER53   PHE54   GLY55   ARG56   VAL57  
 MET58   LEU59   VAL60   HIS68   TYR69   ALA70   MET71   LYS72   ILE73   LEU74  
 ASP75   LYS78   VAL79   LEU82   GLN84   THR88   GLU91   LEU95   VAL104  LYS105 
 LEU106  MET118  VAL119  MET120  GLU121  TYR122  VAL123  PRO124  GLY125  GLY126 
 GLU127  TYR164  ASP166  LYS168  GLU170  ASN171  LEU172  LEU173  ILE174  ASP175 
 GLN181  VAL182  THR183  ASP184  PHE185  GLY186  PHE187  PHE327  TYR330 

> <Gold.Protein.RotatedAtoms>
   -5.8279   -2.8508   13.2814 H   0  0  0  0  0  0  0  0  0  0  0  0  # atno 602  bound_to 597 
   -7.4482    2.5865   21.6909 H   0  0  0  0  0  0  0  0  0  0  0  0  # atno 622  bound_to 617 
   -6.5226  -16.1228    9.5463 H   0  0  0  0  0  0  0  0  0  0  0  0  # atno 1835 bound_to 1828
  -15.7539   -9.0662   22.7724 H   0  0  0  0  0  0  0  0  0  0  0  0  # atno 2560 bound_to 2551
  -14.6073   -0.7882   18.1928 H   0  0  0  0  0  0  0  0  0  0  0  0  # atno 2635 bound_to 2624
  -15.3726   -0.6314   19.6540 H   0  0  0  0  0  0  0  0  0  0  0  0  # atno 2636 bound_to 2624
  -13.9158   -1.4166   19.5611 H   0  0  0  0  0  0  0  0  0  0  0  0  # atno 2637 bound_to 2624
   -8.5511   -5.2622   11.5761 H   0  0  0  0  0  0  0  0  0  0  0  0  # atno 5212 bound_to 5203
   -4.7813   -1.6242   13.0627 LP  0  0  0  0  0  0  0  0  0  0  0  0  # atno 5531 bound_to 597 
   -5.7801   -1.6286   14.3546 LP  0  0  0  0  0  0  0  0  0  0  0  0  # atno 5532 bound_to 597 
   -7.5326    0.9858   21.4102 LP  0  0  0  0  0  0  0  0  0  0  0  0  # atno 5535 bound_to 617 
   -7.1359    2.0098   20.2016 LP  0  0  0  0  0  0  0  0  0  0  0  0  # atno 5536 bound_to 617 
  -15.7440   -7.4398   22.8201 LP  0  0  0  0  0  0  0  0  0  0  0  0  # atno 5569 bound_to 2551
  -16.9527   -8.2299   22.0576 LP  0  0  0  0  0  0  0  0  0  0  0  0  # atno 5570 bound_to 2551
   -8.0314  -16.7218    9.4292 LP  0  0  0  0  0  0  0  0  0  0  0  0  # atno 5599 bound_to 1828
   -6.7601  -17.5926    8.8887 LP  0  0  0  0  0  0  0  0  0  0  0  0  # atno 5600 bound_to 1828

> <Gold.Score>
     Fitness  S(hb_ext) S(vdw_ext)  S(hb_int)    S(int)      intcor
     42.39       0.06      31.85       0.00      -1.46      -0.76

> <Gold.Goldscore.Fitness>
42.3872

> <Gold.Goldscore.Internal.Vdw>
-1.8107

> <Gold.Goldscore.Internal.Torsion>
-0.4123

> <Gold.Goldscore.External.Vdw>
31.8497

> <Gold.Goldscore.Internal.HBond>
0.0000

> <Gold.Goldscore.External.HBond>
0.0583

> <Gold.Goldscore.Internal.Correction>
-0.7585

> <Gold.Goldscore.Hbonds>
donor molecule, donor type, donor heavy atom, donor atom, acceptor molecule, acceptor atom, score
      L1  H     8    22       P1   568  0.03

> <Gold.Goldscore.Internal.Vdw.Weighted>
-1.8107

> <Gold.Goldscore.Internal.Torsion.Weighted>
-0.4123

> <Gold.Goldscore.External.Vdw.Weighted>
43.7933

> <Gold.Goldscore.Internal.HBond.Weighted>
0.0000

> <Gold.Goldscore.External.HBond.Weighted>
0.0583

> <Gold.Goldscore.Internal.Correction.Weighted>
-0.7585

> <Gold.Rescore>
     Score     S(PLP)   S(hbond)     S(cho)   S(metal)  DE(clash)   DE(tors)     intcor
     39.13     -40.80       0.00       0.00       0.00       0.02       0.83       ----

> <Gold.PLP.Fitness>
39.1258

> <Gold.PLP.PLP>
-40.8032

> <Gold.PLP.part.hbond>
0.0000

> <Gold.PLP.part.metal>
0.0000

> <Gold.PLP.part.buried>
-7.1065

> <Gold.PLP.part.nonpolar>
-34.9201

> <Gold.PLP.part.repulsive>
0.2697

> <Gold.PLP.ligand.clash>
0.0238

> <Gold.PLP.ligand.torsion>
0.8268

> <Gold.PLP.Chemscore.Hbond>
0.0000

> <Gold.PLP.Chemscore.CHOScore>
0.0000

> <Gold.PLP.Chemscore.Metal>
0.0000

> <Gold.PLP.Chemscore.Internal.Correction>
   9.000000E+99

#       Name:                CT1002167954
#       Creating user name   hitesit
#       Creation time:       Sun Apr 16 22:50:22 2023


#       File generated by GOLD software.
#

@<TRIPOS>MOLECULE
CT1002167954|ligand_prepared|mol2|1|dock10
    29    30     1
SMALL
NO_CHARGES


@<TRIPOS>ATOM
      1 C1          -9.3767  -6.9688  17.2344 C.3            1 RES1               0.0000
      2 C2          -8.2273  -6.3795  18.0773 C.ar           1 RES1               0.0000
      3 C3         -10.5056  -7.2852  18.2110 C.2            1 RES1               0.0000
      4 C4          -9.7308  -5.9097  16.1963 C.2            1 RES1               0.0000
      5 C5          -8.9989  -8.2666  16.4832 C.3            1 RES1               0.0000
      6 C6          -6.9587  -6.2154  17.5292 C.ar           1 RES1               0.0000
      7 C7          -8.4206  -5.9937  19.4011 C.ar           1 RES1               0.0000
      8 N8         -11.5949  -6.4647  18.2049 N.am           1 RES1               0.0000
      9 O9         -10.4239  -8.2170  19.0018 O.2            1 RES1               0.0000
     10 N10        -10.9681  -5.3256  16.2712 N.am           1 RES1               0.0000
     11 O11         -8.9433  -5.5639  15.3242 O.2            1 RES1               0.0000
     12 C12        -10.1740  -8.9384  15.7905 C.3            1 RES1               0.0000
     13 C13         -5.9216  -5.6821  18.2764 C.ar           1 RES1               0.0000
     14 C14         -7.3820  -5.4608  20.1466 C.ar           1 RES1               0.0000
     15 C15        -11.9046  -5.5330  17.2469 C.2            1 RES1               0.0000
     16 C16         -6.1326  -5.3041  19.5853 C.ar           1 RES1               0.0000
     17 O17        -12.9731  -4.9291  17.2767 O.2            1 RES1               0.0000
     18 H18         -8.2346  -8.0304  15.7326 H              1 RES1               0.0000
     19 H19         -8.5596  -8.9733  17.1981 H              1 RES1               0.0000
     20 H20         -6.7731  -6.5094  16.5015 H              1 RES1               0.0000
     21 H21         -9.3949  -6.1088  19.8637 H              1 RES1               0.0000
     22 H22        -12.2387  -6.5519  18.9848 H              1 RES1               0.0000
     23 H23        -11.2138  -4.6760  15.5309 H              1 RES1               0.0000
     24 H24         -9.8541  -9.8437  15.2789 H              1 RES1               0.0000
     25 H25        -10.9427  -9.2099  16.5110 H              1 RES1               0.0000
     26 H26        -10.6196  -8.2726  15.0542 H              1 RES1               0.0000
     27 H27         -4.9398  -5.5621  17.8305 H              1 RES1               0.0000
     28 H28         -7.5525  -5.1652  21.1766 H              1 RES1               0.0000
     29 H29         -5.3201  -4.8860  20.1703 H              1 RES1               0.0000
@<TRIPOS>BOND
    1    1    2 1     
    2    1    3 1     
    3    1    4 1     
    4    1    5 1     
    5    2    6 ar    
    6    2    7 ar    
    7    3    8 1     
    8    3    9 2     
    9    4   10 1     
   10    4   11 2     
   11    5   12 1     
   12    5   18 1     
   13    5   19 1     
   14    6   13 ar    
   15    6   20 1     
   16    7   14 ar    
   17    7   21 1     
   18    8   15 1     
   19    8   22 1     
   20   10   15 1     
   21   10   23 1     
   22   12   24 1     
   23   12   25 1     
   24   12   26 1     
   25   13   16 ar    
   26   13   27 1     
   27   14   16 ar    
   28   14   28 1     
   29   15   17 2     
   30   16   29 1     
@<TRIPOS>SUBSTRUCTURE
      1 RES1           1
@<TRIPOS>SET
DONOR_HYDROGENS      STATIC     ATOMS    <user>   **** ""
2 22 23
ATOM$RED        STATIC     ATOMS    COLORGROUP SYSTEM
2 22 23
@<TRIPOS>COMMENT
> <Gold.Version>
2022.3.0

> <Gold.Id.Protein>
unknown|3ovv_clean|pdb

> <Gold.Protein.RotatedTorsions>
[  602  597  595  592 ] final  -25.84 input   59.96 | X-H torsion
[  622  617  616  613 ] final   64.64 input   59.98 | X-H torsion
[ 2560 2551 2550 2548 ] final  115.50 input   59.99 | X-H torsion
[ 2635 2624 2623 2622 ] final -157.28 input   60.00 | X-H torsion
[ 1835 1828 1827 1825 ] final  -89.27 input   60.01 | X-H torsion
[ 5212 5203 5202 5200 ] final   83.55 input   59.98 | X-H torsion

> <Gold.Protein.ActiveResidues>
 THR48   LEU49   GLY50   THR51   GLY52   SER53   PHE54   GLY55   ARG56   VAL57  
 MET58   LEU59   VAL60   HIS68   TYR69   ALA70   MET71   LYS72   ILE73   LEU74  
 ASP75   LYS78   VAL79   LEU82   GLN84   THR88   GLU91   LEU95   VAL104  LYS105 
 LEU106  MET118  VAL119  MET120  GLU121  TYR122  VAL123  PRO124  GLY125  GLY126 
 GLU127  TYR164  ASP166  LYS168  GLU170  ASN171  LEU172  LEU173  ILE174  ASP175 
 GLN181  VAL182  THR183  ASP184  PHE185  GLY186  PHE187  PHE327  TYR330 

> <Gold.Protein.RotatedAtoms>
   -6.0117   -2.7957   13.5713 H   0  0  0  0  0  0  0  0  0  0  0  0  # atno 602  bound_to 597 
   -7.4730    0.9334   21.1599 H   0  0  0  0  0  0  0  0  0  0  0  0  # atno 622  bound_to 617 
   -8.0266  -16.9662    9.3177 H   0  0  0  0  0  0  0  0  0  0  0  0  # atno 1835 bound_to 1828
  -16.7617   -8.8379   22.1606 H   0  0  0  0  0  0  0  0  0  0  0  0  # atno 2560 bound_to 2551
  -13.7945   -1.3759   18.9676 H   0  0  0  0  0  0  0  0  0  0  0  0  # atno 2635 bound_to 2624
  -15.1184   -0.5468   18.4149 H   0  0  0  0  0  0  0  0  0  0  0  0  # atno 2636 bound_to 2624
  -14.9828   -0.9135   20.0256 H   0  0  0  0  0  0  0  0  0  0  0  0  # atno 2637 bound_to 2624
   -8.5518   -5.2689   11.5734 H   0  0  0  0  0  0  0  0  0  0  0  0  # atno 5212 bound_to 5203
   -4.8393   -1.9111   12.8706 LP  0  0  0  0  0  0  0  0  0  0  0  0  # atno 5531 bound_to 597 
   -5.5369   -1.3973   14.2547 LP  0  0  0  0  0  0  0  0  0  0  0  0  # atno 5532 bound_to 597 
   -7.1322    2.2606   20.2822 LP  0  0  0  0  0  0  0  0  0  0  0  0  # atno 5535 bound_to 617 
   -7.5114    2.3998   21.8644 LP  0  0  0  0  0  0  0  0  0  0  0  0  # atno 5536 bound_to 617 
  -15.3937   -8.5830   23.0039 LP  0  0  0  0  0  0  0  0  0  0  0  0  # atno 5569 bound_to 2551
  -16.2876   -7.3167   22.4900 LP  0  0  0  0  0  0  0  0  0  0  0  0  # atno 5570 bound_to 2551
   -6.5270  -17.4619    8.9241 LP  0  0  0  0  0  0  0  0  0  0  0  0  # atno 5599 bound_to 1828
   -6.7504  -16.0034    9.6238 LP  0  0  0  0  0  0  0  0  0  0  0  0  # atno 5600 bound_to 1828

> <Gold.Score>
     Fitness  S(hb_ext) S(vdw_ext)  S(hb_int)    S(int)      intcor
     39.04       0.09      29.37       0.00      -1.43      -0.76

> <Gold.Goldscore.Fitness>
39.0435

> <Gold.Goldscore.Internal.Vdw>
-1.7371

> <Gold.Goldscore.Internal.Torsion>
-0.4499

> <Gold.Goldscore.External.Vdw>
29.3661

> <Gold.Goldscore.Internal.HBond>
0.0000

> <Gold.Goldscore.External.HBond>
0.0936

> <Gold.Goldscore.Internal.Correction>
-0.7585

> <Gold.Goldscore.Hbonds>
donor molecule, donor type, donor heavy atom, donor atom, acceptor molecule, acceptor atom, score
      L1  H     8    22       P1  2674  0.05

> <Gold.Goldscore.Internal.Vdw.Weighted>
-1.7371

> <Gold.Goldscore.Internal.Torsion.Weighted>
-0.4499

> <Gold.Goldscore.External.Vdw.Weighted>
40.3784

> <Gold.Goldscore.Internal.HBond.Weighted>
0.0000

> <Gold.Goldscore.External.HBond.Weighted>
0.0936

> <Gold.Goldscore.Internal.Correction.Weighted>
-0.7585

> <Gold.Rescore>
     Score     S(PLP)   S(hbond)     S(cho)   S(metal)  DE(clash)   DE(tors)     intcor
     33.51     -33.24       0.59       0.00       0.00       1.30       0.10       ----

> <Gold.PLP.Fitness>
33.5117

> <Gold.PLP.PLP>
-33.2358

> <Gold.PLP.part.hbond>
-1.6130

> <Gold.PLP.part.metal>
0.0000

> <Gold.PLP.part.buried>
-1.4889

> <Gold.PLP.part.nonpolar>
-32.7268

> <Gold.PLP.part.repulsive>
1.3503

> <Gold.PLP.ligand.clash>
1.2979

> <Gold.PLP.ligand.torsion>
0.1011

> <Gold.PLP.Chemscore.Hbond>
0.5920

> <Gold.PLP.Chemscore.CHOScore>
0.0000

> <Gold.PLP.Chemscore.Metal>
0.0000

> <Gold.Chemscore.Hbonds>
donor molecule, donor type, donor heavy atom, donor atom, acceptor molecule, acceptor atom, score
      L1  H     8    22       P1  2674  0.51

> <Gold.PLP.Chemscore.Internal.Correction>
   9.000000E+99

#       Name:                CT1002167954
#       Creating user name   hitesit
#       Creation time:       Sun Apr 16 22:50:21 2023


#       File generated by GOLD software.
#

@<TRIPOS>MOLECULE
CT1002167954|ligand_prepared|mol2|1|dock9
    29    30     1
SMALL
NO_CHARGES


@<TRIPOS>ATOM
      1 C1          -9.6100  -6.9334  17.1107 C.3            1 RES1               0.0000
      2 C2          -8.3695  -6.4036  17.8585 C.ar           1 RES1               0.0000
      3 C3         -10.6900  -7.1443  18.1678 C.2            1 RES1               0.0000
      4 C4          -9.9600  -5.8802  16.0653 C.2            1 RES1               0.0000
      5 C5          -9.3721  -8.2740  16.3773 C.3            1 RES1               0.0000
      6 C6          -7.1223  -6.3899  17.2414 C.ar           1 RES1               0.0000
      7 C7          -8.4571  -5.9238  19.1626 C.ar           1 RES1               0.0000
      8 N8         -11.7191  -6.2503  18.2068 N.am           1 RES1               0.0000
      9 O9         -10.6191  -8.0582  18.9803 O.2            1 RES1               0.0000
     10 N10        -11.1470  -5.2094  16.2020 N.am           1 RES1               0.0000
     11 O11         -9.2109  -5.6135  15.1336 O.2            1 RES1               0.0000
     12 C12        -10.6450  -8.9212  15.8546 C.3            1 RES1               0.0000
     13 C13         -6.0036  -5.9110  17.9028 C.ar           1 RES1               0.0000
     14 C14         -7.3370  -5.4456  19.8224 C.ar           1 RES1               0.0000
     15 C15        -12.0282  -5.3250  17.2424 C.2            1 RES1               0.0000
     16 C16         -6.1102  -5.4382  19.1934 C.ar           1 RES1               0.0000
     17 O17        -13.0488  -4.6475  17.3226 O.2            1 RES1               0.0000
     18 H18         -8.6928  -8.0994  15.5339 H              1 RES1               0.0000
     19 H19         -8.8790  -8.9708  17.0663 H              1 RES1               0.0000
     20 H20         -7.0185  -6.7602  16.2269 H              1 RES1               0.0000
     21 H21         -9.4117  -5.9210  19.6776 H              1 RES1               0.0000
     22 H22        -12.3138  -6.2716  19.0291 H              1 RES1               0.0000
     23 H23        -11.3970  -4.5642  15.4594 H              1 RES1               0.0000
     24 H24        -10.4216  -9.8583  15.3489 H              1 RES1               0.0000
     25 H25        -11.3335  -9.1321  16.6703 H              1 RES1               0.0000
     26 H26        -11.1484  -8.2658  15.1469 H              1 RES1               0.0000
     27 H27         -5.0401  -5.9086  17.4038 H              1 RES1               0.0000
     28 H28         -7.4254  -5.0750  20.8383 H              1 RES1               0.0000
     29 H29         -5.2337  -5.0627  19.7112 H              1 RES1               0.0000
@<TRIPOS>BOND
    1    1    2 1     
    2    1    3 1     
    3    1    4 1     
    4    1    5 1     
    5    2    6 ar    
    6    2    7 ar    
    7    3    8 1     
    8    3    9 2     
    9    4   10 1     
   10    4   11 2     
   11    5   12 1     
   12    5   18 1     
   13    5   19 1     
   14    6   13 ar    
   15    6   20 1     
   16    7   14 ar    
   17    7   21 1     
   18    8   15 1     
   19    8   22 1     
   20   10   15 1     
   21   10   23 1     
   22   12   24 1     
   23   12   25 1     
   24   12   26 1     
   25   13   16 ar    
   26   13   27 1     
   27   14   16 ar    
   28   14   28 1     
   29   15   17 2     
   30   16   29 1     
@<TRIPOS>SUBSTRUCTURE
      1 RES1           1
@<TRIPOS>SET
DONOR_HYDROGENS      STATIC     ATOMS    <user>   **** ""
2 22 23
ATOM$RED        STATIC     ATOMS    COLORGROUP SYSTEM
2 22 23
@<TRIPOS>COMMENT
> <Gold.Version>
2022.3.0

> <Gold.Id.Protein>
unknown|3ovv_clean|pdb

> <Gold.Protein.RotatedTorsions>
[  602  597  595  592 ] final  -76.01 input   59.96 | X-H torsion
[  622  617  616  613 ] final -124.99 input   59.98 | X-H torsion
[ 2560 2551 2550 2548 ] final   28.88 input   59.99 | X-H torsion
[ 2635 2624 2623 2622 ] final -131.26 input   60.00 | X-H torsion
[ 1835 1828 1827 1825 ] final  110.24 input   60.01 | X-H torsion
[ 5212 5203 5202 5200 ] final  160.56 input   59.98 | X-H torsion

> <Gold.Protein.ActiveResidues>
 THR48   LEU49   GLY50   THR51   GLY52   SER53   PHE54   GLY55   ARG56   VAL57  
 MET58   LEU59   VAL60   HIS68   TYR69   ALA70   MET71   LYS72   ILE73   LEU74  
 ASP75   LYS78   VAL79   LEU82   GLN84   THR88   GLU91   LEU95   VAL104  LYS105 
 LEU106  MET118  VAL119  MET120  GLU121  TYR122  VAL123  PRO124  GLY125  GLY126 
 GLU127  TYR164  ASP166  LYS168  GLU170  ASN171  LEU172  LEU173  ILE174  ASP175 
 GLN181  VAL182  THR183  ASP184  PHE185  GLY186  PHE187  PHE327  TYR330 

> <Gold.Protein.RotatedAtoms>
   -5.5073   -2.7492   12.9602 H   0  0  0  0  0  0  0  0  0  0  0  0  # atno 602  bound_to 597 
   -7.3066    2.7914   21.1980 H   0  0  0  0  0  0  0  0  0  0  0  0  # atno 622  bound_to 617 
   -6.1902  -16.9450    9.1296 H   0  0  0  0  0  0  0  0  0  0  0  0  # atno 1835 bound_to 1828
  -15.6745   -9.0067   22.8226 H   0  0  0  0  0  0  0  0  0  0  0  0  # atno 2560 bound_to 2551
  -13.9137   -1.2395   18.5769 H   0  0  0  0  0  0  0  0  0  0  0  0  # atno 2635 bound_to 2624
  -15.3702   -0.4700   18.7558 H   0  0  0  0  0  0  0  0  0  0  0  0  # atno 2636 bound_to 2624
  -14.6118   -1.1267   20.0753 H   0  0  0  0  0  0  0  0  0  0  0  0  # atno 2637 bound_to 2624
   -8.6283   -4.1486   11.2608 H   0  0  0  0  0  0  0  0  0  0  0  0  # atno 5212 bound_to 5203
   -4.8512   -1.3341   13.4238 LP  0  0  0  0  0  0  0  0  0  0  0  0  # atno 5531 bound_to 597 
   -6.0331   -2.0211   14.3171 LP  0  0  0  0  0  0  0  0  0  0  0  0  # atno 5532 bound_to 597 
   -7.6074    1.3277   21.8424 LP  0  0  0  0  0  0  0  0  0  0  0  0  # atno 5535 bound_to 617 
   -7.2037    1.4616   20.2658 LP  0  0  0  0  0  0  0  0  0  0  0  0  # atno 5536 bound_to 617 
  -15.8292   -7.3879   22.7692 LP  0  0  0  0  0  0  0  0  0  0  0  0  # atno 5569 bound_to 2551
  -16.9474   -8.3418   22.0577 LP  0  0  0  0  0  0  0  0  0  0  0  0  # atno 5570 bound_to 2551
   -7.3995  -16.0109    9.6903 LP  0  0  0  0  0  0  0  0  0  0  0  0  # atno 5599 bound_to 1828
   -7.7266  -17.4758    9.0470 LP  0  0  0  0  0  0  0  0  0  0  0  0  # atno 5600 bound_to 1828

> <Gold.Score>
     Fitness  S(hb_ext) S(vdw_ext)  S(hb_int)    S(int)      intcor
     38.98       0.03      29.29       0.00      -1.33      -0.76

> <Gold.Goldscore.Fitness>
38.9785

> <Gold.Goldscore.Internal.Vdw>
-1.5473

> <Gold.Goldscore.Internal.Torsion>
-0.5443

> <Gold.Goldscore.External.Vdw>
29.2920

> <Gold.Goldscore.Internal.HBond>
0.0000

> <Gold.Goldscore.External.HBond>
0.0350

> <Gold.Goldscore.Internal.Correction>
-0.7585

> <Gold.Goldscore.Hbonds>
donor molecule, donor type, donor heavy atom, donor atom, acceptor molecule, acceptor atom, score
      L1  H     8    22       P1  2674  0.02

> <Gold.Goldscore.Internal.Vdw.Weighted>
-1.5473

> <Gold.Goldscore.Internal.Torsion.Weighted>
-0.5443

> <Gold.Goldscore.External.Vdw.Weighted>
40.2766

> <Gold.Goldscore.Internal.HBond.Weighted>
0.0000

> <Gold.Goldscore.External.HBond.Weighted>
0.0350

> <Gold.Goldscore.Internal.Correction.Weighted>
-0.7585

> <Gold.Rescore>
     Score     S(PLP)   S(hbond)     S(cho)   S(metal)  DE(clash)   DE(tors)     intcor
     33.47     -33.00       0.83       0.00       0.00       1.26       0.38       ----

> <Gold.PLP.Fitness>
33.4709

> <Gold.PLP.PLP>
-32.9950

> <Gold.PLP.part.hbond>
-1.7048

> <Gold.PLP.part.metal>
0.0000

> <Gold.PLP.part.buried>
-0.6206

> <Gold.PLP.part.nonpolar>
-32.3379

> <Gold.PLP.part.repulsive>
1.2576

> <Gold.PLP.ligand.clash>
1.2613

> <Gold.PLP.ligand.torsion>
0.3794

> <Gold.PLP.Chemscore.Hbond>
0.8320

> <Gold.PLP.Chemscore.CHOScore>
0.0000

> <Gold.PLP.Chemscore.Metal>
0.0000

> <Gold.Chemscore.Hbonds>
donor molecule, donor type, donor heavy atom, donor atom, acceptor molecule, acceptor atom, score
      L1  H     8    22       P1  2674  0.48

> <Gold.PLP.Chemscore.Internal.Correction>
   9.000000E+99

