#       Name:                CT1002167954
#       Creating user name   hitesit
#       Creation time:       Sun Apr 16 22:50:18 2023


#       File generated by GOLD software.
#

@<TRIPOS>MOLECULE
CT1002167954|ligand_prepared|mol2|1|dock7
    29    30     1
SMALL
NO_CHARGES


@<TRIPOS>ATOM
      1 C1          -9.3369  -8.8815  16.8429 C.3            1 RES1               0.0000
      2 C2          -8.9481 -10.3739  16.8533 C.ar           1 RES1               0.0000
      3 C3          -9.4050  -8.4463  18.3038 C.2            1 RES1               0.0000
      4 C4          -8.2630  -8.1666  16.0302 C.2            1 RES1               0.0000
      5 C5         -10.7054  -8.5968  16.1812 C.3            1 RES1               0.0000
      6 C6          -8.6355 -11.0164  18.0475 C.ar           1 RES1               0.0000
      7 C7          -8.9004 -11.1208  15.6791 C.ar           1 RES1               0.0000
      8 N8          -8.3950  -7.6615  18.7770 N.am           1 RES1               0.0000
      9 O9         -10.3104  -8.8186  19.0399 O.2            1 RES1               0.0000
     10 N10         -7.4547  -7.2716  16.6809 N.am           1 RES1               0.0000
     11 O11         -8.0987  -8.3826  14.8358 O.2            1 RES1               0.0000
     12 C12        -11.0968  -7.1275  16.1898 C.3            1 RES1               0.0000
     13 C13         -8.2905 -12.3577  18.0677 C.ar           1 RES1               0.0000
     14 C14         -8.5550 -12.4619  15.7015 C.ar           1 RES1               0.0000
     15 C15         -7.4520  -7.0094  18.0238 C.2            1 RES1               0.0000
     16 C16         -8.2505 -13.0814  16.8950 C.ar           1 RES1               0.0000
     17 O17         -6.6575  -6.2312  18.5438 O.2            1 RES1               0.0000
     18 H18        -10.6753  -8.9482  15.1425 H              1 RES1               0.0000
     19 H19        -11.4781  -9.1711  16.7072 H              1 RES1               0.0000
     20 H20         -8.6592 -10.4626  18.9801 H              1 RES1               0.0000
     21 H21         -9.1350 -10.6540  14.7285 H              1 RES1               0.0000
     22 H22         -8.3353  -7.5491  19.7840 H              1 RES1               0.0000
     23 H23         -6.7940  -6.7526  16.1114 H              1 RES1               0.0000
     24 H24        -12.0645  -6.9834  15.7138 H              1 RES1               0.0000
     25 H25        -11.1609  -6.7513  17.2087 H              1 RES1               0.0000
     26 H26        -10.3628  -6.5298  15.6533 H              1 RES1               0.0000
     27 H27         -8.0504 -12.8402  19.0094 H              1 RES1               0.0000
     28 H28         -8.5242 -13.0274  14.7761 H              1 RES1               0.0000
     29 H29         -7.9806 -14.1321  16.9111 H              1 RES1               0.0000
@<TRIPOS>BOND
    1    1    2 1     
    2    1    3 1     
    3    1    4 1     
    4    1    5 1     
    5    2    6 ar    
    6    2    7 ar    
    7    3    8 1     
    8    3    9 2     
    9    4   10 1     
   10    4   11 2     
   11    5   12 1     
   12    5   18 1     
   13    5   19 1     
   14    6   13 ar    
   15    6   20 1     
   16    7   14 ar    
   17    7   21 1     
   18    8   15 1     
   19    8   22 1     
   20   10   15 1     
   21   10   23 1     
   22   12   24 1     
   23   12   25 1     
   24   12   26 1     
   25   13   16 ar    
   26   13   27 1     
   27   14   16 ar    
   28   14   28 1     
   29   15   17 2     
   30   16   29 1     
@<TRIPOS>SUBSTRUCTURE
      1 RES1           1
@<TRIPOS>SET
DONOR_HYDROGENS      STATIC     ATOMS    <user>   **** ""
2 22 23
ATOM$RED        STATIC     ATOMS    COLORGROUP SYSTEM
2 22 23
@<TRIPOS>COMMENT
> <Gold.Version>
2022.3.0

> <Gold.Id.Protein>
unknown|3ovv_clean|pdb

> <Gold.Protein.RotatedTorsions>
[  602  597  595  592 ] final  157.14 input   59.96 | X-H torsion
[  622  617  616  613 ] final   16.18 input   59.98 | X-H torsion
[ 2560 2551 2550 2548 ] final  -26.25 input   59.99 | X-H torsion
[ 2635 2624 2623 2622 ] final   27.87 input   60.00 | X-H torsion
[ 1835 1828 1827 1825 ] final   77.31 input   60.01 | X-H torsion
[ 5212 5203 5202 5200 ] final   81.96 input   59.98 | X-H torsion

> <Gold.Protein.ActiveResidues>
 THR48   LEU49   GLY50   THR51   GLY52   SER53   PHE54   GLY55   ARG56   VAL57  
 MET58   LEU59   VAL60   HIS68   TYR69   ALA70   MET71   LYS72   ILE73   LEU74  
 ASP75   LYS78   VAL79   LEU82   GLN84   THR88   GLU91   LEU95   VAL104  LYS105 
 LEU106  MET118  VAL119  MET120  GLU121  TYR122  VAL123  PRO124  GLY125  GLY126 
 GLU127  TYR164  ASP166  LYS168  GLU170  ASN171  LEU172  LEU173  ILE174  ASP175 
 GLN181  VAL182  THR183  ASP184  PHE185  GLY186  PHE187  PHE327  TYR330 

> <Gold.Protein.RotatedAtoms>
   -4.8943   -1.2951   13.5200 H   0  0  0  0  0  0  0  0  0  0  0  0  # atno 602  bound_to 597 
   -7.2759    1.1866   20.4617 H   0  0  0  0  0  0  0  0  0  0  0  0  # atno 622  bound_to 617 
   -6.2349  -16.4667    9.3560 H   0  0  0  0  0  0  0  0  0  0  0  0  # atno 1835 bound_to 1828
  -15.3523   -8.2329   23.0412 H   0  0  0  0  0  0  0  0  0  0  0  0  # atno 2560 bound_to 2551
  -15.4591   -0.5357   19.3871 H   0  0  0  0  0  0  0  0  0  0  0  0  # atno 2635 bound_to 2624
  -14.0857   -1.3659   19.7995 H   0  0  0  0  0  0  0  0  0  0  0  0  # atno 2636 bound_to 2624
  -14.3512   -0.9344   18.2213 H   0  0  0  0  0  0  0  0  0  0  0  0  # atno 2637 bound_to 2624
   -8.5544   -5.2928   11.5634 H   0  0  0  0  0  0  0  0  0  0  0  0  # atno 5212 bound_to 5203
   -6.0743   -2.1190   14.2794 LP  0  0  0  0  0  0  0  0  0  0  0  0  # atno 5531 bound_to 597 
   -5.4274   -2.7009   12.8976 LP  0  0  0  0  0  0  0  0  0  0  0  0  # atno 5532 bound_to 597 
   -7.2286    2.7629   20.8629 LP  0  0  0  0  0  0  0  0  0  0  0  0  # atno 5535 bound_to 617 
   -7.6134    1.6426   21.9869 LP  0  0  0  0  0  0  0  0  0  0  0  0  # atno 5536 bound_to 617 
  -16.5712   -7.4385   22.3128 LP  0  0  0  0  0  0  0  0  0  0  0  0  # atno 5569 bound_to 2551
  -16.5300   -9.0708   22.2940 LP  0  0  0  0  0  0  0  0  0  0  0  0  # atno 5570 bound_to 2551
   -7.8360  -16.3061    9.6007 LP  0  0  0  0  0  0  0  0  0  0  0  0  # atno 5599 bound_to 1828
   -7.2450  -17.6621    8.9088 LP  0  0  0  0  0  0  0  0  0  0  0  0  # atno 5600 bound_to 1828

> <Gold.Score>
     Fitness  S(hb_ext) S(vdw_ext)  S(hb_int)    S(int)      intcor
     47.48       0.00      36.62       0.00      -2.88      -0.76

> <Gold.Goldscore.Fitness>
47.4787

> <Gold.Goldscore.Internal.Vdw>
-3.2664

> <Gold.Goldscore.Internal.Torsion>
-0.3684

> <Gold.Goldscore.External.Vdw>
36.6219

> <Gold.Goldscore.Internal.HBond>
0.0000

> <Gold.Goldscore.External.HBond>
0.0000

> <Gold.Goldscore.Internal.Correction>
-0.7585

> <Gold.Goldscore.Internal.Vdw.Weighted>
-3.2664

> <Gold.Goldscore.Internal.Torsion.Weighted>
-0.3684

> <Gold.Goldscore.External.Vdw.Weighted>
50.3550

> <Gold.Goldscore.Internal.HBond.Weighted>
0.0000

> <Gold.Goldscore.External.HBond.Weighted>
0.0000

> <Gold.Goldscore.Internal.Correction.Weighted>
-0.7585

> <Gold.Rescore>
     Score     S(PLP)   S(hbond)     S(cho)   S(metal)  DE(clash)   DE(tors)     intcor
     47.88     -50.50       0.00       0.00       0.00       0.17       1.22       ----

> <Gold.PLP.Fitness>
47.8794

> <Gold.PLP.PLP>
-50.4960

> <Gold.PLP.part.hbond>
-1.4931

> <Gold.PLP.part.metal>
0.0000

> <Gold.PLP.part.buried>
1.2107

> <Gold.PLP.part.nonpolar>
-52.3580

> <Gold.PLP.part.repulsive>
0.3862

> <Gold.PLP.ligand.clash>
0.1735

> <Gold.PLP.ligand.torsion>
1.2215

> <Gold.PLP.Chemscore.Hbond>
0.0000

> <Gold.PLP.Chemscore.CHOScore>
0.0000

> <Gold.PLP.Chemscore.Metal>
0.0000

> <Gold.PLP.Chemscore.Internal.Correction>
   9.000000E+99

