#       Name:                CT1002167954
#       Creating user name   hitesit
#       Creation time:       Sun Apr 16 22:50:13 2023


#       File generated by GOLD software.
#

@<TRIPOS>MOLECULE
CT1002167954|ligand_prepared|mol2|1|dock2
    29    30     1
SMALL
NO_CHARGES


@<TRIPOS>ATOM
      1 C1          -8.8035  -7.1037  18.0305 C.3            1 RES1               0.0000
      2 C2          -8.9232  -8.6400  18.0967 C.ar           1 RES1               0.0000
      3 C3          -8.6891  -6.6203  19.4733 C.2            1 RES1               0.0000
      4 C4          -7.5759  -6.8078  17.1761 C.2            1 RES1               0.0000
      5 C5         -10.0203  -6.4099  17.3751 C.3            1 RES1               0.0000
      6 C6          -9.2375  -9.3759  16.9581 C.ar           1 RES1               0.0000
      7 C7          -8.7199  -9.3342  19.2863 C.ar           1 RES1               0.0000
      8 N8          -7.4667  -6.1935  19.9015 N.am           1 RES1               0.0000
      9 O9          -9.6477  -6.6504  20.2352 O.2            1 RES1               0.0000
     10 N10         -6.5037  -6.2048  17.7797 N.am           1 RES1               0.0000
     11 O11         -7.5211  -7.1066  15.9895 O.2            1 RES1               0.0000
     12 C12        -11.3606  -6.9735  17.8200 C.3            1 RES1               0.0000
     13 C13         -9.3418 -10.7562  17.0064 C.ar           1 RES1               0.0000
     14 C14         -8.8249 -10.7146  19.3324 C.ar           1 RES1               0.0000
     15 C15         -6.3817  -5.9121  19.1107 C.2            1 RES1               0.0000
     16 C16         -9.1352 -11.4264  18.1932 C.ar           1 RES1               0.0000
     17 O17         -5.3639  -5.4193  19.5886 O.2            1 RES1               0.0000
     18 H18         -9.9893  -5.3403  17.6166 H              1 RES1               0.0000
     19 H19         -9.9393  -6.5100  16.2856 H              1 RES1               0.0000
     20 H20         -9.4060  -8.8656  16.0157 H              1 RES1               0.0000
     21 H21         -8.4758  -8.7948  20.1952 H              1 RES1               0.0000
     22 H22         -7.3483  -6.0723  20.9023 H              1 RES1               0.0000
     23 H23         -5.7242  -5.9504  17.1813 H              1 RES1               0.0000
     24 H24        -12.1802  -6.4515  17.3305 H              1 RES1               0.0000
     25 H25        -11.4360  -8.0303  17.5725 H              1 RES1               0.0000
     26 H26        -11.4857  -6.8675  18.8956 H              1 RES1               0.0000
     27 H27         -9.5876 -11.3117  16.1073 H              1 RES1               0.0000
     28 H28         -8.6621 -11.2378  20.2688 H              1 RES1               0.0000
     29 H29         -9.2166 -12.5077  18.2307 H              1 RES1               0.0000
@<TRIPOS>BOND
    1    1    2 1     
    2    1    3 1     
    3    1    4 1     
    4    1    5 1     
    5    2    6 ar    
    6    2    7 ar    
    7    3    8 1     
    8    3    9 2     
    9    4   10 1     
   10    4   11 2     
   11    5   12 1     
   12    5   18 1     
   13    5   19 1     
   14    6   13 ar    
   15    6   20 1     
   16    7   14 ar    
   17    7   21 1     
   18    8   15 1     
   19    8   22 1     
   20   10   15 1     
   21   10   23 1     
   22   12   24 1     
   23   12   25 1     
   24   12   26 1     
   25   13   16 ar    
   26   13   27 1     
   27   14   16 ar    
   28   14   28 1     
   29   15   17 2     
   30   16   29 1     
@<TRIPOS>SUBSTRUCTURE
      1 RES1           1
@<TRIPOS>SET
DONOR_HYDROGENS      STATIC     ATOMS    <user>   **** ""
2 22 23
ATOM$RED        STATIC     ATOMS    COLORGROUP SYSTEM
2 22 23
@<TRIPOS>COMMENT
> <Gold.Version>
2022.3.0

> <Gold.Id.Protein>
unknown|3ovv_clean|pdb

> <Gold.Protein.RotatedTorsions>
[  602  597  595  592 ] final  128.43 input   59.96 | X-H torsion
[  622  617  616  613 ] final  -46.63 input   59.98 | X-H torsion
[ 2560 2551 2550 2548 ] final  -24.28 input   59.99 | X-H torsion
[ 2635 2624 2623 2622 ] final -102.19 input   60.00 | X-H torsion
[ 1835 1828 1827 1825 ] final -134.76 input   60.01 | X-H torsion
[ 5212 5203 5202 5200 ] final   65.65 input   59.98 | X-H torsion

> <Gold.Protein.ActiveResidues>
 THR48   LEU49   GLY50   THR51   GLY52   SER53   PHE54   GLY55   ARG56   VAL57  
 MET58   LEU59   VAL60   HIS68   TYR69   ALA70   MET71   LYS72   ILE73   LEU74  
 ASP75   LYS78   VAL79   LEU82   GLN84   THR88   GLU91   LEU95   VAL104  LYS105 
 LEU106  MET118  VAL119  MET120  GLU121  TYR122  VAL123  PRO124  GLY125  GLY126 
 GLU127  TYR164  ASP166  LYS168  GLU170  ASN171  LEU172  LEU173  ILE174  ASP175 
 GLN181  VAL182  THR183  ASP184  PHE185  GLY186  PHE187  PHE327  TYR330 

> <Gold.Protein.RotatedAtoms>
   -5.1424   -1.2261   13.9063 H   0  0  0  0  0  0  0  0  0  0  0  0  # atno 602  bound_to 597 
   -7.1313    2.1249   20.2366 H   0  0  0  0  0  0  0  0  0  0  0  0  # atno 622  bound_to 617 
   -7.6591  -17.5165    9.0232 H   0  0  0  0  0  0  0  0  0  0  0  0  # atno 1835 bound_to 1828
  -15.3519   -8.2650   23.0405 H   0  0  0  0  0  0  0  0  0  0  0  0  # atno 2560 bound_to 2551
  -14.2168   -1.0184   18.2773 H   0  0  0  0  0  0  0  0  0  0  0  0  # atno 2635 bound_to 2624
  -15.4732   -0.4981   19.2241 H   0  0  0  0  0  0  0  0  0  0  0  0  # atno 2636 bound_to 2624
  -14.2057   -1.3196   19.9066 H   0  0  0  0  0  0  0  0  0  0  0  0  # atno 2637 bound_to 2624
   -8.5901   -5.5174   11.4265 H   0  0  0  0  0  0  0  0  0  0  0  0  # atno 5212 bound_to 5203
   -6.1479   -2.5005   14.0193 LP  0  0  0  0  0  0  0  0  0  0  0  0  # atno 5531 bound_to 597 
   -5.1039   -2.3889   12.7686 LP  0  0  0  0  0  0  0  0  0  0  0  0  # atno 5532 bound_to 597 
   -7.4796    2.5104   21.7787 LP  0  0  0  0  0  0  0  0  0  0  0  0  # atno 5535 bound_to 617 
   -7.5081    0.9501   21.2977 LP  0  0  0  0  0  0  0  0  0  0  0  0  # atno 5536 bound_to 617 
  -16.5475   -7.4223   22.3278 LP  0  0  0  0  0  0  0  0  0  0  0  0  # atno 5569 bound_to 2551
  -16.5541   -9.0546   22.2797 LP  0  0  0  0  0  0  0  0  0  0  0  0  # atno 5570 bound_to 2551
   -6.1713  -16.8706    9.1597 LP  0  0  0  0  0  0  0  0  0  0  0  0  # atno 5599 bound_to 1828
   -7.4760  -16.0407    9.6848 LP  0  0  0  0  0  0  0  0  0  0  0  0  # atno 5600 bound_to 1828

> <Gold.Score>
     Fitness  S(hb_ext) S(vdw_ext)  S(hb_int)    S(int)      intcor
     45.41       0.00      35.42       0.00      -3.30      -0.77

> <Gold.Goldscore.Fitness>
45.4085

> <Gold.Goldscore.Internal.Vdw>
-3.2465

> <Gold.Goldscore.Internal.Torsion>
-0.8153

> <Gold.Goldscore.External.Vdw>
35.4219

> <Gold.Goldscore.Internal.HBond>
0.0000

> <Gold.Goldscore.External.HBond>
0.0000

> <Gold.Goldscore.Internal.Correction>
-0.7653

> <Gold.Goldscore.Internal.Vdw.Weighted>
-3.2465

> <Gold.Goldscore.Internal.Torsion.Weighted>
-0.8153

> <Gold.Goldscore.External.Vdw.Weighted>
48.7051

> <Gold.Goldscore.Internal.HBond.Weighted>
0.0000

> <Gold.Goldscore.External.HBond.Weighted>
0.0000

> <Gold.Goldscore.Internal.Correction.Weighted>
-0.7653

> <Gold.Rescore>
     Score     S(PLP)   S(hbond)     S(cho)   S(metal)  DE(clash)   DE(tors)     intcor
     47.82     -46.64       1.00       0.00       0.00       1.36       0.23       ----

> <Gold.PLP.Fitness>
47.8169

> <Gold.PLP.PLP>
-46.6419

> <Gold.PLP.part.hbond>
-2.0000

> <Gold.PLP.part.metal>
0.0000

> <Gold.PLP.part.buried>
-4.7632

> <Gold.PLP.part.nonpolar>
-41.9013

> <Gold.PLP.part.repulsive>
0.7386

> <Gold.PLP.ligand.clash>
1.3578

> <Gold.PLP.ligand.torsion>
0.2336

> <Gold.PLP.Chemscore.Hbond>
1.0000

> <Gold.PLP.Chemscore.CHOScore>
0.0000

> <Gold.PLP.Chemscore.Metal>
0.0000

> <Gold.PLP.Chemscore.Internal.Correction>
   9.000000E+99

