#       Name:                CT1002167954
#       Creating user name   hitesit
#       Creation time:       Sun Apr 16 22:50:16 2023


#       File generated by GOLD software.
#

@<TRIPOS>MOLECULE
CT1002167954|ligand_prepared|mol2|1|dock5
    29    30     1
SMALL
NO_CHARGES


@<TRIPOS>ATOM
      1 C1          -9.3481  -7.4831  17.5801 C.3            1 RES1               0.0000
      2 C2          -8.1305  -6.7434  18.1708 C.ar           1 RES1               0.0000
      3 C3          -9.1258  -7.5378  16.0715 C.2            1 RES1               0.0000
      4 C4          -9.3845  -8.8505  18.2536 C.2            1 RES1               0.0000
      5 C5         -10.6986  -6.7804  17.8524 C.3            1 RES1               0.0000
      6 C6          -8.1369  -6.3118  19.4938 C.ar           1 RES1               0.0000
      7 C7          -6.9946  -6.4880  17.4071 C.ar           1 RES1               0.0000
      8 N8          -8.7692  -8.7370  15.5285 N.am           1 RES1               0.0000
      9 O9          -9.2231  -6.5354  15.3745 O.2            1 RES1               0.0000
     10 N10         -9.1678  -9.9563  17.4738 N.am           1 RES1               0.0000
     11 O11         -9.5822  -8.9793  19.4555 O.2            1 RES1               0.0000
     12 C12        -11.8834  -7.4423  17.1665 C.3            1 RES1               0.0000
     13 C13         -7.0462  -5.6516  20.0349 C.ar           1 RES1               0.0000
     14 C14         -5.9050  -5.8273  17.9501 C.ar           1 RES1               0.0000
     15 C15         -8.8314  -9.9595  16.1475 C.2            1 RES1               0.0000
     16 C16         -5.9295  -5.4092  19.2636 C.ar           1 RES1               0.0000
     17 O17         -8.5984 -10.9930  15.5272 O.2            1 RES1               0.0000
     18 H18        -10.8785  -6.7684  18.9344 H              1 RES1               0.0000
     19 H19        -10.6300  -5.7397  17.5123 H              1 RES1               0.0000
     20 H20         -9.0079  -6.4914  20.1154 H              1 RES1               0.0000
     21 H21         -6.9535  -6.8067  16.3711 H              1 RES1               0.0000
     22 H22         -8.4245  -8.7234  14.5739 H              1 RES1               0.0000
     23 H23         -9.2666 -10.8608  17.9237 H              1 RES1               0.0000
     24 H24        -12.8054  -6.9099  17.3905 H              1 RES1               0.0000
     25 H25        -11.7496  -7.4491  16.0868 H              1 RES1               0.0000
     26 H26        -11.9967  -8.4716  17.5005 H              1 RES1               0.0000
     27 H27         -7.0710  -5.3234  21.0687 H              1 RES1               0.0000
     28 H28         -5.0285  -5.6382  17.3392 H              1 RES1               0.0000
     29 H29         -5.0751  -4.8923  19.6878 H              1 RES1               0.0000
@<TRIPOS>BOND
    1    1    2 1     
    2    1    3 1     
    3    1    4 1     
    4    1    5 1     
    5    2    6 ar    
    6    2    7 ar    
    7    3    8 1     
    8    3    9 2     
    9    4   10 1     
   10    4   11 2     
   11    5   12 1     
   12    5   18 1     
   13    5   19 1     
   14    6   13 ar    
   15    6   20 1     
   16    7   14 ar    
   17    7   21 1     
   18    8   15 1     
   19    8   22 1     
   20   10   15 1     
   21   10   23 1     
   22   12   24 1     
   23   12   25 1     
   24   12   26 1     
   25   13   16 ar    
   26   13   27 1     
   27   14   16 ar    
   28   14   28 1     
   29   15   17 2     
   30   16   29 1     
@<TRIPOS>SUBSTRUCTURE
      1 RES1           1
@<TRIPOS>SET
DONOR_HYDROGENS      STATIC     ATOMS    <user>   **** ""
2 22 23
ATOM$RED        STATIC     ATOMS    COLORGROUP SYSTEM
2 22 23
@<TRIPOS>COMMENT
> <Gold.Version>
2022.3.0

> <Gold.Id.Protein>
unknown|3ovv_clean|pdb

> <Gold.Protein.RotatedTorsions>
[  602  597  595  592 ] final  -47.24 input   59.96 | X-H torsion
[  622  617  616  613 ] final -159.30 input   59.98 | X-H torsion
[ 2560 2551 2550 2548 ] final   35.69 input   59.99 | X-H torsion
[ 2635 2624 2623 2622 ] final  -74.29 input   60.00 | X-H torsion
[ 1835 1828 1827 1825 ] final   47.16 input   60.01 | X-H torsion
[ 5212 5203 5202 5200 ] final   84.00 input   59.98 | X-H torsion

> <Gold.Protein.ActiveResidues>
 THR48   LEU49   GLY50   THR51   GLY52   SER53   PHE54   GLY55   ARG56   VAL57  
 MET58   LEU59   VAL60   HIS68   TYR69   ALA70   MET71   LYS72   ILE73   LEU74  
 ASP75   LYS78   VAL79   LEU82   GLN84   THR88   GLU91   LEU95   VAL104  LYS105 
 LEU106  MET118  VAL119  MET120  GLU121  TYR122  VAL123  PRO124  GLY125  GLY126 
 GLU127  TYR164  ASP166  LYS168  GLU170  ASN171  LEU172  LEU173  ILE174  ASP175 
 GLN181  VAL182  THR183  ASP184  PHE185  GLY186  PHE187  PHE327  TYR330 

> <Gold.Protein.RotatedAtoms>
   -5.8279   -2.8508   13.2814 H   0  0  0  0  0  0  0  0  0  0  0  0  # atno 602  bound_to 597 
   -7.4482    2.5865   21.6909 H   0  0  0  0  0  0  0  0  0  0  0  0  # atno 622  bound_to 617 
   -6.5226  -16.1228    9.5463 H   0  0  0  0  0  0  0  0  0  0  0  0  # atno 1835 bound_to 1828
  -15.7539   -9.0662   22.7724 H   0  0  0  0  0  0  0  0  0  0  0  0  # atno 2560 bound_to 2551
  -14.6073   -0.7882   18.1928 H   0  0  0  0  0  0  0  0  0  0  0  0  # atno 2635 bound_to 2624
  -15.3726   -0.6314   19.6540 H   0  0  0  0  0  0  0  0  0  0  0  0  # atno 2636 bound_to 2624
  -13.9158   -1.4166   19.5611 H   0  0  0  0  0  0  0  0  0  0  0  0  # atno 2637 bound_to 2624
   -8.5511   -5.2622   11.5761 H   0  0  0  0  0  0  0  0  0  0  0  0  # atno 5212 bound_to 5203
   -4.7813   -1.6242   13.0627 LP  0  0  0  0  0  0  0  0  0  0  0  0  # atno 5531 bound_to 597 
   -5.7801   -1.6286   14.3546 LP  0  0  0  0  0  0  0  0  0  0  0  0  # atno 5532 bound_to 597 
   -7.5326    0.9858   21.4102 LP  0  0  0  0  0  0  0  0  0  0  0  0  # atno 5535 bound_to 617 
   -7.1359    2.0098   20.2016 LP  0  0  0  0  0  0  0  0  0  0  0  0  # atno 5536 bound_to 617 
  -15.7440   -7.4398   22.8201 LP  0  0  0  0  0  0  0  0  0  0  0  0  # atno 5569 bound_to 2551
  -16.9527   -8.2299   22.0576 LP  0  0  0  0  0  0  0  0  0  0  0  0  # atno 5570 bound_to 2551
   -8.0314  -16.7218    9.4292 LP  0  0  0  0  0  0  0  0  0  0  0  0  # atno 5599 bound_to 1828
   -6.7601  -17.5926    8.8887 LP  0  0  0  0  0  0  0  0  0  0  0  0  # atno 5600 bound_to 1828

> <Gold.Score>
     Fitness  S(hb_ext) S(vdw_ext)  S(hb_int)    S(int)      intcor
     42.39       0.06      31.85       0.00      -1.46      -0.76

> <Gold.Goldscore.Fitness>
42.3872

> <Gold.Goldscore.Internal.Vdw>
-1.8107

> <Gold.Goldscore.Internal.Torsion>
-0.4123

> <Gold.Goldscore.External.Vdw>
31.8497

> <Gold.Goldscore.Internal.HBond>
0.0000

> <Gold.Goldscore.External.HBond>
0.0583

> <Gold.Goldscore.Internal.Correction>
-0.7585

> <Gold.Goldscore.Hbonds>
donor molecule, donor type, donor heavy atom, donor atom, acceptor molecule, acceptor atom, score
      L1  H     8    22       P1   568  0.03

> <Gold.Goldscore.Internal.Vdw.Weighted>
-1.8107

> <Gold.Goldscore.Internal.Torsion.Weighted>
-0.4123

> <Gold.Goldscore.External.Vdw.Weighted>
43.7933

> <Gold.Goldscore.Internal.HBond.Weighted>
0.0000

> <Gold.Goldscore.External.HBond.Weighted>
0.0583

> <Gold.Goldscore.Internal.Correction.Weighted>
-0.7585

> <Gold.Rescore>
     Score     S(PLP)   S(hbond)     S(cho)   S(metal)  DE(clash)   DE(tors)     intcor
     39.13     -40.80       0.00       0.00       0.00       0.02       0.83       ----

> <Gold.PLP.Fitness>
39.1258

> <Gold.PLP.PLP>
-40.8032

> <Gold.PLP.part.hbond>
0.0000

> <Gold.PLP.part.metal>
0.0000

> <Gold.PLP.part.buried>
-7.1065

> <Gold.PLP.part.nonpolar>
-34.9201

> <Gold.PLP.part.repulsive>
0.2697

> <Gold.PLP.ligand.clash>
0.0238

> <Gold.PLP.ligand.torsion>
0.8268

> <Gold.PLP.Chemscore.Hbond>
0.0000

> <Gold.PLP.Chemscore.CHOScore>
0.0000

> <Gold.PLP.Chemscore.Metal>
0.0000

> <Gold.PLP.Chemscore.Internal.Correction>
   9.000000E+99

