#       Name:                CT1002167954
#       Creating user name   hitesit
#       Creation time:       Sun Apr 16 22:50:14 2023


#       File generated by GOLD software.
#

@<TRIPOS>MOLECULE
CT1002167954|ligand_prepared|mol2|1|dock3
    29    30     1
SMALL
NO_CHARGES


@<TRIPOS>ATOM
      1 C1          -9.4159  -8.2426  17.6668 C.3            1 RES1               0.0000
      2 C2          -9.1307  -9.6669  17.1483 C.ar           1 RES1               0.0000
      3 C3          -8.3755  -7.3343  17.0182 C.2            1 RES1               0.0000
      4 C4         -10.8533  -7.9242  17.2706 C.2            1 RES1               0.0000
      5 C5          -9.3014  -8.1022  19.2026 C.3            1 RES1               0.0000
      6 C6          -8.9654  -9.9057  15.7873 C.ar           1 RES1               0.0000
      7 C7          -9.0278 -10.7497  18.0175 C.ar           1 RES1               0.0000
      8 N8          -8.7937  -6.5098  16.0156 N.am           1 RES1               0.0000
      9 O9          -7.1982  -7.3693  17.3543 O.2            1 RES1               0.0000
     10 N10        -11.0612  -6.9217  16.3597 N.am           1 RES1               0.0000
     11 O11        -11.8068  -8.5435  17.7263 O.2            1 RES1               0.0000
     12 C12         -9.4142  -6.6688  19.6974 C.3            1 RES1               0.0000
     13 C13         -8.7037 -11.1802  15.3126 C.ar           1 RES1               0.0000
     14 C14         -8.7662 -12.0236  17.5406 C.ar           1 RES1               0.0000
     15 C15        -10.0948  -6.2207  15.6912 C.2            1 RES1               0.0000
     16 C16         -8.6035 -12.2398  16.1888 C.ar           1 RES1               0.0000
     17 O17        -10.3601  -5.3712  14.8456 O.2            1 RES1               0.0000
     18 H18        -10.0918  -8.7009  19.6718 H              1 RES1               0.0000
     19 H19         -8.3355  -8.5115  19.5236 H              1 RES1               0.0000
     20 H20         -9.0433  -9.0846  15.0824 H              1 RES1               0.0000
     21 H21         -9.1532 -10.6034  19.0850 H              1 RES1               0.0000
     22 H22         -8.0723  -6.0672  15.4552 H              1 RES1               0.0000
     23 H23        -12.0258  -6.6751  16.1618 H              1 RES1               0.0000
     24 H24         -9.3272  -6.6268  20.7811 H              1 RES1               0.0000
     25 H25         -8.6277  -6.0502  19.2701 H              1 RES1               0.0000
     26 H26        -10.3736  -6.2386  19.4174 H              1 RES1               0.0000
     27 H27         -8.5778 -11.3454  14.2476 H              1 RES1               0.0000
     28 H28         -8.6887 -12.8547  18.2338 H              1 RES1               0.0000
     29 H29         -8.3980 -13.2381  15.8167 H              1 RES1               0.0000
@<TRIPOS>BOND
    1    1    2 1     
    2    1    3 1     
    3    1    4 1     
    4    1    5 1     
    5    2    6 ar    
    6    2    7 ar    
    7    3    8 1     
    8    3    9 2     
    9    4   10 1     
   10    4   11 2     
   11    5   12 1     
   12    5   18 1     
   13    5   19 1     
   14    6   13 ar    
   15    6   20 1     
   16    7   14 ar    
   17    7   21 1     
   18    8   15 1     
   19    8   22 1     
   20   10   15 1     
   21   10   23 1     
   22   12   24 1     
   23   12   25 1     
   24   12   26 1     
   25   13   16 ar    
   26   13   27 1     
   27   14   16 ar    
   28   14   28 1     
   29   15   17 2     
   30   16   29 1     
@<TRIPOS>SUBSTRUCTURE
      1 RES1           1
@<TRIPOS>SET
DONOR_HYDROGENS      STATIC     ATOMS    <user>   **** ""
2 22 23
ATOM$RED        STATIC     ATOMS    COLORGROUP SYSTEM
2 22 23
@<TRIPOS>COMMENT
> <Gold.Version>
2022.3.0

> <Gold.Id.Protein>
unknown|3ovv_clean|pdb

> <Gold.Protein.RotatedTorsions>
[  602  597  595  592 ] final  -27.01 input   59.96 | X-H torsion
[  622  617  616  613 ] final  154.63 input   59.98 | X-H torsion
[ 2560 2551 2550 2548 ] final   73.41 input   59.99 | X-H torsion
[ 2635 2624 2623 2622 ] final  170.15 input   60.00 | X-H torsion
[ 1835 1828 1827 1825 ] final   91.62 input   60.01 | X-H torsion
[ 5212 5203 5202 5200 ] final   69.21 input   59.98 | X-H torsion

> <Gold.Protein.ActiveResidues>
 THR48   LEU49   GLY50   THR51   GLY52   SER53   PHE54   GLY55   ARG56   VAL57  
 MET58   LEU59   VAL60   HIS68   TYR69   ALA70   MET71   LYS72   ILE73   LEU74  
 ASP75   LYS78   VAL79   LEU82   GLN84   THR88   GLU91   LEU95   VAL104  LYS105 
 LEU106  MET118  VAL119  MET120  GLU121  TYR122  VAL123  PRO124  GLY125  GLY126 
 GLU127  TYR164  ASP166  LYS168  GLU170  ASN171  LEU172  LEU173  ILE174  ASP175 
 GLN181  VAL182  THR183  ASP184  PHE185  GLY186  PHE187  PHE327  TYR330 

> <Gold.Protein.RotatedAtoms>
   -6.0034   -2.8015   13.5551 H   0  0  0  0  0  0  0  0  0  0  0  0  # atno 602  bound_to 597 
   -7.5883    1.9419   22.0098 H   0  0  0  0  0  0  0  0  0  0  0  0  # atno 622  bound_to 617 
   -6.1781  -16.6696    9.2559 H   0  0  0  0  0  0  0  0  0  0  0  0  # atno 1835 bound_to 1828
  -16.2605   -9.1721   22.4589 H   0  0  0  0  0  0  0  0  0  0  0  0  # atno 2560 bound_to 2551
  -13.8841   -1.4220   19.4946 H   0  0  0  0  0  0  0  0  0  0  0  0  # atno 2635 bound_to 2624
  -14.6723   -0.7533   18.1996 H   0  0  0  0  0  0  0  0  0  0  0  0  # atno 2636 bound_to 2624
  -15.3394   -0.6608   19.7141 H   0  0  0  0  0  0  0  0  0  0  0  0  # atno 2637 bound_to 2624
   -8.5810   -5.4720   11.4615 H   0  0  0  0  0  0  0  0  0  0  0  0  # atno 5212 bound_to 5203
   -4.8338   -1.8946   12.8788 LP  0  0  0  0  0  0  0  0  0  0  0  0  # atno 5531 bound_to 597 
   -5.5508   -1.4079   14.2628 LP  0  0  0  0  0  0  0  0  0  0  0  0  # atno 5532 bound_to 597 
   -7.3527    1.0123   20.6951 LP  0  0  0  0  0  0  0  0  0  0  0  0  # atno 5535 bound_to 617 
   -7.1747    2.6325   20.5956 LP  0  0  0  0  0  0  0  0  0  0  0  0  # atno 5536 bound_to 617 
  -15.4037   -7.9060   23.0161 LP  0  0  0  0  0  0  0  0  0  0  0  0  # atno 5569 bound_to 2551
  -16.7825   -7.6570   22.1774 LP  0  0  0  0  0  0  0  0  0  0  0  0  # atno 5570 bound_to 2551
   -7.6684  -16.1507    9.6546 LP  0  0  0  0  0  0  0  0  0  0  0  0  # atno 5599 bound_to 1828
   -7.4699  -17.6132    8.9557 LP  0  0  0  0  0  0  0  0  0  0  0  0  # atno 5600 bound_to 1828

> <Gold.Score>
     Fitness  S(hb_ext) S(vdw_ext)  S(hb_int)    S(int)      intcor
     46.07       0.43      33.24       0.00      -0.07      -0.76

> <Gold.Goldscore.Fitness>
46.0682

> <Gold.Goldscore.Internal.Vdw>
-0.3771

> <Gold.Goldscore.Internal.Torsion>
-0.4494

> <Gold.Goldscore.External.Vdw>
33.2417

> <Gold.Goldscore.Internal.HBond>
0.0000

> <Gold.Goldscore.External.HBond>
0.4289

> <Gold.Goldscore.Internal.Correction>
-0.7585

> <Gold.Goldscore.Hbonds>
donor molecule, donor type, donor heavy atom, donor atom, acceptor molecule, acceptor atom, score
      L1  H    10    23       P1  2655  0.21

> <Gold.Goldscore.Internal.Vdw.Weighted>
-0.3771

> <Gold.Goldscore.Internal.Torsion.Weighted>
-0.4494

> <Gold.Goldscore.External.Vdw.Weighted>
45.7073

> <Gold.Goldscore.Internal.HBond.Weighted>
0.0000

> <Gold.Goldscore.External.HBond.Weighted>
0.4289

> <Gold.Goldscore.Internal.Correction.Weighted>
-0.7585

> <Gold.Rescore>
     Score     S(PLP)   S(hbond)     S(cho)   S(metal)  DE(clash)   DE(tors)     intcor
     49.21     -47.56       1.13       0.00       0.00       0.00       0.87       ----

> <Gold.PLP.Fitness>
49.2074

> <Gold.PLP.PLP>
-47.5636

> <Gold.PLP.part.hbond>
-2.6372

> <Gold.PLP.part.metal>
0.0000

> <Gold.PLP.part.buried>
0.1017

> <Gold.PLP.part.nonpolar>
-46.8585

> <Gold.PLP.part.repulsive>
1.3342

> <Gold.PLP.ligand.clash>
0.0000

> <Gold.PLP.ligand.torsion>
0.8741

> <Gold.PLP.Chemscore.Hbond>
1.1307

> <Gold.PLP.Chemscore.CHOScore>
0.0000

> <Gold.PLP.Chemscore.Metal>
0.0000

> <Gold.Chemscore.Hbonds>
donor molecule, donor type, donor heavy atom, donor atom, acceptor molecule, acceptor atom, score
      L1  H    10    23       P1  2655  0.38

> <Gold.PLP.Chemscore.Internal.Correction>
   9.000000E+99

