#       Name:                CT1002167954
#       Creating user name   hitesit
#       Creation time:       Sun Apr 16 22:50:17 2023


#       File generated by GOLD software.
#

@<TRIPOS>MOLECULE
CT1002167954|ligand_prepared|mol2|1|dock6
    29    30     1
SMALL
NO_CHARGES


@<TRIPOS>ATOM
      1 C1          -9.6900  -8.7350  16.5366 C.3            1 RES1               0.0000
      2 C2          -9.3940  -9.0982  18.0060 C.ar           1 RES1               0.0000
      3 C3         -11.1864  -8.4467  16.4596 C.2            1 RES1               0.0000
      4 C4          -8.8077  -7.5359  16.2074 C.2            1 RES1               0.0000
      5 C5          -9.3552  -9.8640  15.5342 C.3            1 RES1               0.0000
      6 C6          -9.5350  -8.1481  19.0130 C.ar           1 RES1               0.0000
      7 C7          -8.9823 -10.3777  18.3696 C.ar           1 RES1               0.0000
      8 N8         -11.5734  -7.1451  16.3328 N.am           1 RES1               0.0000
      9 O9         -12.0155  -9.3439  16.5487 O.2            1 RES1               0.0000
     10 N10         -9.4224  -6.3417  15.9358 N.am           1 RES1               0.0000
     11 O11         -7.5851  -7.6104  16.1971 O.2            1 RES1               0.0000
     12 C12         -9.4933  -9.4513  14.0772 C.3            1 RES1               0.0000
     13 C13         -9.2768  -8.4662  20.3361 C.ar           1 RES1               0.0000
     14 C14         -8.7244 -10.6936  19.6933 C.ar           1 RES1               0.0000
     15 C15        -10.7640  -6.0845  16.0137 C.2            1 RES1               0.0000
     16 C16         -8.8718  -9.7391  20.6771 C.ar           1 RES1               0.0000
     17 O17        -11.2365  -4.9703  15.8078 O.2            1 RES1               0.0000
     18 H18         -8.3254 -10.1986  15.7103 H              1 RES1               0.0000
     19 H19        -10.0213 -10.7145  15.7248 H              1 RES1               0.0000
     20 H20         -9.8504  -7.1405  18.7634 H              1 RES1               0.0000
     21 H21         -8.8586 -11.1443  17.6123 H              1 RES1               0.0000
     22 H22        -12.5553  -6.9415  16.4897 H              1 RES1               0.0000
     23 H23         -8.8244  -5.5733  15.6489 H              1 RES1               0.0000
     24 H24         -9.2469 -10.2799  13.4166 H              1 RES1               0.0000
     25 H25        -10.5119  -9.1363  13.8604 H              1 RES1               0.0000
     26 H26         -8.8260  -8.6235  13.8460 H              1 RES1               0.0000
     27 H27         -9.3929  -7.7111  21.1064 H              1 RES1               0.0000
     28 H28         -8.4053 -11.6965  19.9571 H              1 RES1               0.0000
     29 H29         -8.6699  -9.9882  21.7137 H              1 RES1               0.0000
@<TRIPOS>BOND
    1    1    2 1     
    2    1    3 1     
    3    1    4 1     
    4    1    5 1     
    5    2    6 ar    
    6    2    7 ar    
    7    3    8 1     
    8    3    9 2     
    9    4   10 1     
   10    4   11 2     
   11    5   12 1     
   12    5   18 1     
   13    5   19 1     
   14    6   13 ar    
   15    6   20 1     
   16    7   14 ar    
   17    7   21 1     
   18    8   15 1     
   19    8   22 1     
   20   10   15 1     
   21   10   23 1     
   22   12   24 1     
   23   12   25 1     
   24   12   26 1     
   25   13   16 ar    
   26   13   27 1     
   27   14   16 ar    
   28   14   28 1     
   29   15   17 2     
   30   16   29 1     
@<TRIPOS>SUBSTRUCTURE
      1 RES1           1
@<TRIPOS>SET
DONOR_HYDROGENS      STATIC     ATOMS    <user>   **** ""
2 22 23
ATOM$RED        STATIC     ATOMS    COLORGROUP SYSTEM
2 22 23
@<TRIPOS>COMMENT
> <Gold.Version>
2022.3.0

> <Gold.Id.Protein>
unknown|3ovv_clean|pdb

> <Gold.Protein.RotatedTorsions>
[  602  597  595  592 ] final   64.14 input   59.96 | X-H torsion
[  622  617  616  613 ] final   17.05 input   59.98 | X-H torsion
[ 2560 2551 2550 2548 ] final  179.16 input   59.99 | X-H torsion
[ 2635 2624 2623 2622 ] final -125.91 input   60.00 | X-H torsion
[ 1835 1828 1827 1825 ] final   23.87 input   60.01 | X-H torsion
[ 5212 5203 5202 5200 ] final   88.82 input   59.98 | X-H torsion

> <Gold.Protein.ActiveResidues>
 THR48   LEU49   GLY50   THR51   GLY52   SER53   PHE54   GLY55   ARG56   VAL57  
 MET58   LEU59   VAL60   HIS68   TYR69   ALA70   MET71   LYS72   ILE73   LEU74  
 ASP75   LYS78   VAL79   LEU82   GLN84   THR88   GLU91   LEU95   VAL104  LYS105 
 LEU106  MET118  VAL119  MET120  GLU121  TYR122  VAL123  PRO124  GLY125  GLY126 
 GLU127  TYR164  ASP166  LYS168  GLU170  ASN171  LEU172  LEU173  ILE174  ASP175 
 GLN181  VAL182  THR183  ASP184  PHE185  GLY186  PHE187  PHE327  TYR330 

> <Gold.Protein.RotatedAtoms>
   -5.8631   -1.7429   14.3598 H   0  0  0  0  0  0  0  0  0  0  0  0  # atno 602  bound_to 597 
   -7.2793    1.1769   20.4716 H   0  0  0  0  0  0  0  0  0  0  0  0  # atno 622  bound_to 617 
   -6.8583  -15.9814    9.6480 H   0  0  0  0  0  0  0  0  0  0  0  0  # atno 1835 bound_to 1828
  -16.8805   -7.8590   22.1142 H   0  0  0  0  0  0  0  0  0  0  0  0  # atno 2560 bound_to 2551
  -13.9576   -1.2029   18.5084 H   0  0  0  0  0  0  0  0  0  0  0  0  # atno 2635 bound_to 2624
  -15.4045   -0.4660   18.8381 H   0  0  0  0  0  0  0  0  0  0  0  0  # atno 2636 bound_to 2624
  -14.5335   -1.1673   20.0615 H   0  0  0  0  0  0  0  0  0  0  0  0  # atno 2637 bound_to 2624
   -8.5443   -5.1881   11.6016 H   0  0  0  0  0  0  0  0  0  0  0  0  # atno 5212 bound_to 5203
   -5.7414   -2.8460   13.1697 LP  0  0  0  0  0  0  0  0  0  0  0  0  # atno 5531 bound_to 597 
   -4.7845   -1.5228   13.1614 LP  0  0  0  0  0  0  0  0  0  0  0  0  # atno 5532 bound_to 597 
   -7.2257    2.7588   20.8494 LP  0  0  0  0  0  0  0  0  0  0  0  0  # atno 5535 bound_to 617 
   -7.6130    1.6565   21.9903 LP  0  0  0  0  0  0  0  0  0  0  0  0  # atno 5536 bound_to 617 
  -16.0607   -9.1856   22.5786 LP  0  0  0  0  0  0  0  0  0  0  0  0  # atno 5569 bound_to 2551
  -15.5009   -7.7003   22.9621 LP  0  0  0  0  0  0  0  0  0  0  0  0  # atno 5570 bound_to 2551
   -8.0108  -17.0659    9.2675 LP  0  0  0  0  0  0  0  0  0  0  0  0  # atno 5599 bound_to 1828
   -6.4427  -17.3908    8.9479 LP  0  0  0  0  0  0  0  0  0  0  0  0  # atno 5600 bound_to 1828

> <Gold.Score>
     Fitness  S(hb_ext) S(vdw_ext)  S(hb_int)    S(int)      intcor
     46.74       0.48      33.81       0.00      -0.23      -0.76

> <Gold.Goldscore.Fitness>
46.7447

> <Gold.Goldscore.Internal.Vdw>
-0.5486

> <Gold.Goldscore.Internal.Torsion>
-0.4372

> <Gold.Goldscore.External.Vdw>
33.8149

> <Gold.Goldscore.Internal.HBond>
0.0000

> <Gold.Goldscore.External.HBond>
0.4765

> <Gold.Goldscore.Internal.Correction>
-0.7585

> <Gold.Goldscore.Hbonds>
donor molecule, donor type, donor heavy atom, donor atom, acceptor molecule, acceptor atom, score
      L1  H     8    22       P1  2655  0.16
      L1  H    10    23       P1   594  0.08

> <Gold.Goldscore.Internal.Vdw.Weighted>
-0.5486

> <Gold.Goldscore.Internal.Torsion.Weighted>
-0.4372

> <Gold.Goldscore.External.Vdw.Weighted>
46.4955

> <Gold.Goldscore.Internal.HBond.Weighted>
0.0000

> <Gold.Goldscore.External.HBond.Weighted>
0.4765

> <Gold.Goldscore.Internal.Correction.Weighted>
-0.7585

> <Gold.Rescore>
     Score     S(PLP)   S(hbond)     S(cho)   S(metal)  DE(clash)   DE(tors)     intcor
     41.02     -38.80       0.85       0.00       0.00       0.00       0.16       ----

> <Gold.PLP.Fitness>
41.0187

> <Gold.PLP.PLP>
-38.7977

> <Gold.PLP.part.hbond>
-2.0000

> <Gold.PLP.part.metal>
0.0000

> <Gold.PLP.part.buried>
2.9515

> <Gold.PLP.part.nonpolar>
-41.2503

> <Gold.PLP.part.repulsive>
0.6332

> <Gold.PLP.ligand.clash>
0.0000

> <Gold.PLP.ligand.torsion>
0.1615

> <Gold.PLP.Chemscore.Hbond>
0.8480

> <Gold.PLP.Chemscore.CHOScore>
0.0000

> <Gold.PLP.Chemscore.Metal>
0.0000

> <Gold.Chemscore.Hbonds>
donor molecule, donor type, donor heavy atom, donor atom, acceptor molecule, acceptor atom, score
      L1  H     8    22       P1  2655  0.69

> <Gold.PLP.Chemscore.Internal.Correction>
   9.000000E+99

