#       Name:                CT1002167954
#       Creating user name   hitesit
#       Creation time:       Sun Apr 16 22:50:19 2023


#       File generated by GOLD software.
#

@<TRIPOS>MOLECULE
CT1002167954|ligand_prepared|mol2|1|dock8
    29    30     1
SMALL
NO_CHARGES


@<TRIPOS>ATOM
      1 C1          -9.2255  -7.3124  18.1909 C.3            1 RES1               0.0000
      2 C2          -7.9352  -6.5713  18.5969 C.ar           1 RES1               0.0000
      3 C3          -9.0683  -7.6694  16.7157 C.2            1 RES1               0.0000
      4 C4          -9.3326  -8.5202  19.1153 C.2            1 RES1               0.0000
      5 C5         -10.5101  -6.4677  18.3577 C.3            1 RES1               0.0000
      6 C6          -7.8105  -6.0075  19.8631 C.ar           1 RES1               0.0000
      7 C7          -6.8621  -6.4458  17.7187 C.ar           1 RES1               0.0000
      8 N8          -8.8207  -8.9738  16.4042 N.am           1 RES1               0.0000
      9 O9          -9.1215  -6.8128  15.8418 O.2            1 RES1               0.0000
     10 N10         -9.2272  -9.7672  18.5572 N.am           1 RES1               0.0000
     11 O11         -9.4907  -8.4028  20.3242 O.2            1 RES1               0.0000
     12 C12        -11.7638  -7.1478  17.8307 C.3            1 RES1               0.0000
     13 C13         -6.6538  -5.3448  20.2389 C.ar           1 RES1               0.0000
     14 C14         -5.7064  -5.7825  18.0964 C.ar           1 RES1               0.0000
     15 C15         -8.9454 -10.0482  17.2480 C.2            1 RES1               0.0000
     16 C16         -5.6009  -5.2322  19.3561 C.ar           1 RES1               0.0000
     17 O17         -8.8121 -11.1955  16.8321 O.2            1 RES1               0.0000
     18 H18        -10.6503  -6.2448  19.4226 H              1 RES1               0.0000
     19 H19        -10.3771  -5.5149  17.8304 H              1 RES1               0.0000
     20 H20         -8.6296  -6.0839  20.5705 H              1 RES1               0.0000
     21 H21         -6.9232  -6.8699  16.7222 H              1 RES1               0.0000
     22 H22         -8.5144  -9.1685  15.4563 H              1 RES1               0.0000
     23 H23         -9.3724 -10.5595  19.1749 H              1 RES1               0.0000
     24 H24        -12.6357  -6.5126  17.9723 H              1 RES1               0.0000
     25 H25        -11.6691  -7.3614  16.7681 H              1 RES1               0.0000
     26 H26        -11.9407  -8.0870  18.3508 H              1 RES1               0.0000
     27 H27         -6.5764  -4.9123  21.2310 H              1 RES1               0.0000
     28 H28         -4.8804  -5.6957  17.3982 H              1 RES1               0.0000
     29 H29         -4.6948  -4.7133  19.6509 H              1 RES1               0.0000
@<TRIPOS>BOND
    1    1    2 1     
    2    1    3 1     
    3    1    4 1     
    4    1    5 1     
    5    2    6 ar    
    6    2    7 ar    
    7    3    8 1     
    8    3    9 2     
    9    4   10 1     
   10    4   11 2     
   11    5   12 1     
   12    5   18 1     
   13    5   19 1     
   14    6   13 ar    
   15    6   20 1     
   16    7   14 ar    
   17    7   21 1     
   18    8   15 1     
   19    8   22 1     
   20   10   15 1     
   21   10   23 1     
   22   12   24 1     
   23   12   25 1     
   24   12   26 1     
   25   13   16 ar    
   26   13   27 1     
   27   14   16 ar    
   28   14   28 1     
   29   15   17 2     
   30   16   29 1     
@<TRIPOS>SUBSTRUCTURE
      1 RES1           1
@<TRIPOS>SET
DONOR_HYDROGENS      STATIC     ATOMS    <user>   **** ""
2 22 23
ATOM$RED        STATIC     ATOMS    COLORGROUP SYSTEM
2 22 23
@<TRIPOS>COMMENT
> <Gold.Version>
2022.3.0

> <Gold.Id.Protein>
unknown|3ovv_clean|pdb

> <Gold.Protein.RotatedTorsions>
[  602  597  595  592 ] final -149.89 input   59.96 | X-H torsion
[  622  617  616  613 ] final  -28.27 input   59.98 | X-H torsion
[ 2560 2551 2550 2548 ] final  -56.52 input   59.99 | X-H torsion
[ 2635 2624 2623 2622 ] final -146.59 input   60.00 | X-H torsion
[ 1835 1828 1827 1825 ] final  -73.54 input   60.01 | X-H torsion
[ 5212 5203 5202 5200 ] final   93.25 input   59.98 | X-H torsion

> <Gold.Protein.ActiveResidues>
 THR48   LEU49   GLY50   THR51   GLY52   SER53   PHE54   GLY55   ARG56   VAL57  
 MET58   LEU59   VAL60   HIS68   TYR69   ALA70   MET71   LYS72   ILE73   LEU74  
 ASP75   LYS78   VAL79   LEU82   GLN84   THR88   GLU91   LEU95   VAL104  LYS105 
 LEU106  MET118  VAL119  MET120  GLU121  TYR122  VAL123  PRO124  GLY125  GLY126 
 GLU127  TYR164  ASP166  LYS168  GLU170  ASN171  LEU172  LEU173  ILE174  ASP175 
 GLN181  VAL182  THR183  ASP184  PHE185  GLY186  PHE187  PHE327  TYR330 

> <Gold.Protein.RotatedAtoms>
   -4.8245   -1.8566   12.9061 H   0  0  0  0  0  0  0  0  0  0  0  0  # atno 602  bound_to 597 
   -7.1486    1.8297   20.1938 H   0  0  0  0  0  0  0  0  0  0  0  0  # atno 622  bound_to 617 
   -8.0267  -16.7336    9.4255 H   0  0  0  0  0  0  0  0  0  0  0  0  # atno 1835 bound_to 1828
  -15.4729   -7.7632   22.9798 H   0  0  0  0  0  0  0  0  0  0  0  0  # atno 2560 bound_to 2551
  -13.8235   -1.3292   18.7981 H   0  0  0  0  0  0  0  0  0  0  0  0  # atno 2635 bound_to 2624
  -15.2372   -0.5042   18.5406 H   0  0  0  0  0  0  0  0  0  0  0  0  # atno 2636 bound_to 2624
  -14.8349   -1.0028   20.0693 H   0  0  0  0  0  0  0  0  0  0  0  0  # atno 2637 bound_to 2624
   -8.5395   -5.1181   11.6197 H   0  0  0  0  0  0  0  0  0  0  0  0  # atno 5212 bound_to 5203
   -5.5849   -1.4352   14.2816 LP  0  0  0  0  0  0  0  0  0  0  0  0  # atno 5531 bound_to 597 
   -5.9872   -2.8191   13.5138 LP  0  0  0  0  0  0  0  0  0  0  0  0  # atno 5532 bound_to 597 
   -7.4058    2.6915   21.5500 LP  0  0  0  0  0  0  0  0  0  0  0  0  # atno 5535 bound_to 617 
   -7.5644    1.0663   21.5694 LP  0  0  0  0  0  0  0  0  0  0  0  0  # atno 5536 bound_to 617 
  -16.8584   -7.7927   22.1272 LP  0  0  0  0  0  0  0  0  0  0  0  0  # atno 5569 bound_to 2551
  -16.1212   -9.1897   22.5414 LP  0  0  0  0  0  0  0  0  0  0  0  0  # atno 5570 bound_to 2551
   -6.7494  -17.5882    8.8896 LP  0  0  0  0  0  0  0  0  0  0  0  0  # atno 5599 bound_to 1828
   -6.5279  -16.1112    9.5499 LP  0  0  0  0  0  0  0  0  0  0  0  0  # atno 5600 bound_to 1828

> <Gold.Score>
     Fitness  S(hb_ext) S(vdw_ext)  S(hb_int)    S(int)      intcor
     42.58       1.09      31.70       0.00      -2.10      -0.76

> <Gold.Goldscore.Fitness>
42.5849

> <Gold.Goldscore.Internal.Vdw>
-2.4390

> <Gold.Goldscore.Internal.Torsion>
-0.4215

> <Gold.Goldscore.External.Vdw>
31.7039

> <Gold.Goldscore.Internal.HBond>
0.0000

> <Gold.Goldscore.External.HBond>
1.0940

> <Gold.Goldscore.Internal.Correction>
-0.7585

> <Gold.Goldscore.Hbonds>
donor molecule, donor type, donor heavy atom, donor atom, acceptor molecule, acceptor atom, score
      P1  H   932   945       L1    11  0.18

> <Gold.Goldscore.Internal.Vdw.Weighted>
-2.4390

> <Gold.Goldscore.Internal.Torsion.Weighted>
-0.4215

> <Gold.Goldscore.External.Vdw.Weighted>
43.5929

> <Gold.Goldscore.Internal.HBond.Weighted>
0.0000

> <Gold.Goldscore.External.HBond.Weighted>
1.0940

> <Gold.Goldscore.Internal.Correction.Weighted>
-0.7585

> <Gold.Rescore>
     Score     S(PLP)   S(hbond)     S(cho)   S(metal)  DE(clash)   DE(tors)     intcor
     40.23     -41.76       0.00       0.00       0.00       1.31       0.11       ----

> <Gold.PLP.Fitness>
40.2291

> <Gold.PLP.PLP>
-41.7552

> <Gold.PLP.part.hbond>
-0.1725

> <Gold.PLP.part.metal>
0.0000

> <Gold.PLP.part.buried>
-5.2887

> <Gold.PLP.part.nonpolar>
-37.0310

> <Gold.PLP.part.repulsive>
0.2890

> <Gold.PLP.ligand.clash>
1.3055

> <Gold.PLP.ligand.torsion>
0.1103

> <Gold.PLP.Chemscore.Hbond>
0.0000

> <Gold.PLP.Chemscore.CHOScore>
0.0000

> <Gold.PLP.Chemscore.Metal>
0.0000

> <Gold.PLP.Chemscore.Internal.Correction>
   9.000000E+99

