#       Name:                CT1002167954
#       Creating user name   hitesit
#       Creation time:       Sun Apr 16 22:50:12 2023


#       File generated by GOLD software.
#

@<TRIPOS>MOLECULE
CT1002167954|ligand_prepared|mol2|1|dock1
    29    30     1
SMALL
NO_CHARGES


@<TRIPOS>ATOM
      1 C1          -9.4215  -7.9170  17.6224 C.3            1 RES1               0.0000
      2 C2          -9.2982  -9.4415  17.4235 C.ar           1 RES1               0.0000
      3 C3          -8.9370  -7.2752  16.3256 C.2            1 RES1               0.0000
      4 C4         -10.8876  -7.6455  17.9410 C.2            1 RES1               0.0000
      5 C5          -8.5692  -7.3683  18.7903 C.3            1 RES1               0.0000
      6 C6          -9.1144 -10.2858  18.5144 C.ar           1 RES1               0.0000
      7 C7          -9.3689 -10.0174  16.1578 C.ar           1 RES1               0.0000
      8 N8          -9.8771  -6.7357  15.4979 N.am           1 RES1               0.0000
      9 O9          -7.7521  -7.2775  16.0152 O.2            1 RES1               0.0000
     10 N10        -11.6179  -6.9208  17.0359 N.am           1 RES1               0.0000
     11 O11        -11.4213  -8.0668  18.9598 O.2            1 RES1               0.0000
     12 C12         -8.4838  -5.8506  18.8268 C.3            1 RES1               0.0000
     13 C13         -9.0080 -11.6565  18.3464 C.ar           1 RES1               0.0000
     14 C14         -9.2621 -11.3883  15.9921 C.ar           1 RES1               0.0000
     15 C15        -11.1871  -6.4798  15.8143 C.2            1 RES1               0.0000
     16 C16         -9.0823 -12.2087  17.0854 C.ar           1 RES1               0.0000
     17 O17        -11.9196  -5.8812  15.0318 O.2            1 RES1               0.0000
     18 H18         -8.9982  -7.7207  19.7364 H              1 RES1               0.0000
     19 H19         -7.5544  -7.7771  18.7094 H              1 RES1               0.0000
     20 H20         -9.0511  -9.8692  19.5141 H              1 RES1               0.0000
     21 H21         -9.5090  -9.3913  15.2831 H              1 RES1               0.0000
     22 H22         -9.5785  -6.5008  14.5566 H              1 RES1               0.0000
     23 H23        -12.5708  -6.6884  17.2970 H              1 RES1               0.0000
     24 H24         -7.8746  -5.5186  19.6649 H              1 RES1               0.0000
     25 H25         -8.0383  -5.4671  17.9112 H              1 RES1               0.0000
     26 H26         -9.4735  -5.4110  18.9321 H              1 RES1               0.0000
     27 H27         -8.8652 -12.2976  19.2100 H              1 RES1               0.0000
     28 H28         -9.3205 -11.8185  14.9977 H              1 RES1               0.0000
     29 H29         -8.9993 -13.2825  16.9542 H              1 RES1               0.0000
@<TRIPOS>BOND
    1    1    2 1     
    2    1    3 1     
    3    1    4 1     
    4    1    5 1     
    5    2    6 ar    
    6    2    7 ar    
    7    3    8 1     
    8    3    9 2     
    9    4   10 1     
   10    4   11 2     
   11    5   12 1     
   12    5   18 1     
   13    5   19 1     
   14    6   13 ar    
   15    6   20 1     
   16    7   14 ar    
   17    7   21 1     
   18    8   15 1     
   19    8   22 1     
   20   10   15 1     
   21   10   23 1     
   22   12   24 1     
   23   12   25 1     
   24   12   26 1     
   25   13   16 ar    
   26   13   27 1     
   27   14   16 ar    
   28   14   28 1     
   29   15   17 2     
   30   16   29 1     
@<TRIPOS>SUBSTRUCTURE
      1 RES1           1
@<TRIPOS>SET
DONOR_HYDROGENS      STATIC     ATOMS    <user>   **** ""
2 22 23
ATOM$RED        STATIC     ATOMS    COLORGROUP SYSTEM
2 22 23
@<TRIPOS>COMMENT
> <Gold.Version>
2022.3.0

> <Gold.Id.Protein>
unknown|3ovv_clean|pdb

> <Gold.Protein.RotatedTorsions>
[  602  597  595  592 ] final -154.07 input   59.96 | X-H torsion
[  622  617  616  613 ] final -170.92 input   59.98 | X-H torsion
[ 2560 2551 2550 2548 ] final -129.36 input   59.99 | X-H torsion
[ 2635 2624 2623 2622 ] final  -81.15 input   60.00 | X-H torsion
[ 1835 1828 1827 1825 ] final  140.46 input   60.01 | X-H torsion
[ 5212 5203 5202 5200 ] final   82.75 input   59.98 | X-H torsion

> <Gold.Protein.ActiveResidues>
 THR48   LEU49   GLY50   THR51   GLY52   SER53   PHE54   GLY55   ARG56   VAL57  
 MET58   LEU59   VAL60   HIS68   TYR69   ALA70   MET71   LYS72   ILE73   LEU74  
 ASP75   LYS78   VAL79   LEU82   GLN84   THR88   GLU91   LEU95   VAL104  LYS105 
 LEU106  MET118  VAL119  MET120  GLU121  TYR122  VAL123  PRO124  GLY125  GLY126 
 GLU127  TYR164  ASP166  LYS168  GLU170  ASN171  LEU172  LEU173  ILE174  ASP175 
 GLN181  VAL182  THR183  ASP184  PHE185  GLY186  PHE187  PHE327  TYR330 

> <Gold.Protein.RotatedAtoms>
   -4.8094   -1.7993   12.9399 H   0  0  0  0  0  0  0  0  0  0  0  0  # atno 602  bound_to 597 
   -7.4924    2.4535   21.8184 H   0  0  0  0  0  0  0  0  0  0  0  0  # atno 622  bound_to 617 
   -6.4087  -17.3496    8.9657 H   0  0  0  0  0  0  0  0  0  0  0  0  # atno 1835 bound_to 1828
  -16.3539   -7.3395   22.4511 H   0  0  0  0  0  0  0  0  0  0  0  0  # atno 2560 bound_to 2551
  -14.5071   -0.8434   18.1931 H   0  0  0  0  0  0  0  0  0  0  0  0  # atno 2635 bound_to 2624
  -15.4149   -0.5903   19.5559 H   0  0  0  0  0  0  0  0  0  0  0  0  # atno 2636 bound_to 2624
  -13.9737   -1.4024   19.6588 H   0  0  0  0  0  0  0  0  0  0  0  0  # atno 2637 bound_to 2624
   -8.5531   -5.2810   11.5685 H   0  0  0  0  0  0  0  0  0  0  0  0  # atno 5212 bound_to 5203
   -5.6336   -1.4774   14.3055 LP  0  0  0  0  0  0  0  0  0  0  0  0  # atno 5531 bound_to 597 
   -5.9537   -2.8347   13.4558 LP  0  0  0  0  0  0  0  0  0  0  0  0  # atno 5532 bound_to 597 
   -7.4927    0.9361   21.2304 LP  0  0  0  0  0  0  0  0  0  0  0  0  # atno 5535 bound_to 617 
   -7.1313    2.1935   20.2531 LP  0  0  0  0  0  0  0  0  0  0  0  0  # atno 5536 bound_to 617 
  -16.7191   -8.9021   22.1826 LP  0  0  0  0  0  0  0  0  0  0  0  0  # atno 5569 bound_to 2551
  -15.3731   -8.5072   23.0186 LP  0  0  0  0  0  0  0  0  0  0  0  0  # atno 5570 bound_to 2551
   -6.9111  -15.9653    9.6588 LP  0  0  0  0  0  0  0  0  0  0  0  0  # atno 5599 bound_to 1828
   -7.9950  -17.1140    9.2436 LP  0  0  0  0  0  0  0  0  0  0  0  0  # atno 5600 bound_to 1828

> <Gold.Score>
     Fitness  S(hb_ext) S(vdw_ext)  S(hb_int)    S(int)      intcor
     42.65       0.23      31.48       0.00      -0.88      -0.77

> <Gold.Goldscore.Fitness>
42.6463

> <Gold.Goldscore.Internal.Vdw>
-1.0887

> <Gold.Goldscore.Internal.Torsion>
-0.5562

> <Gold.Goldscore.External.Vdw>
31.4845

> <Gold.Goldscore.Internal.HBond>
0.0000

> <Gold.Goldscore.External.HBond>
0.2347

> <Gold.Goldscore.Internal.Correction>
-0.7653

> <Gold.Goldscore.Hbonds>
donor molecule, donor type, donor heavy atom, donor atom, acceptor molecule, acceptor atom, score
      L1  H    10    23       P1  2674  0.12

> <Gold.Goldscore.Internal.Vdw.Weighted>
-1.0887

> <Gold.Goldscore.Internal.Torsion.Weighted>
-0.5562

> <Gold.Goldscore.External.Vdw.Weighted>
43.2912

> <Gold.Goldscore.Internal.HBond.Weighted>
0.0000

> <Gold.Goldscore.External.HBond.Weighted>
0.2347

> <Gold.Goldscore.Internal.Correction.Weighted>
-0.7653

> <Gold.Rescore>
     Score     S(PLP)   S(hbond)     S(cho)   S(metal)  DE(clash)   DE(tors)     intcor
     48.07     -45.91       1.32       0.00       0.00       0.00       0.90       ----

> <Gold.PLP.Fitness>
48.0712

> <Gold.PLP.PLP>
-45.9135

> <Gold.PLP.part.hbond>
-2.9580

> <Gold.PLP.part.metal>
0.0000

> <Gold.PLP.part.buried>
-0.3499

> <Gold.PLP.part.nonpolar>
-44.9417

> <Gold.PLP.part.repulsive>
1.0639

> <Gold.PLP.ligand.clash>
0.0000

> <Gold.PLP.ligand.torsion>
0.9011

> <Gold.PLP.Chemscore.Hbond>
1.3200

> <Gold.PLP.Chemscore.CHOScore>
0.0000

> <Gold.PLP.Chemscore.Metal>
0.0000

> <Gold.Chemscore.Hbonds>
donor molecule, donor type, donor heavy atom, donor atom, acceptor molecule, acceptor atom, score
      L1  H    10    23       P1  2674  0.25
      P1  H  2880  2892       L1    11  0.28

> <Gold.PLP.Chemscore.Internal.Correction>
   9.000000E+99

