#       Name:                CT1002167954
#       Creating user name   hitesit
#       Creation time:       Sun Apr 16 22:50:22 2023


#       File generated by GOLD software.
#

@<TRIPOS>MOLECULE
CT1002167954|ligand_prepared|mol2|1|dock10
    29    30     1
SMALL
NO_CHARGES


@<TRIPOS>ATOM
      1 C1          -9.3767  -6.9688  17.2344 C.3            1 RES1               0.0000
      2 C2          -8.2273  -6.3795  18.0773 C.ar           1 RES1               0.0000
      3 C3         -10.5056  -7.2852  18.2110 C.2            1 RES1               0.0000
      4 C4          -9.7308  -5.9097  16.1963 C.2            1 RES1               0.0000
      5 C5          -8.9989  -8.2666  16.4832 C.3            1 RES1               0.0000
      6 C6          -6.9587  -6.2154  17.5292 C.ar           1 RES1               0.0000
      7 C7          -8.4206  -5.9937  19.4011 C.ar           1 RES1               0.0000
      8 N8         -11.5949  -6.4647  18.2049 N.am           1 RES1               0.0000
      9 O9         -10.4239  -8.2170  19.0018 O.2            1 RES1               0.0000
     10 N10        -10.9681  -5.3256  16.2712 N.am           1 RES1               0.0000
     11 O11         -8.9433  -5.5639  15.3242 O.2            1 RES1               0.0000
     12 C12        -10.1740  -8.9384  15.7905 C.3            1 RES1               0.0000
     13 C13         -5.9216  -5.6821  18.2764 C.ar           1 RES1               0.0000
     14 C14         -7.3820  -5.4608  20.1466 C.ar           1 RES1               0.0000
     15 C15        -11.9046  -5.5330  17.2469 C.2            1 RES1               0.0000
     16 C16         -6.1326  -5.3041  19.5853 C.ar           1 RES1               0.0000
     17 O17        -12.9731  -4.9291  17.2767 O.2            1 RES1               0.0000
     18 H18         -8.2346  -8.0304  15.7326 H              1 RES1               0.0000
     19 H19         -8.5596  -8.9733  17.1981 H              1 RES1               0.0000
     20 H20         -6.7731  -6.5094  16.5015 H              1 RES1               0.0000
     21 H21         -9.3949  -6.1088  19.8637 H              1 RES1               0.0000
     22 H22        -12.2387  -6.5519  18.9848 H              1 RES1               0.0000
     23 H23        -11.2138  -4.6760  15.5309 H              1 RES1               0.0000
     24 H24         -9.8541  -9.8437  15.2789 H              1 RES1               0.0000
     25 H25        -10.9427  -9.2099  16.5110 H              1 RES1               0.0000
     26 H26        -10.6196  -8.2726  15.0542 H              1 RES1               0.0000
     27 H27         -4.9398  -5.5621  17.8305 H              1 RES1               0.0000
     28 H28         -7.5525  -5.1652  21.1766 H              1 RES1               0.0000
     29 H29         -5.3201  -4.8860  20.1703 H              1 RES1               0.0000
@<TRIPOS>BOND
    1    1    2 1     
    2    1    3 1     
    3    1    4 1     
    4    1    5 1     
    5    2    6 ar    
    6    2    7 ar    
    7    3    8 1     
    8    3    9 2     
    9    4   10 1     
   10    4   11 2     
   11    5   12 1     
   12    5   18 1     
   13    5   19 1     
   14    6   13 ar    
   15    6   20 1     
   16    7   14 ar    
   17    7   21 1     
   18    8   15 1     
   19    8   22 1     
   20   10   15 1     
   21   10   23 1     
   22   12   24 1     
   23   12   25 1     
   24   12   26 1     
   25   13   16 ar    
   26   13   27 1     
   27   14   16 ar    
   28   14   28 1     
   29   15   17 2     
   30   16   29 1     
@<TRIPOS>SUBSTRUCTURE
      1 RES1           1
@<TRIPOS>SET
DONOR_HYDROGENS      STATIC     ATOMS    <user>   **** ""
2 22 23
ATOM$RED        STATIC     ATOMS    COLORGROUP SYSTEM
2 22 23
@<TRIPOS>COMMENT
> <Gold.Version>
2022.3.0

> <Gold.Id.Protein>
unknown|3ovv_clean|pdb

> <Gold.Protein.RotatedTorsions>
[  602  597  595  592 ] final  -25.84 input   59.96 | X-H torsion
[  622  617  616  613 ] final   64.64 input   59.98 | X-H torsion
[ 2560 2551 2550 2548 ] final  115.50 input   59.99 | X-H torsion
[ 2635 2624 2623 2622 ] final -157.28 input   60.00 | X-H torsion
[ 1835 1828 1827 1825 ] final  -89.27 input   60.01 | X-H torsion
[ 5212 5203 5202 5200 ] final   83.55 input   59.98 | X-H torsion

> <Gold.Protein.ActiveResidues>
 THR48   LEU49   GLY50   THR51   GLY52   SER53   PHE54   GLY55   ARG56   VAL57  
 MET58   LEU59   VAL60   HIS68   TYR69   ALA70   MET71   LYS72   ILE73   LEU74  
 ASP75   LYS78   VAL79   LEU82   GLN84   THR88   GLU91   LEU95   VAL104  LYS105 
 LEU106  MET118  VAL119  MET120  GLU121  TYR122  VAL123  PRO124  GLY125  GLY126 
 GLU127  TYR164  ASP166  LYS168  GLU170  ASN171  LEU172  LEU173  ILE174  ASP175 
 GLN181  VAL182  THR183  ASP184  PHE185  GLY186  PHE187  PHE327  TYR330 

> <Gold.Protein.RotatedAtoms>
   -6.0117   -2.7957   13.5713 H   0  0  0  0  0  0  0  0  0  0  0  0  # atno 602  bound_to 597 
   -7.4730    0.9334   21.1599 H   0  0  0  0  0  0  0  0  0  0  0  0  # atno 622  bound_to 617 
   -8.0266  -16.9662    9.3177 H   0  0  0  0  0  0  0  0  0  0  0  0  # atno 1835 bound_to 1828
  -16.7617   -8.8379   22.1606 H   0  0  0  0  0  0  0  0  0  0  0  0  # atno 2560 bound_to 2551
  -13.7945   -1.3759   18.9676 H   0  0  0  0  0  0  0  0  0  0  0  0  # atno 2635 bound_to 2624
  -15.1184   -0.5468   18.4149 H   0  0  0  0  0  0  0  0  0  0  0  0  # atno 2636 bound_to 2624
  -14.9828   -0.9135   20.0256 H   0  0  0  0  0  0  0  0  0  0  0  0  # atno 2637 bound_to 2624
   -8.5518   -5.2689   11.5734 H   0  0  0  0  0  0  0  0  0  0  0  0  # atno 5212 bound_to 5203
   -4.8393   -1.9111   12.8706 LP  0  0  0  0  0  0  0  0  0  0  0  0  # atno 5531 bound_to 597 
   -5.5369   -1.3973   14.2547 LP  0  0  0  0  0  0  0  0  0  0  0  0  # atno 5532 bound_to 597 
   -7.1322    2.2606   20.2822 LP  0  0  0  0  0  0  0  0  0  0  0  0  # atno 5535 bound_to 617 
   -7.5114    2.3998   21.8644 LP  0  0  0  0  0  0  0  0  0  0  0  0  # atno 5536 bound_to 617 
  -15.3937   -8.5830   23.0039 LP  0  0  0  0  0  0  0  0  0  0  0  0  # atno 5569 bound_to 2551
  -16.2876   -7.3167   22.4900 LP  0  0  0  0  0  0  0  0  0  0  0  0  # atno 5570 bound_to 2551
   -6.5270  -17.4619    8.9241 LP  0  0  0  0  0  0  0  0  0  0  0  0  # atno 5599 bound_to 1828
   -6.7504  -16.0034    9.6238 LP  0  0  0  0  0  0  0  0  0  0  0  0  # atno 5600 bound_to 1828

> <Gold.Score>
     Fitness  S(hb_ext) S(vdw_ext)  S(hb_int)    S(int)      intcor
     39.04       0.09      29.37       0.00      -1.43      -0.76

> <Gold.Goldscore.Fitness>
39.0435

> <Gold.Goldscore.Internal.Vdw>
-1.7371

> <Gold.Goldscore.Internal.Torsion>
-0.4499

> <Gold.Goldscore.External.Vdw>
29.3661

> <Gold.Goldscore.Internal.HBond>
0.0000

> <Gold.Goldscore.External.HBond>
0.0936

> <Gold.Goldscore.Internal.Correction>
-0.7585

> <Gold.Goldscore.Hbonds>
donor molecule, donor type, donor heavy atom, donor atom, acceptor molecule, acceptor atom, score
      L1  H     8    22       P1  2674  0.05

> <Gold.Goldscore.Internal.Vdw.Weighted>
-1.7371

> <Gold.Goldscore.Internal.Torsion.Weighted>
-0.4499

> <Gold.Goldscore.External.Vdw.Weighted>
40.3784

> <Gold.Goldscore.Internal.HBond.Weighted>
0.0000

> <Gold.Goldscore.External.HBond.Weighted>
0.0936

> <Gold.Goldscore.Internal.Correction.Weighted>
-0.7585

> <Gold.Rescore>
     Score     S(PLP)   S(hbond)     S(cho)   S(metal)  DE(clash)   DE(tors)     intcor
     33.51     -33.24       0.59       0.00       0.00       1.30       0.10       ----

> <Gold.PLP.Fitness>
33.5117

> <Gold.PLP.PLP>
-33.2358

> <Gold.PLP.part.hbond>
-1.6130

> <Gold.PLP.part.metal>
0.0000

> <Gold.PLP.part.buried>
-1.4889

> <Gold.PLP.part.nonpolar>
-32.7268

> <Gold.PLP.part.repulsive>
1.3503

> <Gold.PLP.ligand.clash>
1.2979

> <Gold.PLP.ligand.torsion>
0.1011

> <Gold.PLP.Chemscore.Hbond>
0.5920

> <Gold.PLP.Chemscore.CHOScore>
0.0000

> <Gold.PLP.Chemscore.Metal>
0.0000

> <Gold.Chemscore.Hbonds>
donor molecule, donor type, donor heavy atom, donor atom, acceptor molecule, acceptor atom, score
      L1  H     8    22       P1  2674  0.51

> <Gold.PLP.Chemscore.Internal.Correction>
   9.000000E+99

