#       Name:                CT1002167954
#       Creating user name   hitesit
#       Creation time:       Sun Apr 16 22:50:21 2023


#       File generated by GOLD software.
#

@<TRIPOS>MOLECULE
CT1002167954|ligand_prepared|mol2|1|dock9
    29    30     1
SMALL
NO_CHARGES


@<TRIPOS>ATOM
      1 C1          -9.6100  -6.9334  17.1107 C.3            1 RES1               0.0000
      2 C2          -8.3695  -6.4036  17.8585 C.ar           1 RES1               0.0000
      3 C3         -10.6900  -7.1443  18.1678 C.2            1 RES1               0.0000
      4 C4          -9.9600  -5.8802  16.0653 C.2            1 RES1               0.0000
      5 C5          -9.3721  -8.2740  16.3773 C.3            1 RES1               0.0000
      6 C6          -7.1223  -6.3899  17.2414 C.ar           1 RES1               0.0000
      7 C7          -8.4571  -5.9238  19.1626 C.ar           1 RES1               0.0000
      8 N8         -11.7191  -6.2503  18.2068 N.am           1 RES1               0.0000
      9 O9         -10.6191  -8.0582  18.9803 O.2            1 RES1               0.0000
     10 N10        -11.1470  -5.2094  16.2020 N.am           1 RES1               0.0000
     11 O11         -9.2109  -5.6135  15.1336 O.2            1 RES1               0.0000
     12 C12        -10.6450  -8.9212  15.8546 C.3            1 RES1               0.0000
     13 C13         -6.0036  -5.9110  17.9028 C.ar           1 RES1               0.0000
     14 C14         -7.3370  -5.4456  19.8224 C.ar           1 RES1               0.0000
     15 C15        -12.0282  -5.3250  17.2424 C.2            1 RES1               0.0000
     16 C16         -6.1102  -5.4382  19.1934 C.ar           1 RES1               0.0000
     17 O17        -13.0488  -4.6475  17.3226 O.2            1 RES1               0.0000
     18 H18         -8.6928  -8.0994  15.5339 H              1 RES1               0.0000
     19 H19         -8.8790  -8.9708  17.0663 H              1 RES1               0.0000
     20 H20         -7.0185  -6.7602  16.2269 H              1 RES1               0.0000
     21 H21         -9.4117  -5.9210  19.6776 H              1 RES1               0.0000
     22 H22        -12.3138  -6.2716  19.0291 H              1 RES1               0.0000
     23 H23        -11.3970  -4.5642  15.4594 H              1 RES1               0.0000
     24 H24        -10.4216  -9.8583  15.3489 H              1 RES1               0.0000
     25 H25        -11.3335  -9.1321  16.6703 H              1 RES1               0.0000
     26 H26        -11.1484  -8.2658  15.1469 H              1 RES1               0.0000
     27 H27         -5.0401  -5.9086  17.4038 H              1 RES1               0.0000
     28 H28         -7.4254  -5.0750  20.8383 H              1 RES1               0.0000
     29 H29         -5.2337  -5.0627  19.7112 H              1 RES1               0.0000
@<TRIPOS>BOND
    1    1    2 1     
    2    1    3 1     
    3    1    4 1     
    4    1    5 1     
    5    2    6 ar    
    6    2    7 ar    
    7    3    8 1     
    8    3    9 2     
    9    4   10 1     
   10    4   11 2     
   11    5   12 1     
   12    5   18 1     
   13    5   19 1     
   14    6   13 ar    
   15    6   20 1     
   16    7   14 ar    
   17    7   21 1     
   18    8   15 1     
   19    8   22 1     
   20   10   15 1     
   21   10   23 1     
   22   12   24 1     
   23   12   25 1     
   24   12   26 1     
   25   13   16 ar    
   26   13   27 1     
   27   14   16 ar    
   28   14   28 1     
   29   15   17 2     
   30   16   29 1     
@<TRIPOS>SUBSTRUCTURE
      1 RES1           1
@<TRIPOS>SET
DONOR_HYDROGENS      STATIC     ATOMS    <user>   **** ""
2 22 23
ATOM$RED        STATIC     ATOMS    COLORGROUP SYSTEM
2 22 23
@<TRIPOS>COMMENT
> <Gold.Version>
2022.3.0

> <Gold.Id.Protein>
unknown|3ovv_clean|pdb

> <Gold.Protein.RotatedTorsions>
[  602  597  595  592 ] final  -76.01 input   59.96 | X-H torsion
[  622  617  616  613 ] final -124.99 input   59.98 | X-H torsion
[ 2560 2551 2550 2548 ] final   28.88 input   59.99 | X-H torsion
[ 2635 2624 2623 2622 ] final -131.26 input   60.00 | X-H torsion
[ 1835 1828 1827 1825 ] final  110.24 input   60.01 | X-H torsion
[ 5212 5203 5202 5200 ] final  160.56 input   59.98 | X-H torsion

> <Gold.Protein.ActiveResidues>
 THR48   LEU49   GLY50   THR51   GLY52   SER53   PHE54   GLY55   ARG56   VAL57  
 MET58   LEU59   VAL60   HIS68   TYR69   ALA70   MET71   LYS72   ILE73   LEU74  
 ASP75   LYS78   VAL79   LEU82   GLN84   THR88   GLU91   LEU95   VAL104  LYS105 
 LEU106  MET118  VAL119  MET120  GLU121  TYR122  VAL123  PRO124  GLY125  GLY126 
 GLU127  TYR164  ASP166  LYS168  GLU170  ASN171  LEU172  LEU173  ILE174  ASP175 
 GLN181  VAL182  THR183  ASP184  PHE185  GLY186  PHE187  PHE327  TYR330 

> <Gold.Protein.RotatedAtoms>
   -5.5073   -2.7492   12.9602 H   0  0  0  0  0  0  0  0  0  0  0  0  # atno 602  bound_to 597 
   -7.3066    2.7914   21.1980 H   0  0  0  0  0  0  0  0  0  0  0  0  # atno 622  bound_to 617 
   -6.1902  -16.9450    9.1296 H   0  0  0  0  0  0  0  0  0  0  0  0  # atno 1835 bound_to 1828
  -15.6745   -9.0067   22.8226 H   0  0  0  0  0  0  0  0  0  0  0  0  # atno 2560 bound_to 2551
  -13.9137   -1.2395   18.5769 H   0  0  0  0  0  0  0  0  0  0  0  0  # atno 2635 bound_to 2624
  -15.3702   -0.4700   18.7558 H   0  0  0  0  0  0  0  0  0  0  0  0  # atno 2636 bound_to 2624
  -14.6118   -1.1267   20.0753 H   0  0  0  0  0  0  0  0  0  0  0  0  # atno 2637 bound_to 2624
   -8.6283   -4.1486   11.2608 H   0  0  0  0  0  0  0  0  0  0  0  0  # atno 5212 bound_to 5203
   -4.8512   -1.3341   13.4238 LP  0  0  0  0  0  0  0  0  0  0  0  0  # atno 5531 bound_to 597 
   -6.0331   -2.0211   14.3171 LP  0  0  0  0  0  0  0  0  0  0  0  0  # atno 5532 bound_to 597 
   -7.6074    1.3277   21.8424 LP  0  0  0  0  0  0  0  0  0  0  0  0  # atno 5535 bound_to 617 
   -7.2037    1.4616   20.2658 LP  0  0  0  0  0  0  0  0  0  0  0  0  # atno 5536 bound_to 617 
  -15.8292   -7.3879   22.7692 LP  0  0  0  0  0  0  0  0  0  0  0  0  # atno 5569 bound_to 2551
  -16.9474   -8.3418   22.0577 LP  0  0  0  0  0  0  0  0  0  0  0  0  # atno 5570 bound_to 2551
   -7.3995  -16.0109    9.6903 LP  0  0  0  0  0  0  0  0  0  0  0  0  # atno 5599 bound_to 1828
   -7.7266  -17.4758    9.0470 LP  0  0  0  0  0  0  0  0  0  0  0  0  # atno 5600 bound_to 1828

> <Gold.Score>
     Fitness  S(hb_ext) S(vdw_ext)  S(hb_int)    S(int)      intcor
     38.98       0.03      29.29       0.00      -1.33      -0.76

> <Gold.Goldscore.Fitness>
38.9785

> <Gold.Goldscore.Internal.Vdw>
-1.5473

> <Gold.Goldscore.Internal.Torsion>
-0.5443

> <Gold.Goldscore.External.Vdw>
29.2920

> <Gold.Goldscore.Internal.HBond>
0.0000

> <Gold.Goldscore.External.HBond>
0.0350

> <Gold.Goldscore.Internal.Correction>
-0.7585

> <Gold.Goldscore.Hbonds>
donor molecule, donor type, donor heavy atom, donor atom, acceptor molecule, acceptor atom, score
      L1  H     8    22       P1  2674  0.02

> <Gold.Goldscore.Internal.Vdw.Weighted>
-1.5473

> <Gold.Goldscore.Internal.Torsion.Weighted>
-0.5443

> <Gold.Goldscore.External.Vdw.Weighted>
40.2766

> <Gold.Goldscore.Internal.HBond.Weighted>
0.0000

> <Gold.Goldscore.External.HBond.Weighted>
0.0350

> <Gold.Goldscore.Internal.Correction.Weighted>
-0.7585

> <Gold.Rescore>
     Score     S(PLP)   S(hbond)     S(cho)   S(metal)  DE(clash)   DE(tors)     intcor
     33.47     -33.00       0.83       0.00       0.00       1.26       0.38       ----

> <Gold.PLP.Fitness>
33.4709

> <Gold.PLP.PLP>
-32.9950

> <Gold.PLP.part.hbond>
-1.7048

> <Gold.PLP.part.metal>
0.0000

> <Gold.PLP.part.buried>
-0.6206

> <Gold.PLP.part.nonpolar>
-32.3379

> <Gold.PLP.part.repulsive>
1.2576

> <Gold.PLP.ligand.clash>
1.2613

> <Gold.PLP.ligand.torsion>
0.3794

> <Gold.PLP.Chemscore.Hbond>
0.8320

> <Gold.PLP.Chemscore.CHOScore>
0.0000

> <Gold.PLP.Chemscore.Metal>
0.0000

> <Gold.Chemscore.Hbonds>
donor molecule, donor type, donor heavy atom, donor atom, acceptor molecule, acceptor atom, score
      L1  H     8    22       P1  2674  0.48

> <Gold.PLP.Chemscore.Internal.Correction>
   9.000000E+99

