#       Name:                CT1002167954
#       Creating user name   hitesit
#       Creation time:       Sun Apr 16 22:50:15 2023


#       File generated by GOLD software.
#

@<TRIPOS>MOLECULE
CT1002167954|ligand_prepared|mol2|1|dock4
    29    30     1
SMALL
NO_CHARGES


@<TRIPOS>ATOM
      1 C1          -8.7303  -7.1674  17.5900 C.3            1 RES1               0.0000
      2 C2          -8.9076  -8.6551  17.9560 C.ar           1 RES1               0.0000
      3 C3          -8.5002  -6.4273  18.9044 C.2            1 RES1               0.0000
      4 C4          -7.5515  -7.1029  16.6252 C.2            1 RES1               0.0000
      5 C5          -9.9589  -6.5466  16.8854 C.3            1 RES1               0.0000
      6 C6          -9.3554  -9.5697  17.0074 C.ar           1 RES1               0.0000
      7 C7          -8.6253  -9.1276  19.2349 C.ar           1 RES1               0.0000
      8 N8          -7.2356  -5.9923  19.1716 N.am           1 RES1               0.0000
      9 O9          -9.4061  -6.2628  19.7122 O.2            1 RES1               0.0000
     10 N10         -6.4177  -6.4541  17.0391 N.am           1 RES1               0.0000
     11 O11         -7.5883  -7.6225  15.5166 O.2            1 RES1               0.0000
     12 C12         -9.7431  -5.1130  16.4265 C.3            1 RES1               0.0000
     13 C13         -9.5125 -10.9087  17.3250 C.ar           1 RES1               0.0000
     14 C14         -8.7834 -10.4670  19.5505 C.ar           1 RES1               0.0000
     15 C15         -6.1953  -5.9225  18.2801 C.2            1 RES1               0.0000
     16 C16         -9.2263 -11.3583  18.5964 C.ar           1 RES1               0.0000
     17 O17         -5.1287  -5.4027  18.5950 O.2            1 RES1               0.0000
     18 H18        -10.2143  -7.1617  16.0137 H              1 RES1               0.0000
     19 H19        -10.8117  -6.5719  17.5750 H              1 RES1               0.0000
     20 H20         -9.5880  -9.2339  16.0023 H              1 RES1               0.0000
     21 H21         -8.2766  -8.4444  20.0019 H              1 RES1               0.0000
     22 H22         -7.0457  -5.6910  20.1221 H              1 RES1               0.0000
     23 H23         -5.6702  -6.3585  16.3590 H              1 RES1               0.0000
     24 H24        -10.6353  -4.7257  15.9388 H              1 RES1               0.0000
     25 H25         -9.5119  -4.4681  17.2717 H              1 RES1               0.0000
     26 H26         -8.9180  -5.0544  15.7197 H              1 RES1               0.0000
     27 H27         -9.8627 -11.6058  16.5709 H              1 RES1               0.0000
     28 H28         -8.5575 -10.8163  20.5525 H              1 RES1               0.0000
     29 H29         -9.3491 -12.4073  18.8448 H              1 RES1               0.0000
@<TRIPOS>BOND
    1    1    2 1     
    2    1    3 1     
    3    1    4 1     
    4    1    5 1     
    5    2    6 ar    
    6    2    7 ar    
    7    3    8 1     
    8    3    9 2     
    9    4   10 1     
   10    4   11 2     
   11    5   12 1     
   12    5   18 1     
   13    5   19 1     
   14    6   13 ar    
   15    6   20 1     
   16    7   14 ar    
   17    7   21 1     
   18    8   15 1     
   19    8   22 1     
   20   10   15 1     
   21   10   23 1     
   22   12   24 1     
   23   12   25 1     
   24   12   26 1     
   25   13   16 ar    
   26   13   27 1     
   27   14   16 ar    
   28   14   28 1     
   29   15   17 2     
   30   16   29 1     
@<TRIPOS>SUBSTRUCTURE
      1 RES1           1
@<TRIPOS>SET
DONOR_HYDROGENS      STATIC     ATOMS    <user>   **** ""
2 22 23
ATOM$RED        STATIC     ATOMS    COLORGROUP SYSTEM
2 22 23
@<TRIPOS>COMMENT
> <Gold.Version>
2022.3.0

> <Gold.Id.Protein>
unknown|3ovv_clean|pdb

> <Gold.Protein.RotatedTorsions>
[  602  597  595  592 ] final   76.82 input   59.96 | X-H torsion
[  622  617  616  613 ] final  -16.19 input   59.98 | X-H torsion
[ 2560 2551 2550 2548 ] final   63.88 input   59.99 | X-H torsion
[ 2635 2624 2623 2622 ] final -133.89 input   60.00 | X-H torsion
[ 1835 1828 1827 1825 ] final   81.29 input   60.01 | X-H torsion
[ 5212 5203 5202 5200 ] final   67.87 input   59.98 | X-H torsion

> <Gold.Protein.ActiveResidues>
 THR48   LEU49   GLY50   THR51   GLY52   SER53   PHE54   GLY55   ARG56   VAL57  
 MET58   LEU59   VAL60   HIS68   TYR69   ALA70   MET71   LYS72   ILE73   LEU74  
 ASP75   LYS78   VAL79   LEU82   GLN84   THR88   GLU91   LEU95   VAL104  LYS105 
 LEU106  MET118  VAL119  MET120  GLU121  TYR122  VAL123  PRO124  GLY125  GLY126 
 GLU127  TYR164  ASP166  LYS168  GLU170  ASN171  LEU172  LEU173  ILE174  ASP175 
 GLN181  VAL182  THR183  ASP184  PHE185  GLY186  PHE187  PHE327  TYR330 

> <Gold.Protein.RotatedAtoms>
   -5.7329   -1.5836   14.3394 H   0  0  0  0  0  0  0  0  0  0  0  0  # atno 602  bound_to 597 
   -7.1725    1.6355   20.2163 H   0  0  0  0  0  0  0  0  0  0  0  0  # atno 622  bound_to 617 
   -6.2135  -16.5215    9.3283 H   0  0  0  0  0  0  0  0  0  0  0  0  # atno 1835 bound_to 1828
  -16.1280   -9.1830   22.5398 H   0  0  0  0  0  0  0  0  0  0  0  0  # atno 2560 bound_to 2551
  -13.8943   -1.2566   18.6125 H   0  0  0  0  0  0  0  0  0  0  0  0  # atno 2635 bound_to 2624
  -15.3508   -0.4735   18.7165 H   0  0  0  0  0  0  0  0  0  0  0  0  # atno 2636 bound_to 2624
  -14.6505   -1.1061   20.0791 H   0  0  0  0  0  0  0  0  0  0  0  0  # atno 2637 bound_to 2624
   -8.5843   -5.4895   11.4486 H   0  0  0  0  0  0  0  0  0  0  0  0  # atno 5212 bound_to 5203
   -5.8719   -2.8538   13.3318 LP  0  0  0  0  0  0  0  0  0  0  0  0  # atno 5531 bound_to 597 
   -4.7851   -1.6755   13.0199 LP  0  0  0  0  0  0  0  0  0  0  0  0  # atno 5532 bound_to 597 
   -7.3549    2.7653   21.3731 LP  0  0  0  0  0  0  0  0  0  0  0  0  # atno 5535 bound_to 617 
   -7.5912    1.1880   21.7238 LP  0  0  0  0  0  0  0  0  0  0  0  0  # atno 5536 bound_to 617 
  -15.4640   -7.7652   22.9829 LP  0  0  0  0  0  0  0  0  0  0  0  0  # atno 5569 bound_to 2551
  -16.8557   -7.7868   22.1290 LP  0  0  0  0  0  0  0  0  0  0  0  0  # atno 5570 bound_to 2551
   -7.7936  -16.2593    9.6178 LP  0  0  0  0  0  0  0  0  0  0  0  0  # atno 5599 bound_to 1828
   -7.3090  -17.6537    8.9196 LP  0  0  0  0  0  0  0  0  0  0  0  0  # atno 5600 bound_to 1828

> <Gold.Score>
     Fitness  S(hb_ext) S(vdw_ext)  S(hb_int)    S(int)      intcor
     42.74       0.05      32.64       0.00      -2.19      -0.76

> <Gold.Goldscore.Fitness>
42.7372

> <Gold.Goldscore.Internal.Vdw>
-2.5441

> <Gold.Goldscore.Internal.Torsion>
-0.3997

> <Gold.Goldscore.External.Vdw>
32.6357

> <Gold.Goldscore.Internal.HBond>
0.0000

> <Gold.Goldscore.External.HBond>
0.0483

> <Gold.Goldscore.Internal.Correction>
-0.7585

> <Gold.Goldscore.Hbonds>
donor molecule, donor type, donor heavy atom, donor atom, acceptor molecule, acceptor atom, score
      L1  H    10    23       P1   587  0.02

> <Gold.Goldscore.Internal.Vdw.Weighted>
-2.5441

> <Gold.Goldscore.Internal.Torsion.Weighted>
-0.3997

> <Gold.Goldscore.External.Vdw.Weighted>
44.8741

> <Gold.Goldscore.Internal.HBond.Weighted>
0.0000

> <Gold.Goldscore.External.HBond.Weighted>
0.0483

> <Gold.Goldscore.Internal.Correction.Weighted>
-0.7585

> <Gold.Rescore>
     Score     S(PLP)   S(hbond)     S(cho)   S(metal)  DE(clash)   DE(tors)     intcor
     47.66     -49.35       0.06       0.00       0.00       1.22       0.32       ----

> <Gold.PLP.Fitness>
47.6577

> <Gold.PLP.PLP>
-49.3479

> <Gold.PLP.part.hbond>
-1.0000

> <Gold.PLP.part.metal>
0.0000

> <Gold.PLP.part.buried>
-4.3464

> <Gold.PLP.part.nonpolar>
-45.0966

> <Gold.PLP.part.repulsive>
0.5765

> <Gold.PLP.ligand.clash>
1.2216

> <Gold.PLP.ligand.torsion>
0.3218

> <Gold.PLP.Chemscore.Hbond>
0.0583

> <Gold.PLP.Chemscore.CHOScore>
0.0000

> <Gold.PLP.Chemscore.Metal>
0.0000

> <Gold.PLP.Chemscore.Internal.Correction>
   9.000000E+99

