#       Name:                example_1
#       Creating user name   hitesit
#       Creation time:       Mon Nov  6 23:22:39 2023


#       File generated by GOLD software.
#

@<TRIPOS>MOLECULE
example_1|example_1_prep|mol2|1|dock1
    55    58     1
SMALL
NO_CHARGES


@<TRIPOS>ATOM
      1 O1          19.8928 -29.3996  48.5582 O.3            1 RES1               0.0000
      2 C2          20.4569 -29.8810  47.4033 C.ar           1 RES1               0.0000
      3 C3          20.6411 -29.5145  49.7655 C.3            1 RES1               0.0000
      4 C4          19.5644 -30.2231  46.3764 C.ar           1 RES1               0.0000
      5 C5          21.8319 -30.0378  47.1982 C.ar           1 RES1               0.0000
      6 C6          19.6919 -29.2839  50.9276 C.3            1 RES1               0.0000
      7 O7          18.2327 -30.0341  46.6419 O.3            1 RES1               0.0000
      8 C8          20.0721 -30.7239  45.1760 C.ar           1 RES1               0.0000
      9 C9          22.3485 -30.5312  46.0072 C.ar           1 RES1               0.0000
     10 C10         17.3080 -30.2424  45.5845 C.3            1 RES1               0.0000
     11 C11         21.4681 -30.8928  44.9821 C.ar           1 RES1               0.0000
     12 N12         23.6744 -30.6344  45.8922 N.ar           1 RES1               0.0000
     13 C13         22.0703 -31.3972  43.8137 C.ar           1 RES1               0.0000
     14 C14         24.1558 -31.1017  44.7322 C.ar           1 RES1               0.0000
     15 N15         23.4057 -31.4718  43.6852 N.ar           1 RES1               0.0000
     16 N16         21.2818 -31.7920  42.7360 N.pl3          1 RES1               0.0000
     17 C17         25.6421 -31.1742  44.5778 C.3            1 RES1               0.0000
     18 C18         21.7081 -32.8623  41.8452 C.3            1 RES1               0.0000
     19 C19         21.2041 -34.1895  42.3957 C.ar           1 RES1               0.0000
     20 C20         21.1973 -32.5439  40.4353 C.3            1 RES1               0.0000
     21 C21         22.0520 -35.1294  43.0132 C.ar           1 RES1               0.0000
     22 C22         19.8507 -34.5183  42.2376 C.ar           1 RES1               0.0000
     23 C23         21.5708 -36.3606  43.4931 C.ar           1 RES1               0.0000
     24 C24         19.3552 -35.7330  42.7032 C.ar           1 RES1               0.0000
     25 C25         22.4612 -37.3286  44.1377 C.2            1 RES1               0.0000
     26 C26         20.2081 -36.6441  43.3279 C.ar           1 RES1               0.0000
     27 C27         22.1837 -38.3681  44.9281 C.2            1 RES1               0.0000
     28 C28         23.9450 -37.3442  44.0205 C.3            1 RES1               0.0000
     29 N29         23.2970 -39.0481  45.3402 N.2            1 RES1               0.0000
     30 N30         24.3314 -38.5108  44.8571 N.2            1 RES1               0.0000
     31 H1          21.0780 -30.5095  49.8366 H              1 RES1               0.0000
     32 H2          21.4338 -28.7680  49.7817 H              1 RES1               0.0000
     33 H3          22.5188 -29.7645  47.9977 H              1 RES1               0.0000
     34 H4          20.2394 -29.3661  51.8654 H              1 RES1               0.0000
     35 H5          18.8997 -30.0308  50.9030 H              1 RES1               0.0000
     36 H6          19.2556 -28.2892  50.8481 H              1 RES1               0.0000
     37 H7          19.3848 -30.9897  44.3742 H              1 RES1               0.0000
     38 H8          16.2972 -30.0557  45.9442 H              1 RES1               0.0000
     39 H9          17.3841 -31.2702  45.2329 H              1 RES1               0.0000
     40 H10         17.5335 -29.5610  44.7655 H              1 RES1               0.0000
     41 H11         20.3956 -31.3263  42.5686 H              1 RES1               0.0000
     42 H12         25.8859 -31.5698  43.5929 H              1 RES1               0.0000
     43 H13         26.0552 -31.8284  45.3441 H              1 RES1               0.0000
     44 H14         26.0672 -30.1773  44.6839 H              1 RES1               0.0000
     45 H15         22.7967 -32.8850  41.8242 H              1 RES1               0.0000
     46 H16         21.5984 -31.5846  40.1118 H              1 RES1               0.0000
     47 H17         20.1093 -32.4977  40.4452 H              1 RES1               0.0000
     48 H18         21.5212 -33.3234  39.7472 H              1 RES1               0.0000
     49 H19         23.1102 -34.8962  43.1220 H              1 RES1               0.0000
     50 H20         19.1796 -33.8160  41.7453 H              1 RES1               0.0000
     51 H21         18.3001 -35.9728  42.5798 H              1 RES1               0.0000
     52 H22         19.8090 -37.5895  43.6925 H              1 RES1               0.0000
     53 H23         21.1712 -38.6471  45.2162 H              1 RES1               0.0000
     54 H24         24.3785 -36.4234  44.4080 H              1 RES1               0.0000
     55 H25         24.2550 -37.4841  42.9859 H              1 RES1               0.0000
@<TRIPOS>BOND
    1    1    2 1     
    2    1    3 1     
    3    2    4 ar    
    4    2    5 ar    
    5    3    6 1     
    6    4    7 1     
    7    4    8 ar    
    8    5    9 ar    
    9    7   10 1     
   10    8   11 ar    
   11    9   12 ar    
   12   11   13 ar    
   13   12   14 ar    
   14   13   15 ar    
   15   13   16 1     
   16   14   17 1     
   17   16   18 1     
   18   18   19 1     
   19   18   20 1     
   20   19   21 ar    
   21   19   22 ar    
   22   21   23 ar    
   23   22   24 ar    
   24   23   25 1     
   25   23   26 ar    
   26   25   27 2     
   27   25   28 1     
   28   27   29 1     
   29   28   30 1     
   30    9   11 ar    
   31   14   15 ar    
   32   24   26 ar    
   33   29   30 2     
   34    3   31 1     
   35    3   32 1     
   36    5   33 1     
   37    6   34 1     
   38    6   35 1     
   39    6   36 1     
   40    8   37 1     
   41   10   38 1     
   42   10   39 1     
   43   10   40 1     
   44   16   41 1     
   45   17   42 1     
   46   17   43 1     
   47   17   44 1     
   48   18   45 1     
   49   20   46 1     
   50   20   47 1     
   51   20   48 1     
   52   21   49 1     
   53   22   50 1     
   54   24   51 1     
   55   26   52 1     
   56   27   53 1     
   57   28   54 1     
   58   28   55 1     
@<TRIPOS>SUBSTRUCTURE
      1 RES1           1
@<TRIPOS>SET
DONOR_HYDROGENS      STATIC     ATOMS    <user>   **** ""
1 41
ATOM$RED        STATIC     ATOMS    COLORGROUP SYSTEM
1 41
@<TRIPOS>COMMENT
> <Gold.Version>
2022.3.0

> <Gold.Id.Protein>
unknown|5ovf_clean|pdb

> <Gold.Protein.ActiveResidues>
 ILE839  VAL852  ILE856  LEU859  VAL871  LEU872  GLU873  VAL874  VAL875  SER876 
 ALA877  MET878  ASN879  SER880  SER881  PRO882  VAL883  TYR884  ARG885  LEU886 
 ASP887  HIS888  THR889  PHE890  GLU891  GLN892  ILE893  PRO894  SER895  ARG896 
 GLN897  LYS898  LYS899  ILE900  LEU901  GLU902  GLU903  ALA904  HIS905  GLU906 
 LEU907  SER908  GLU909  LYS914  GLU836  ILE839  VAL852  ILE855  ILE856  LEU859 
 GLN863  VAL871  LEU872  VAL874  VAL875  SER876  ALA877  MET878  ASN879  SER880 
 SER881  PRO882  VAL883  TYR884  ARG885  LEU886  ASP887  HIS888  THR889  PHE890 
 GLU891  GLN892  ILE893  PRO894  SER895  ARG896  GLN897  LYS898  LYS899  ILE900 
 LEU901  GLU902  GLU903  ALA904  HIS905  GLU906  LEU907  SER908  GLU909  ASP910 
 LYS914 

> <Gold.Score>
     Fitness  S(hb_ext) S(vdw_ext)  S(hb_int)    S(int)      intcor
     78.61       0.82      59.49       0.00      -4.00      -9.25

> <Gold.Goldscore.Fitness>
78.6130

> <Gold.Goldscore.Internal.Vdw>
-8.3167

> <Gold.Goldscore.Internal.Torsion>
-4.9405

> <Gold.Goldscore.External.Vdw>
59.4886

> <Gold.Goldscore.Internal.HBond>
0.0000

> <Gold.Goldscore.External.HBond>
0.8186

> <Gold.Goldscore.Internal.Correction>
-9.2548

> <Gold.Goldscore.Reference.RMSD>
0.7782

> <Gold.Goldscore.Hbonds>
donor molecule, donor type, donor heavy atom, donor atom, acceptor molecule, acceptor atom, score
      L1  H    16    41       P1  2553  0.41

> <Gold.Goldscore.Internal.Vdw.Weighted>
-8.3167

> <Gold.Goldscore.Internal.Torsion.Weighted>
-4.9405

> <Gold.Goldscore.External.Vdw.Weighted>
81.7968

> <Gold.Goldscore.Internal.HBond.Weighted>
0.0000

> <Gold.Goldscore.External.HBond.Weighted>
0.8186

> <Gold.Goldscore.Internal.Correction.Weighted>
-9.2548

> <Gold.Rescore>
     Score         DG    S(hbond)    S(metal)    S(lipo)     H(rot)  DE(clash)    DE(int)     intcor
     33.12     -34.53       0.95        0.00     256.72       1.63       0.02       1.38       ----

> <Gold.Chemscore.Fitness>
33.1243

> <Gold.Chemscore.DG>
-34.5293

> <Gold.Chemscore.ZeroCoef>
-5.4800

> <Gold.Chemscore.Hbond>
0.9534

> <Gold.Chemscore.Metal>
0.0000

> <Gold.Chemscore.Lipo>
256.7206

> <Gold.Chemscore.Internal_Hbond>
0.0000

> <Gold.Chemscore.DEClash>
0.0223

> <Gold.Chemscore.DEInternal>
1.3828

> <Gold.Chemscore.Rot>
1.6294

> <Gold.Chemscore.Internal.Correction>
   9.000000E+99

> <Gold.Chemscore.Reference.RMSD>
0.0000

> <Gold.Chemscore.Hbonds>
donor molecule, donor type, donor heavy atom, donor atom, acceptor molecule, acceptor atom, score
      L1  H    16    41       P1  2553  0.73

> <Gold.Chemscore.Hbond.Weighted>
-3.1843

> <Gold.Chemscore.Metal.Weighted>
-0.0000

> <Gold.Chemscore.Lipo.Weighted>
-30.0363

> <Gold.Chemscore.Internal_Hbond.Weighted>
0.0000

> <Gold.Chemscore.DEClash.Weighted>
0.0223

> <Gold.Chemscore.DEInternal.Weighted>
1.3828

> <Gold.Chemscore.Rot.Weighted>
4.1713

> <Gold.Chemscore.Internal.Correction.Weighted>
   9.000000E+99

> <Gold.Reference.RMSD>
0.7782

#       Name:                example_1
#       Creating user name   hitesit
#       Creation time:       Mon Nov  6 23:23:01 2023


#       File generated by GOLD software.
#

@<TRIPOS>MOLECULE
example_1|example_1_prep|mol2|1|dock4
    55    58     1
SMALL
NO_CHARGES


@<TRIPOS>ATOM
      1 O1          20.0158 -29.5727  48.6604 O.3            1 RES1               0.0000
      2 C2          20.5572 -30.0110  47.4778 C.ar           1 RES1               0.0000
      3 C3          20.7897 -28.6823  49.4599 C.3            1 RES1               0.0000
      4 C4          19.6460 -30.2966  46.4501 C.ar           1 RES1               0.0000
      5 C5          21.9269 -30.1771  47.2464 C.ar           1 RES1               0.0000
      6 C6          19.8798 -28.1023  50.5279 C.3            1 RES1               0.0000
      7 O7          18.3208 -30.1016  46.7426 O.3            1 RES1               0.0000
      8 C8          20.1300 -30.7516  45.2221 C.ar           1 RES1               0.0000
      9 C9          22.4201 -30.6252  46.0279 C.ar           1 RES1               0.0000
     10 C10         17.3795 -30.2437  45.6889 C.3            1 RES1               0.0000
     11 C11         21.5208 -30.9304  45.0009 C.ar           1 RES1               0.0000
     12 N12         23.7428 -30.7409  45.8895 N.ar           1 RES1               0.0000
     13 C13         22.0998 -31.3917  43.8034 C.ar           1 RES1               0.0000
     14 C14         24.2016 -31.1639  44.7037 C.ar           1 RES1               0.0000
     15 N15         23.4321 -31.4784  43.6526 N.ar           1 RES1               0.0000
     16 N16         21.2910 -31.7291  42.7211 N.pl3          1 RES1               0.0000
     17 C17         25.6845 -31.2492  44.5248 C.3            1 RES1               0.0000
     18 C18         21.6483 -32.8225  41.8281 C.3            1 RES1               0.0000
     19 C19         21.0844 -34.1203  42.3905 C.ar           1 RES1               0.0000
     20 C20         21.1341 -32.4820  40.4246 C.3            1 RES1               0.0000
     21 C21         21.8925 -35.1044  42.9923 C.ar           1 RES1               0.0000
     22 C22         19.7123 -34.3755  42.2600 C.ar           1 RES1               0.0000
     23 C23         21.3551 -36.3076  43.4836 C.ar           1 RES1               0.0000
     24 C24         19.1613 -35.5614  42.7371 C.ar           1 RES1               0.0000
     25 C25         22.2047 -37.3220  44.1117 C.2            1 RES1               0.0000
     26 C26         19.9761 -36.5171  43.3460 C.ar           1 RES1               0.0000
     27 C27         21.8807 -38.3914  44.8423 C.2            1 RES1               0.0000
     28 C28         23.6911 -37.3618  44.0443 C.3            1 RES1               0.0000
     29 N29         22.9663 -39.1119  45.2596 N.2            1 RES1               0.0000
     30 N30         24.0266 -38.5736  44.8377 N.2            1 RES1               0.0000
     31 H1          21.6106 -29.2239  49.9276 H              1 RES1               0.0000
     32 H2          21.1897 -27.8814  48.8400 H              1 RES1               0.0000
     33 H3          22.6285 -29.9477  48.0469 H              1 RES1               0.0000
     34 H4          20.4474 -27.4163  51.1549 H              1 RES1               0.0000
     35 H5          19.4801 -28.9085  51.1413 H              1 RES1               0.0000
     36 H6          19.0593 -27.5660  50.0536 H              1 RES1               0.0000
     37 H7          19.4281 -30.9734  44.4196 H              1 RES1               0.0000
     38 H8          16.3764 -30.0604  46.0710 H              1 RES1               0.0000
     39 H9          17.4355 -31.2538  45.2859 H              1 RES1               0.0000
     40 H10         17.6048 -29.5258  44.9017 H              1 RES1               0.0000
     41 H11         20.4387 -31.2045  42.5520 H              1 RES1               0.0000
     42 H12         25.9091 -31.6050  43.5204 H              1 RES1               0.0000
     43 H13         26.0991 -31.9414  45.2563 H              1 RES1               0.0000
     44 H14         26.1247 -30.2635  44.6676 H              1 RES1               0.0000
     45 H15         22.7338 -32.9015  41.7915 H              1 RES1               0.0000
     46 H16         21.5796 -31.5456  40.0920 H              1 RES1               0.0000
     47 H17         20.0503 -32.3795  40.4501 H              1 RES1               0.0000
     48 H18         21.4072 -33.2791  39.7347 H              1 RES1               0.0000
     49 H19         22.9637 -34.9287  43.0797 H              1 RES1               0.0000
     50 H20         19.0705 -33.6381  41.7801 H              1 RES1               0.0000
     51 H21         18.0925 -35.7439  42.6351 H              1 RES1               0.0000
     52 H22         19.5338 -37.4393  43.7199 H              1 RES1               0.0000
     53 H23         20.8538 -38.6632  45.0825 H              1 RES1               0.0000
     54 H24         24.1276 -36.4688  44.4893 H              1 RES1               0.0000
     55 H25         24.0343 -37.4597  43.0154 H              1 RES1               0.0000
@<TRIPOS>BOND
    1    1    2 1     
    2    1    3 1     
    3    2    4 ar    
    4    2    5 ar    
    5    3    6 1     
    6    4    7 1     
    7    4    8 ar    
    8    5    9 ar    
    9    7   10 1     
   10    8   11 ar    
   11    9   12 ar    
   12   11   13 ar    
   13   12   14 ar    
   14   13   15 ar    
   15   13   16 1     
   16   14   17 1     
   17   16   18 1     
   18   18   19 1     
   19   18   20 1     
   20   19   21 ar    
   21   19   22 ar    
   22   21   23 ar    
   23   22   24 ar    
   24   23   25 1     
   25   23   26 ar    
   26   25   27 2     
   27   25   28 1     
   28   27   29 1     
   29   28   30 1     
   30    9   11 ar    
   31   14   15 ar    
   32   24   26 ar    
   33   29   30 2     
   34    3   31 1     
   35    3   32 1     
   36    5   33 1     
   37    6   34 1     
   38    6   35 1     
   39    6   36 1     
   40    8   37 1     
   41   10   38 1     
   42   10   39 1     
   43   10   40 1     
   44   16   41 1     
   45   17   42 1     
   46   17   43 1     
   47   17   44 1     
   48   18   45 1     
   49   20   46 1     
   50   20   47 1     
   51   20   48 1     
   52   21   49 1     
   53   22   50 1     
   54   24   51 1     
   55   26   52 1     
   56   27   53 1     
   57   28   54 1     
   58   28   55 1     
@<TRIPOS>SUBSTRUCTURE
      1 RES1           1
@<TRIPOS>SET
DONOR_HYDROGENS      STATIC     ATOMS    <user>   **** ""
1 41
ATOM$RED        STATIC     ATOMS    COLORGROUP SYSTEM
1 41
@<TRIPOS>COMMENT
> <Gold.Version>
2022.3.0

> <Gold.Id.Protein>
unknown|5ovf_clean|pdb

> <Gold.Protein.ActiveResidues>
 ILE839  VAL852  ILE856  LEU859  VAL871  LEU872  GLU873  VAL874  VAL875  SER876 
 ALA877  MET878  ASN879  SER880  SER881  PRO882  VAL883  TYR884  ARG885  LEU886 
 ASP887  HIS888  THR889  PHE890  GLU891  GLN892  ILE893  PRO894  SER895  ARG896 
 GLN897  LYS898  LYS899  ILE900  LEU901  GLU902  GLU903  ALA904  HIS905  GLU906 
 LEU907  SER908  GLU909  LYS914  GLU836  ILE839  VAL852  ILE855  ILE856  LEU859 
 GLN863  VAL871  LEU872  VAL874  VAL875  SER876  ALA877  MET878  ASN879  SER880 
 SER881  PRO882  VAL883  TYR884  ARG885  LEU886  ASP887  HIS888  THR889  PHE890 
 GLU891  GLN892  ILE893  PRO894  SER895  ARG896  GLN897  LYS898  LYS899  ILE900 
 LEU901  GLU902  GLU903  ALA904  HIS905  GLU906  LEU907  SER908  GLU909  ASP910 
 LYS914 

> <Gold.Score>
     Fitness  S(hb_ext) S(vdw_ext)  S(hb_int)    S(int)      intcor
     77.68       0.47      58.95       0.00      -3.84      -8.84

> <Gold.Goldscore.Fitness>
77.6830

> <Gold.Goldscore.Internal.Vdw>
-7.5606

> <Gold.Goldscore.Internal.Torsion>
-5.1173

> <Gold.Goldscore.External.Vdw>
58.9494

> <Gold.Goldscore.Internal.HBond>
0.0000

> <Gold.Goldscore.External.HBond>
0.4673

> <Gold.Goldscore.Internal.Correction>
-8.8381

> <Gold.Goldscore.Reference.RMSD>
0.6994

> <Gold.Goldscore.Hbonds>
donor molecule, donor type, donor heavy atom, donor atom, acceptor molecule, acceptor atom, score
      L1  H    16    41       P1  2553  0.23

> <Gold.Goldscore.Internal.Vdw.Weighted>
-7.5606

> <Gold.Goldscore.Internal.Torsion.Weighted>
-5.1173

> <Gold.Goldscore.External.Vdw.Weighted>
81.0554

> <Gold.Goldscore.Internal.HBond.Weighted>
0.0000

> <Gold.Goldscore.External.HBond.Weighted>
0.4673

> <Gold.Goldscore.Internal.Correction.Weighted>
-8.8381

> <Gold.Rescore>
     Score         DG    S(hbond)    S(metal)    S(lipo)     H(rot)  DE(clash)    DE(int)     intcor
     32.73     -34.85       0.89        0.00     261.11       1.63       0.64       1.48       ----

> <Gold.Chemscore.Fitness>
32.7300

> <Gold.Chemscore.DG>
-34.8477

> <Gold.Chemscore.ZeroCoef>
-5.4800

> <Gold.Chemscore.Hbond>
0.8948

> <Gold.Chemscore.Metal>
0.0000

> <Gold.Chemscore.Lipo>
261.1140

> <Gold.Chemscore.Internal_Hbond>
0.0000

> <Gold.Chemscore.DEClash>
0.6391

> <Gold.Chemscore.DEInternal>
1.4786

> <Gold.Chemscore.Rot>
1.6294

> <Gold.Chemscore.Internal.Correction>
   9.000000E+99

> <Gold.Chemscore.Reference.RMSD>
0.0000

> <Gold.Chemscore.Hbonds>
donor molecule, donor type, donor heavy atom, donor atom, acceptor molecule, acceptor atom, score
      L1  H    16    41       P1  2553  0.51

> <Gold.Chemscore.Hbond.Weighted>
-2.9887

> <Gold.Chemscore.Metal.Weighted>
-0.0000

> <Gold.Chemscore.Lipo.Weighted>
-30.5503

> <Gold.Chemscore.Internal_Hbond.Weighted>
0.0000

> <Gold.Chemscore.DEClash.Weighted>
0.6391

> <Gold.Chemscore.DEInternal.Weighted>
1.4786

> <Gold.Chemscore.Rot.Weighted>
4.1713

> <Gold.Chemscore.Internal.Correction.Weighted>
   9.000000E+99

> <Gold.Reference.RMSD>
0.6994

#       Name:                example_1
#       Creating user name   hitesit
#       Creation time:       Mon Nov  6 23:23:36 2023


#       File generated by GOLD software.
#

@<TRIPOS>MOLECULE
example_1|example_1_prep|mol2|1|dock9
    55    58     1
SMALL
NO_CHARGES


@<TRIPOS>ATOM
      1 O1          19.9760 -29.4784  48.5849 O.3            1 RES1               0.0000
      2 C2          20.5369 -29.9344  47.4182 C.ar           1 RES1               0.0000
      3 C3          20.7596 -29.5445  49.7734 C.3            1 RES1               0.0000
      4 C4          19.6423 -30.2429  46.3826 C.ar           1 RES1               0.0000
      5 C5          21.9107 -30.0968  47.2097 C.ar           1 RES1               0.0000
      6 C6          19.8354 -29.3166  50.9561 C.3            1 RES1               0.0000
      7 O7          18.3120 -30.0502  46.6524 O.3            1 RES1               0.0000
      8 C8          20.1467 -30.7167  45.1699 C.ar           1 RES1               0.0000
      9 C9          22.4241 -30.5634  46.0065 C.ar           1 RES1               0.0000
     10 C10         17.3821 -30.2691  45.6017 C.3            1 RES1               0.0000
     11 C11         21.5414 -30.8915  44.9722 C.ar           1 RES1               0.0000
     12 N12         23.7492 -30.6741  45.8894 N.ar           1 RES1               0.0000
     13 C13         22.1403 -31.3705  43.7915 C.ar           1 RES1               0.0000
     14 C14         24.2275 -31.1152  44.7180 C.ar           1 RES1               0.0000
     15 N15         23.4752 -31.4524  43.6616 N.ar           1 RES1               0.0000
     16 N16         21.3493 -31.7312  42.7037 N.pl3          1 RES1               0.0000
     17 C17         25.7134 -31.1955  44.5623 C.3            1 RES1               0.0000
     18 C18         21.7268 -32.8363  41.8336 C.3            1 RES1               0.0000
     19 C19         21.1899 -34.1327  42.4251 C.ar           1 RES1               0.0000
     20 C20         21.2036 -32.5366  40.4242 C.3            1 RES1               0.0000
     21 C21         22.0210 -35.0962  43.0289 C.ar           1 RES1               0.0000
     22 C22         19.8196 -34.4084  42.3207 C.ar           1 RES1               0.0000
     23 C23         21.5082 -36.2987  43.5474 C.ar           1 RES1               0.0000
     24 C24         19.2926 -35.5941  42.8250 C.ar           1 RES1               0.0000
     25 C25         22.3815 -37.2915  44.1773 C.2            1 RES1               0.0000
     26 C26         20.1301 -36.5289  43.4354 C.ar           1 RES1               0.0000
     27 C27         22.0835 -38.3595  44.9209 C.2            1 RES1               0.0000
     28 C28         23.8678 -37.3051  44.0968 C.3            1 RES1               0.0000
     29 N29         23.1857 -39.0563  45.3350 N.2            1 RES1               0.0000
     30 N30         24.2322 -38.5029  44.8984 N.2            1 RES1               0.0000
     31 H1          21.2281 -30.5243  49.8535 H              1 RES1               0.0000
     32 H2          21.5295 -28.7747  49.7520 H              1 RES1               0.0000
     33 H3          22.5993 -29.8495  48.0162 H              1 RES1               0.0000
     34 H4          20.4101 -29.3620  51.8799 H              1 RES1               0.0000
     35 H5          19.0657 -30.0870  50.9690 H              1 RES1               0.0000
     36 H6          19.3673 -28.3373  50.8675 H              1 RES1               0.0000
     37 H7          19.4578 -30.9563  44.3613 H              1 RES1               0.0000
     38 H8          16.3732 -30.0780  45.9642 H              1 RES1               0.0000
     39 H9          17.4560 -31.3006  45.2606 H              1 RES1               0.0000
     40 H10         17.6041 -29.5965  44.7745 H              1 RES1               0.0000
     41 H11         20.4958 -31.2156  42.5141 H              1 RES1               0.0000
     42 H12         25.9545 -31.5675  43.5676 H              1 RES1               0.0000
     43 H13         26.1208 -31.8724  45.3117 H              1 RES1               0.0000
     44 H14         26.1462 -30.2050  44.6941 H              1 RES1               0.0000
     45 H15         22.8136 -32.8945  41.7964 H              1 RES1               0.0000
     46 H16         21.6297 -31.5988  40.0705 H              1 RES1               0.0000
     47 H17         20.1179 -32.4551  40.4498 H              1 RES1               0.0000
     48 H18         21.4913 -33.3427  39.7511 H              1 RES1               0.0000
     49 H19         23.0909 -34.9047  43.0962 H              1 RES1               0.0000
     50 H20         19.1601 -33.6874  41.8399 H              1 RES1               0.0000
     51 H21         18.2250 -35.7926  42.7431 H              1 RES1               0.0000
     52 H22         19.7066 -37.4511  43.8306 H              1 RES1               0.0000
     53 H23         21.0639 -38.6475  45.1729 H              1 RES1               0.0000
     54 H24         24.2919 -36.4002  44.5293 H              1 RES1               0.0000
     55 H25         24.2035 -37.4066  43.0658 H              1 RES1               0.0000
@<TRIPOS>BOND
    1    1    2 1     
    2    1    3 1     
    3    2    4 ar    
    4    2    5 ar    
    5    3    6 1     
    6    4    7 1     
    7    4    8 ar    
    8    5    9 ar    
    9    7   10 1     
   10    8   11 ar    
   11    9   12 ar    
   12   11   13 ar    
   13   12   14 ar    
   14   13   15 ar    
   15   13   16 1     
   16   14   17 1     
   17   16   18 1     
   18   18   19 1     
   19   18   20 1     
   20   19   21 ar    
   21   19   22 ar    
   22   21   23 ar    
   23   22   24 ar    
   24   23   25 1     
   25   23   26 ar    
   26   25   27 2     
   27   25   28 1     
   28   27   29 1     
   29   28   30 1     
   30    9   11 ar    
   31   14   15 ar    
   32   24   26 ar    
   33   29   30 2     
   34    3   31 1     
   35    3   32 1     
   36    5   33 1     
   37    6   34 1     
   38    6   35 1     
   39    6   36 1     
   40    8   37 1     
   41   10   38 1     
   42   10   39 1     
   43   10   40 1     
   44   16   41 1     
   45   17   42 1     
   46   17   43 1     
   47   17   44 1     
   48   18   45 1     
   49   20   46 1     
   50   20   47 1     
   51   20   48 1     
   52   21   49 1     
   53   22   50 1     
   54   24   51 1     
   55   26   52 1     
   56   27   53 1     
   57   28   54 1     
   58   28   55 1     
@<TRIPOS>SUBSTRUCTURE
      1 RES1           1
@<TRIPOS>SET
DONOR_HYDROGENS      STATIC     ATOMS    <user>   **** ""
1 41
ATOM$RED        STATIC     ATOMS    COLORGROUP SYSTEM
1 41
@<TRIPOS>COMMENT
> <Gold.Version>
2022.3.0

> <Gold.Id.Protein>
unknown|5ovf_clean|pdb

> <Gold.Protein.ActiveResidues>
 ILE839  VAL852  ILE856  LEU859  VAL871  LEU872  GLU873  VAL874  VAL875  SER876 
 ALA877  MET878  ASN879  SER880  SER881  PRO882  VAL883  TYR884  ARG885  LEU886 
 ASP887  HIS888  THR889  PHE890  GLU891  GLN892  ILE893  PRO894  SER895  ARG896 
 GLN897  LYS898  LYS899  ILE900  LEU901  GLU902  GLU903  ALA904  HIS905  GLU906 
 LEU907  SER908  GLU909  LYS914  GLU836  ILE839  VAL852  ILE855  ILE856  LEU859 
 GLN863  VAL871  LEU872  VAL874  VAL875  SER876  ALA877  MET878  ASN879  SER880 
 SER881  PRO882  VAL883  TYR884  ARG885  LEU886  ASP887  HIS888  THR889  PHE890 
 GLU891  GLN892  ILE893  PRO894  SER895  ARG896  GLN897  LYS898  LYS899  ILE900 
 LEU901  GLU902  GLU903  ALA904  HIS905  GLU906  LEU907  SER908  GLU909  ASP910 
 LYS914 

> <Gold.Score>
     Fitness  S(hb_ext) S(vdw_ext)  S(hb_int)    S(int)      intcor
     77.44       0.47      59.14       0.00      -4.35      -8.15

> <Gold.Goldscore.Fitness>
77.4358

> <Gold.Goldscore.Internal.Vdw>
-7.7273

> <Gold.Goldscore.Internal.Torsion>
-4.7745

> <Gold.Goldscore.External.Vdw>
59.1427

> <Gold.Goldscore.Internal.HBond>
0.0000

> <Gold.Goldscore.External.HBond>
0.4652

> <Gold.Goldscore.Internal.Correction>
-8.1511

> <Gold.Goldscore.Reference.RMSD>
0.7757

> <Gold.Goldscore.Hbonds>
donor molecule, donor type, donor heavy atom, donor atom, acceptor molecule, acceptor atom, score
      L1  H    16    41       P1  2553  0.23

> <Gold.Goldscore.Internal.Vdw.Weighted>
-7.7273

> <Gold.Goldscore.Internal.Torsion.Weighted>
-4.7745

> <Gold.Goldscore.External.Vdw.Weighted>
81.3213

> <Gold.Goldscore.Internal.HBond.Weighted>
0.0000

> <Gold.Goldscore.External.HBond.Weighted>
0.4652

> <Gold.Goldscore.Internal.Correction.Weighted>
-8.1511

> <Gold.Rescore>
     Score         DG    S(hbond)    S(metal)    S(lipo)     H(rot)  DE(clash)    DE(int)     intcor
     32.33     -34.43       0.81        0.00     259.86       1.63       0.84       1.25       ----

> <Gold.Chemscore.Fitness>
32.3290

> <Gold.Chemscore.DG>
-34.4263

> <Gold.Chemscore.ZeroCoef>
-5.4800

> <Gold.Chemscore.Hbond>
0.8126

> <Gold.Chemscore.Metal>
0.0000

> <Gold.Chemscore.Lipo>
259.8580

> <Gold.Chemscore.Internal_Hbond>
0.0000

> <Gold.Chemscore.DEClash>
0.8449

> <Gold.Chemscore.DEInternal>
1.2524

> <Gold.Chemscore.Rot>
1.6294

> <Gold.Chemscore.Internal.Correction>
   9.000000E+99

> <Gold.Chemscore.Reference.RMSD>
0.0000

> <Gold.Chemscore.Hbonds>
donor molecule, donor type, donor heavy atom, donor atom, acceptor molecule, acceptor atom, score
      L1  H    16    41       P1  2553  0.51

> <Gold.Chemscore.Hbond.Weighted>
-2.7142

> <Gold.Chemscore.Metal.Weighted>
-0.0000

> <Gold.Chemscore.Lipo.Weighted>
-30.4034

> <Gold.Chemscore.Internal_Hbond.Weighted>
0.0000

> <Gold.Chemscore.DEClash.Weighted>
0.8449

> <Gold.Chemscore.DEInternal.Weighted>
1.2524

> <Gold.Chemscore.Rot.Weighted>
4.1713

> <Gold.Chemscore.Internal.Correction.Weighted>
   9.000000E+99

> <Gold.Reference.RMSD>
0.7757

#       Name:                example_1
#       Creating user name   hitesit
#       Creation time:       Mon Nov  6 23:23:16 2023


#       File generated by GOLD software.
#

@<TRIPOS>MOLECULE
example_1|example_1_prep|mol2|1|dock6
    55    58     1
SMALL
NO_CHARGES


@<TRIPOS>ATOM
      1 O1          19.9466 -29.3489  48.5881 O.3            1 RES1               0.0000
      2 C2          20.5067 -29.8327  47.4322 C.ar           1 RES1               0.0000
      3 C3          20.6671 -29.5263  49.8047 C.3            1 RES1               0.0000
      4 C4          19.6117 -30.1603  46.4027 C.ar           1 RES1               0.0000
      5 C5          21.8800 -30.0052  47.2286 C.ar           1 RES1               0.0000
      6 C6          19.7037 -29.2992  50.9559 C.3            1 RES1               0.0000
      7 O7          18.2820 -29.9564  46.6670 O.3            1 RES1               0.0000
      8 C8          20.1152 -30.6627  45.2013 C.ar           1 RES1               0.0000
      9 C9          22.3925 -30.5003  46.0365 C.ar           1 RES1               0.0000
     10 C10         17.3472 -30.2515  45.6395 C.3            1 RES1               0.0000
     11 C11         21.5094 -30.8475  45.0087 C.ar           1 RES1               0.0000
     12 N12         23.7173 -30.6188  45.9231 N.ar           1 RES1               0.0000
     13 C13         22.1074 -31.3548  43.8395 C.ar           1 RES1               0.0000
     14 C14         24.1948 -31.0875  44.7621 C.ar           1 RES1               0.0000
     15 N15         23.4420 -31.4448  43.7126 N.ar           1 RES1               0.0000
     16 N16         21.3158 -31.7361  42.7591 N.pl3          1 RES1               0.0000
     17 C17         25.6804 -31.1772  44.6096 C.3            1 RES1               0.0000
     18 C18         21.7109 -32.8350  41.8889 C.3            1 RES1               0.0000
     19 C19         21.1938 -34.1397  42.4798 C.ar           1 RES1               0.0000
     20 C20         21.1838 -32.5430  40.4793 C.3            1 RES1               0.0000
     21 C21         22.0411 -35.0969  43.0709 C.ar           1 RES1               0.0000
     22 C22         19.8255 -34.4297  42.3876 C.ar           1 RES1               0.0000
     23 C23         21.5463 -36.3072  43.5889 C.ar           1 RES1               0.0000
     24 C24         19.3163 -35.6232  42.8917 C.ar           1 RES1               0.0000
     25 C25         22.4365 -37.2934  44.2056 C.2            1 RES1               0.0000
     26 C26         20.1698 -36.5517  43.4895 C.ar           1 RES1               0.0000
     27 C27         22.1566 -38.3776  44.9325 C.2            1 RES1               0.0000
     28 C28         23.9229 -37.2788  44.1278 C.3            1 RES1               0.0000
     29 N29         23.2705 -39.0604  45.3383 N.2            1 RES1               0.0000
     30 N30         24.3076 -38.4817  44.9122 N.2            1 RES1               0.0000
     31 H1          21.0688 -30.5374  49.8525 H              1 RES1               0.0000
     32 H2          21.4839 -28.8083  49.8589 H              1 RES1               0.0000
     33 H3          22.5689 -29.7430  48.0301 H              1 RES1               0.0000
     34 H4          20.2299 -29.4290  51.9005 H              1 RES1               0.0000
     35 H5          18.8875 -30.0175  50.8933 H              1 RES1               0.0000
     36 H6          19.3028 -28.2883  50.8997 H              1 RES1               0.0000
     37 H7          19.4260 -30.9173  44.3975 H              1 RES1               0.0000
     38 H8          16.3393 -30.0412  45.9944 H              1 RES1               0.0000
     39 H9          17.4247 -31.3036  45.3695 H              1 RES1               0.0000
     40 H10         17.5606 -29.6361  44.7669 H              1 RES1               0.0000
     41 H11         20.4495 -31.2403  42.5751 H              1 RES1               0.0000
     42 H12         25.9209 -31.5720  43.6236 H              1 RES1               0.0000
     43 H13         26.0845 -31.8390  45.3741 H              1 RES1               0.0000
     44 H14         26.1171 -30.1858  44.7200 H              1 RES1               0.0000
     45 H15         22.7985 -32.8763  41.8523 H              1 RES1               0.0000
     46 H16         21.5956 -31.5987  40.1261 H              1 RES1               0.0000
     47 H17         20.0970 -32.4784  40.5043 H              1 RES1               0.0000
     48 H18         21.4844 -33.3444  39.8061 H              1 RES1               0.0000
     49 H19         23.1095 -34.8942  43.1285 H              1 RES1               0.0000
     50 H20         19.1536 -33.7137  41.9167 H              1 RES1               0.0000
     51 H21         18.2501 -35.8328  42.8195 H              1 RES1               0.0000
     52 H22         19.7601 -37.4801  43.8846 H              1 RES1               0.0000
     53 H23         21.1420 -38.6878  45.1782 H              1 RES1               0.0000
     54 H24         24.3298 -36.3729  44.5747 H              1 RES1               0.0000
     55 H25         24.2622 -37.3587  43.0961 H              1 RES1               0.0000
@<TRIPOS>BOND
    1    1    2 1     
    2    1    3 1     
    3    2    4 ar    
    4    2    5 ar    
    5    3    6 1     
    6    4    7 1     
    7    4    8 ar    
    8    5    9 ar    
    9    7   10 1     
   10    8   11 ar    
   11    9   12 ar    
   12   11   13 ar    
   13   12   14 ar    
   14   13   15 ar    
   15   13   16 1     
   16   14   17 1     
   17   16   18 1     
   18   18   19 1     
   19   18   20 1     
   20   19   21 ar    
   21   19   22 ar    
   22   21   23 ar    
   23   22   24 ar    
   24   23   25 1     
   25   23   26 ar    
   26   25   27 2     
   27   25   28 1     
   28   27   29 1     
   29   28   30 1     
   30    9   11 ar    
   31   14   15 ar    
   32   24   26 ar    
   33   29   30 2     
   34    3   31 1     
   35    3   32 1     
   36    5   33 1     
   37    6   34 1     
   38    6   35 1     
   39    6   36 1     
   40    8   37 1     
   41   10   38 1     
   42   10   39 1     
   43   10   40 1     
   44   16   41 1     
   45   17   42 1     
   46   17   43 1     
   47   17   44 1     
   48   18   45 1     
   49   20   46 1     
   50   20   47 1     
   51   20   48 1     
   52   21   49 1     
   53   22   50 1     
   54   24   51 1     
   55   26   52 1     
   56   27   53 1     
   57   28   54 1     
   58   28   55 1     
@<TRIPOS>SUBSTRUCTURE
      1 RES1           1
@<TRIPOS>SET
DONOR_HYDROGENS      STATIC     ATOMS    <user>   **** ""
1 41
ATOM$RED        STATIC     ATOMS    COLORGROUP SYSTEM
1 41
@<TRIPOS>COMMENT
> <Gold.Version>
2022.3.0

> <Gold.Id.Protein>
unknown|5ovf_clean|pdb

> <Gold.Protein.ActiveResidues>
 ILE839  VAL852  ILE856  LEU859  VAL871  LEU872  GLU873  VAL874  VAL875  SER876 
 ALA877  MET878  ASN879  SER880  SER881  PRO882  VAL883  TYR884  ARG885  LEU886 
 ASP887  HIS888  THR889  PHE890  GLU891  GLN892  ILE893  PRO894  SER895  ARG896 
 GLN897  LYS898  LYS899  ILE900  LEU901  GLU902  GLU903  ALA904  HIS905  GLU906 
 LEU907  SER908  GLU909  LYS914  GLU836  ILE839  VAL852  ILE855  ILE856  LEU859 
 GLN863  VAL871  LEU872  VAL874  VAL875  SER876  ALA877  MET878  ASN879  SER880 
 SER881  PRO882  VAL883  TYR884  ARG885  LEU886  ASP887  HIS888  THR889  PHE890 
 GLU891  GLN892  ILE893  PRO894  SER895  ARG896  GLN897  LYS898  LYS899  ILE900 
 LEU901  GLU902  GLU903  ALA904  HIS905  GLU906  LEU907  SER908  GLU909  ASP910 
 LYS914 

> <Gold.Score>
     Fitness  S(hb_ext) S(vdw_ext)  S(hb_int)    S(int)      intcor
     77.31       0.56      58.85       0.00      -4.17      -8.15

> <Gold.Goldscore.Fitness>
77.3107

> <Gold.Goldscore.Internal.Vdw>
-7.4143

> <Gold.Goldscore.Internal.Torsion>
-4.9026

> <Gold.Goldscore.External.Vdw>
58.8455

> <Gold.Goldscore.Internal.HBond>
0.0000

> <Gold.Goldscore.External.HBond>
0.5640

> <Gold.Goldscore.Internal.Correction>
-8.1511

> <Gold.Goldscore.Reference.RMSD>
0.7607

> <Gold.Goldscore.Hbonds>
donor molecule, donor type, donor heavy atom, donor atom, acceptor molecule, acceptor atom, score
      L1  H    16    41       P1  2553  0.28

> <Gold.Goldscore.Internal.Vdw.Weighted>
-7.4143

> <Gold.Goldscore.Internal.Torsion.Weighted>
-4.9026

> <Gold.Goldscore.External.Vdw.Weighted>
80.9125

> <Gold.Goldscore.Internal.HBond.Weighted>
0.0000

> <Gold.Goldscore.External.HBond.Weighted>
0.5640

> <Gold.Goldscore.Internal.Correction.Weighted>
-8.1511

> <Gold.Rescore>
     Score         DG    S(hbond)    S(metal)    S(lipo)     H(rot)  DE(clash)    DE(int)     intcor
     33.34     -35.43       0.89        0.00     266.37       1.63       0.86       1.23       ----

> <Gold.Chemscore.Fitness>
33.3430

> <Gold.Chemscore.DG>
-35.4323

> <Gold.Chemscore.ZeroCoef>
-5.4800

> <Gold.Chemscore.Hbond>
0.8858

> <Gold.Chemscore.Metal>
0.0000

> <Gold.Chemscore.Lipo>
266.3673

> <Gold.Chemscore.Internal_Hbond>
0.0000

> <Gold.Chemscore.DEClash>
0.8643

> <Gold.Chemscore.DEInternal>
1.2250

> <Gold.Chemscore.Rot>
1.6294

> <Gold.Chemscore.Internal.Correction>
   9.000000E+99

> <Gold.Chemscore.Reference.RMSD>
0.0000

> <Gold.Chemscore.Hbonds>
donor molecule, donor type, donor heavy atom, donor atom, acceptor molecule, acceptor atom, score
      L1  H    16    41       P1  2553  0.62

> <Gold.Chemscore.Hbond.Weighted>
-2.9586

> <Gold.Chemscore.Metal.Weighted>
-0.0000

> <Gold.Chemscore.Lipo.Weighted>
-31.1650

> <Gold.Chemscore.Internal_Hbond.Weighted>
0.0000

> <Gold.Chemscore.DEClash.Weighted>
0.8643

> <Gold.Chemscore.DEInternal.Weighted>
1.2250

> <Gold.Chemscore.Rot.Weighted>
4.1713

> <Gold.Chemscore.Internal.Correction.Weighted>
   9.000000E+99

> <Gold.Reference.RMSD>
0.7607

#       Name:                example_1
#       Creating user name   hitesit
#       Creation time:       Mon Nov  6 23:22:46 2023


#       File generated by GOLD software.
#

@<TRIPOS>MOLECULE
example_1|example_1_prep|mol2|1|dock2
    55    58     1
SMALL
NO_CHARGES


@<TRIPOS>ATOM
      1 O1          20.2245 -29.2097  48.7347 O.3            1 RES1               0.0000
      2 C2          20.7017 -29.7433  47.5637 C.ar           1 RES1               0.0000
      3 C3          21.0381 -28.2583  49.4157 C.3            1 RES1               0.0000
      4 C4          19.7364 -30.1102  46.6141 C.ar           1 RES1               0.0000
      5 C5          22.0571 -29.9292  47.2716 C.ar           1 RES1               0.0000
      6 C6          20.1869 -27.5939  50.4829 C.3            1 RES1               0.0000
      7 O7          18.4286 -29.8906  46.9622 O.3            1 RES1               0.0000
      8 C8          20.1539 -30.6641  45.4024 C.ar           1 RES1               0.0000
      9 C9          22.4843 -30.4754  46.0683 C.ar           1 RES1               0.0000
     10 C10         17.4310 -30.1222  45.9785 C.3            1 RES1               0.0000
     11 C11         21.5310 -30.8618  45.1204 C.ar           1 RES1               0.0000
     12 N12         23.7978 -30.6034  45.8673 N.ar           1 RES1               0.0000
     13 C13         22.0450 -31.4195  43.9343 C.ar           1 RES1               0.0000
     14 C14         24.1922 -31.1218  44.6963 C.ar           1 RES1               0.0000
     15 N15         23.3673 -31.5197  43.7181 N.ar           1 RES1               0.0000
     16 N16         21.1792 -31.8427  42.9290 N.pl3          1 RES1               0.0000
     17 C17         25.6634 -31.2232  44.4438 C.3            1 RES1               0.0000
     18 C18         21.5917 -32.8422  41.9535 C.3            1 RES1               0.0000
     19 C19         21.6736 -34.1972  42.6434 C.ar           1 RES1               0.0000
     20 C20         20.6042 -32.8039  40.7816 C.3            1 RES1               0.0000
     21 C21         20.5856 -34.7689  43.3312 C.ar           1 RES1               0.0000
     22 C22         22.8948 -34.8852  42.6424 C.ar           1 RES1               0.0000
     23 C23         20.6892 -36.0107  43.9830 C.ar           1 RES1               0.0000
     24 C24         23.0189 -36.1143  43.2840 C.ar           1 RES1               0.0000
     25 C25         19.5495 -36.5977  44.6915 C.2            1 RES1               0.0000
     26 C26         21.9241 -36.6725  43.9457 C.ar           1 RES1               0.0000
     27 C27         18.2395 -36.5053  44.4511 C.2            1 RES1               0.0000
     28 C28         19.6403 -37.4747  45.8907 C.3            1 RES1               0.0000
     29 N29         17.4740 -37.2045  45.3438 N.2            1 RES1               0.0000
     30 N30         18.2155 -37.7765  46.1893 N.2            1 RES1               0.0000
     31 H1          21.8860 -28.7609  49.8788 H              1 RES1               0.0000
     32 H2          21.3997 -27.5100  48.7121 H              1 RES1               0.0000
     33 H3          22.8008 -29.6364  48.0112 H              1 RES1               0.0000
     34 H4          20.7857 -26.8600  51.0201 H              1 RES1               0.0000
     35 H5          19.8253 -28.3481  51.1804 H              1 RES1               0.0000
     36 H6          19.3389 -27.0971  50.0136 H              1 RES1               0.0000
     37 H7          19.4098 -30.9494  44.6602 H              1 RES1               0.0000
     38 H8          16.4498 -29.9067  46.3988 H              1 RES1               0.0000
     39 H9          17.4691 -31.1631  45.6609 H              1 RES1               0.0000
     40 H10         17.6090 -29.4744  45.1214 H              1 RES1               0.0000
     41 H11         20.2456 -31.4481  42.8752 H              1 RES1               0.0000
     42 H12         25.8338 -31.6596  43.4608 H              1 RES1               0.0000
     43 H13         26.1197 -31.8542  45.2051 H              1 RES1               0.0000
     44 H14         26.1075 -30.2297  44.4818 H              1 RES1               0.0000
     45 H15         22.5816 -32.5797  41.5833 H              1 RES1               0.0000
     46 H16         20.6014 -31.8077  40.3416 H              1 RES1               0.0000
     47 H17         19.6048 -33.0447  41.1411 H              1 RES1               0.0000
     48 H18         20.9047 -33.5320  40.0297 H              1 RES1               0.0000
     49 H19         19.6373 -34.2341  43.3591 H              1 RES1               0.0000
     50 H20         23.7559 -34.4536  42.1341 H              1 RES1               0.0000
     51 H21         23.9718 -36.6413  43.2697 H              1 RES1               0.0000
     52 H22         22.0310 -37.6368  44.4404 H              1 RES1               0.0000
     53 H23         17.8216 -35.9302  43.6261 H              1 RES1               0.0000
     54 H24         20.1132 -36.9540  46.7221 H              1 RES1               0.0000
     55 H25         20.1956 -38.3850  45.6693 H              1 RES1               0.0000
@<TRIPOS>BOND
    1    1    2 1     
    2    1    3 1     
    3    2    4 ar    
    4    2    5 ar    
    5    3    6 1     
    6    4    7 1     
    7    4    8 ar    
    8    5    9 ar    
    9    7   10 1     
   10    8   11 ar    
   11    9   12 ar    
   12   11   13 ar    
   13   12   14 ar    
   14   13   15 ar    
   15   13   16 1     
   16   14   17 1     
   17   16   18 1     
   18   18   19 1     
   19   18   20 1     
   20   19   21 ar    
   21   19   22 ar    
   22   21   23 ar    
   23   22   24 ar    
   24   23   25 1     
   25   23   26 ar    
   26   25   27 2     
   27   25   28 1     
   28   27   29 1     
   29   28   30 1     
   30    9   11 ar    
   31   14   15 ar    
   32   24   26 ar    
   33   29   30 2     
   34    3   31 1     
   35    3   32 1     
   36    5   33 1     
   37    6   34 1     
   38    6   35 1     
   39    6   36 1     
   40    8   37 1     
   41   10   38 1     
   42   10   39 1     
   43   10   40 1     
   44   16   41 1     
   45   17   42 1     
   46   17   43 1     
   47   17   44 1     
   48   18   45 1     
   49   20   46 1     
   50   20   47 1     
   51   20   48 1     
   52   21   49 1     
   53   22   50 1     
   54   24   51 1     
   55   26   52 1     
   56   27   53 1     
   57   28   54 1     
   58   28   55 1     
@<TRIPOS>SUBSTRUCTURE
      1 RES1           1
@<TRIPOS>SET
DONOR_HYDROGENS      STATIC     ATOMS    <user>   **** ""
1 41
ATOM$RED        STATIC     ATOMS    COLORGROUP SYSTEM
1 41
@<TRIPOS>COMMENT
> <Gold.Version>
2022.3.0

> <Gold.Id.Protein>
unknown|5ovf_clean|pdb

> <Gold.Protein.ActiveResidues>
 ILE839  VAL852  ILE856  LEU859  VAL871  LEU872  GLU873  VAL874  VAL875  SER876 
 ALA877  MET878  ASN879  SER880  SER881  PRO882  VAL883  TYR884  ARG885  LEU886 
 ASP887  HIS888  THR889  PHE890  GLU891  GLN892  ILE893  PRO894  SER895  ARG896 
 GLN897  LYS898  LYS899  ILE900  LEU901  GLU902  GLU903  ALA904  HIS905  GLU906 
 LEU907  SER908  GLU909  LYS914  GLU836  ILE839  VAL852  ILE855  ILE856  LEU859 
 GLN863  VAL871  LEU872  VAL874  VAL875  SER876  ALA877  MET878  ASN879  SER880 
 SER881  PRO882  VAL883  TYR884  ARG885  LEU886  ASP887  HIS888  THR889  PHE890 
 GLU891  GLN892  ILE893  PRO894  SER895  ARG896  GLN897  LYS898  LYS899  ILE900 
 LEU901  GLU902  GLU903  ALA904  HIS905  GLU906  LEU907  SER908  GLU909  ASP910 
 LYS914 

> <Gold.Score>
     Fitness  S(hb_ext) S(vdw_ext)  S(hb_int)    S(int)      intcor
     76.91       1.29      56.59       0.00      -2.19      -9.25

> <Gold.Goldscore.Fitness>
76.9146

> <Gold.Goldscore.Internal.Vdw>
-6.1013

> <Gold.Goldscore.Internal.Torsion>
-5.3415

> <Gold.Goldscore.External.Vdw>
56.5909

> <Gold.Goldscore.Internal.HBond>
0.0000

> <Gold.Goldscore.External.HBond>
1.2901

> <Gold.Goldscore.Internal.Correction>
-9.2548

> <Gold.Goldscore.Reference.RMSD>
2.2357

> <Gold.Goldscore.Hbonds>
donor molecule, donor type, donor heavy atom, donor atom, acceptor molecule, acceptor atom, score
      L1  H    16    41       P1  2553  0.65

> <Gold.Goldscore.Internal.Vdw.Weighted>
-6.1013

> <Gold.Goldscore.Internal.Torsion.Weighted>
-5.3415

> <Gold.Goldscore.External.Vdw.Weighted>
77.8125

> <Gold.Goldscore.Internal.HBond.Weighted>
0.0000

> <Gold.Goldscore.External.HBond.Weighted>
1.2901

> <Gold.Goldscore.Internal.Correction.Weighted>
-9.2548

> <Gold.Rescore>
     Score         DG    S(hbond)    S(metal)    S(lipo)     H(rot)  DE(clash)    DE(int)     intcor
     28.72     -33.23       1.00        0.00     244.29       1.63       3.61       0.90       ----

> <Gold.Chemscore.Fitness>
28.7243

> <Gold.Chemscore.DG>
-33.2293

> <Gold.Chemscore.ZeroCoef>
-5.4800

> <Gold.Chemscore.Hbond>
0.9995

> <Gold.Chemscore.Metal>
0.0000

> <Gold.Chemscore.Lipo>
244.2925

> <Gold.Chemscore.Internal_Hbond>
0.0000

> <Gold.Chemscore.DEClash>
3.6095

> <Gold.Chemscore.DEInternal>
0.8954

> <Gold.Chemscore.Rot>
1.6294

> <Gold.Chemscore.Internal.Correction>
   9.000000E+99

> <Gold.Chemscore.Reference.RMSD>
0.0000

> <Gold.Chemscore.Hbonds>
donor molecule, donor type, donor heavy atom, donor atom, acceptor molecule, acceptor atom, score
      L1  H    16    41       P1  2553  0.79

> <Gold.Chemscore.Hbond.Weighted>
-3.3383

> <Gold.Chemscore.Metal.Weighted>
-0.0000

> <Gold.Chemscore.Lipo.Weighted>
-28.5822

> <Gold.Chemscore.Internal_Hbond.Weighted>
0.0000

> <Gold.Chemscore.DEClash.Weighted>
3.6095

> <Gold.Chemscore.DEInternal.Weighted>
0.8954

> <Gold.Chemscore.Rot.Weighted>
4.1713

> <Gold.Chemscore.Internal.Correction.Weighted>
   9.000000E+99

> <Gold.Reference.RMSD>
2.2357

#       Name:                example_1
#       Creating user name   hitesit
#       Creation time:       Mon Nov  6 23:23:42 2023


#       File generated by GOLD software.
#

@<TRIPOS>MOLECULE
example_1|example_1_prep|mol2|1|dock10
    55    58     1
SMALL
NO_CHARGES


@<TRIPOS>ATOM
      1 O1          19.9347 -29.5377  48.6178 O.3            1 RES1               0.0000
      2 C2          20.4888 -29.9797  47.4425 C.ar           1 RES1               0.0000
      3 C3          20.7366 -29.5877  49.7948 C.3            1 RES1               0.0000
      4 C4          19.5871 -30.2943  46.4148 C.ar           1 RES1               0.0000
      5 C5          21.8623 -30.1226  47.2181 C.ar           1 RES1               0.0000
      6 C6          19.8311 -29.3414  50.9882 C.3            1 RES1               0.0000
      7 O7          18.2574 -30.1209  46.7002 O.3            1 RES1               0.0000
      8 C8          20.0844 -30.7546  45.1941 C.ar           1 RES1               0.0000
      9 C9          22.3686 -30.5757  46.0068 C.ar           1 RES1               0.0000
     10 C10         17.3227 -30.2976  45.6458 C.3            1 RES1               0.0000
     11 C11         21.4791 -30.9098  44.9802 C.ar           1 RES1               0.0000
     12 N12         23.6937 -30.6681  45.8746 N.ar           1 RES1               0.0000
     13 C13         22.0713 -31.3742  43.7904 C.ar           1 RES1               0.0000
     14 C14         24.1650 -31.0963  44.6956 C.ar           1 RES1               0.0000
     15 N15         23.4056 -31.4375  43.6455 N.ar           1 RES1               0.0000
     16 N16         21.2733 -31.7393  42.7092 N.pl3          1 RES1               0.0000
     17 C17         25.6499 -31.1559  44.5233 C.3            1 RES1               0.0000
     18 C18         21.6516 -32.8399  41.8338 C.3            1 RES1               0.0000
     19 C19         21.1205 -34.1402  42.4219 C.ar           1 RES1               0.0000
     20 C20         21.1232 -32.5364  40.4271 C.3            1 RES1               0.0000
     21 C21         21.9594 -35.1164  42.9935 C.ar           1 RES1               0.0000
     22 C22         19.7462 -34.4059  42.3472 C.ar           1 RES1               0.0000
     23 C23         21.4513 -36.3221  43.5092 C.ar           1 RES1               0.0000
     24 C24         19.2237 -35.5945  42.8493 C.ar           1 RES1               0.0000
     25 C25         22.3329 -37.3283  44.1055 C.2            1 RES1               0.0000
     26 C26         20.0695 -36.5422  43.4277 C.ar           1 RES1               0.0000
     27 C27         23.6510 -37.5044  43.9868 C.2            1 RES1               0.0000
     28 C28         21.9002 -38.4150  45.0261 C.3            1 RES1               0.0000
     29 N29         24.1228 -38.5676  44.7070 N.2            1 RES1               0.0000
     30 N30         23.1719 -39.1273  45.3189 N.2            1 RES1               0.0000
     31 H1          21.2051 -30.5669  49.8818 H              1 RES1               0.0000
     32 H2          21.5069 -28.8193  49.7503 H              1 RES1               0.0000
     33 H3          22.5563 -29.8707  48.0185 H              1 RES1               0.0000
     34 H4          20.4200 -29.3743  51.9036 H              1 RES1               0.0000
     35 H5          19.0609 -30.1105  51.0243 H              1 RES1               0.0000
     36 H6          19.3628 -28.3629  50.8928 H              1 RES1               0.0000
     37 H7          19.3899 -30.9989  44.3916 H              1 RES1               0.0000
     38 H8          16.3148 -30.1282  46.0219 H              1 RES1               0.0000
     39 H9          17.3998 -31.3125  45.2587 H              1 RES1               0.0000
     40 H10         17.5366 -29.5876  44.8482 H              1 RES1               0.0000
     41 H11         20.4140 -31.2302  42.5283 H              1 RES1               0.0000
     42 H12         25.8851 -31.5192  43.5240 H              1 RES1               0.0000
     43 H13         26.0745 -31.8315  45.2644 H              1 RES1               0.0000
     44 H14         26.0710 -30.1605  44.6561 H              1 RES1               0.0000
     45 H15         22.7385 -32.8946  41.7931 H              1 RES1               0.0000
     46 H16         21.5453 -31.5961  40.0757 H              1 RES1               0.0000
     47 H17         20.0373 -32.4585  40.4562 H              1 RES1               0.0000
     48 H18         21.4114 -33.3391  39.7500 H              1 RES1               0.0000
     49 H19         23.0319 -34.9325  43.0373 H              1 RES1               0.0000
     50 H20         19.0802 -33.6748  41.8914 H              1 RES1               0.0000
     51 H21         18.1532 -35.7852  42.7908 H              1 RES1               0.0000
     52 H22         19.6494 -37.4665  43.8215 H              1 RES1               0.0000
     53 H23         24.2875 -36.8649  43.3769 H              1 RES1               0.0000
     54 H24         21.1831 -39.0763  44.5419 H              1 RES1               0.0000
     55 H25         21.4613 -38.0068  45.9353 H              1 RES1               0.0000
@<TRIPOS>BOND
    1    1    2 1     
    2    1    3 1     
    3    2    4 ar    
    4    2    5 ar    
    5    3    6 1     
    6    4    7 1     
    7    4    8 ar    
    8    5    9 ar    
    9    7   10 1     
   10    8   11 ar    
   11    9   12 ar    
   12   11   13 ar    
   13   12   14 ar    
   14   13   15 ar    
   15   13   16 1     
   16   14   17 1     
   17   16   18 1     
   18   18   19 1     
   19   18   20 1     
   20   19   21 ar    
   21   19   22 ar    
   22   21   23 ar    
   23   22   24 ar    
   24   23   25 1     
   25   23   26 ar    
   26   25   27 2     
   27   25   28 1     
   28   27   29 1     
   29   28   30 1     
   30    9   11 ar    
   31   14   15 ar    
   32   24   26 ar    
   33   29   30 2     
   34    3   31 1     
   35    3   32 1     
   36    5   33 1     
   37    6   34 1     
   38    6   35 1     
   39    6   36 1     
   40    8   37 1     
   41   10   38 1     
   42   10   39 1     
   43   10   40 1     
   44   16   41 1     
   45   17   42 1     
   46   17   43 1     
   47   17   44 1     
   48   18   45 1     
   49   20   46 1     
   50   20   47 1     
   51   20   48 1     
   52   21   49 1     
   53   22   50 1     
   54   24   51 1     
   55   26   52 1     
   56   27   53 1     
   57   28   54 1     
   58   28   55 1     
@<TRIPOS>SUBSTRUCTURE
      1 RES1           1
@<TRIPOS>SET
DONOR_HYDROGENS      STATIC     ATOMS    <user>   **** ""
1 41
ATOM$RED        STATIC     ATOMS    COLORGROUP SYSTEM
1 41
@<TRIPOS>COMMENT
> <Gold.Version>
2022.3.0

> <Gold.Id.Protein>
unknown|5ovf_clean|pdb

> <Gold.Protein.ActiveResidues>
 ILE839  VAL852  ILE856  LEU859  VAL871  LEU872  GLU873  VAL874  VAL875  SER876 
 ALA877  MET878  ASN879  SER880  SER881  PRO882  VAL883  TYR884  ARG885  LEU886 
 ASP887  HIS888  THR889  PHE890  GLU891  GLN892  ILE893  PRO894  SER895  ARG896 
 GLN897  LYS898  LYS899  ILE900  LEU901  GLU902  GLU903  ALA904  HIS905  GLU906 
 LEU907  SER908  GLU909  LYS914  GLU836  ILE839  VAL852  ILE855  ILE856  LEU859 
 GLN863  VAL871  LEU872  VAL874  VAL875  SER876  ALA877  MET878  ASN879  SER880 
 SER881  PRO882  VAL883  TYR884  ARG885  LEU886  ASP887  HIS888  THR889  PHE890 
 GLU891  GLN892  ILE893  PRO894  SER895  ARG896  GLN897  LYS898  LYS899  ILE900 
 LEU901  GLU902  GLU903  ALA904  HIS905  GLU906  LEU907  SER908  GLU909  ASP910 
 LYS914 

> <Gold.Score>
     Fitness  S(hb_ext) S(vdw_ext)  S(hb_int)    S(int)      intcor
     75.99       0.48      57.92       0.00      -4.12      -8.15

> <Gold.Goldscore.Fitness>
75.9940

> <Gold.Goldscore.Internal.Vdw>
-7.1855

> <Gold.Goldscore.Internal.Torsion>
-5.0902

> <Gold.Goldscore.External.Vdw>
57.9196

> <Gold.Goldscore.Internal.HBond>
0.0000

> <Gold.Goldscore.External.HBond>
0.4791

> <Gold.Goldscore.Internal.Correction>
-8.1511

> <Gold.Goldscore.Reference.RMSD>
0.7825

> <Gold.Goldscore.Hbonds>
donor molecule, donor type, donor heavy atom, donor atom, acceptor molecule, acceptor atom, score
      L1  H    16    41       P1  2553  0.24

> <Gold.Goldscore.Internal.Vdw.Weighted>
-7.1855

> <Gold.Goldscore.Internal.Torsion.Weighted>
-5.0902

> <Gold.Goldscore.External.Vdw.Weighted>
79.6395

> <Gold.Goldscore.Internal.HBond.Weighted>
0.0000

> <Gold.Goldscore.External.HBond.Weighted>
0.4791

> <Gold.Goldscore.Internal.Correction.Weighted>
-8.1511

> <Gold.Rescore>
     Score         DG    S(hbond)    S(metal)    S(lipo)     H(rot)  DE(clash)    DE(int)     intcor
     32.24     -34.29       0.73        0.00     260.88       1.63       0.74       1.31       ----

> <Gold.Chemscore.Fitness>
32.2400

> <Gold.Chemscore.DG>
-34.2851

> <Gold.Chemscore.ZeroCoef>
-5.4800

> <Gold.Chemscore.Hbond>
0.7347

> <Gold.Chemscore.Metal>
0.0000

> <Gold.Chemscore.Lipo>
260.8754

> <Gold.Chemscore.Internal_Hbond>
0.0000

> <Gold.Chemscore.DEClash>
0.7395

> <Gold.Chemscore.DEInternal>
1.3055

> <Gold.Chemscore.Rot>
1.6294

> <Gold.Chemscore.Internal.Correction>
   9.000000E+99

> <Gold.Chemscore.Reference.RMSD>
0.0000

> <Gold.Chemscore.Hbonds>
donor molecule, donor type, donor heavy atom, donor atom, acceptor molecule, acceptor atom, score
      L1  H    16    41       P1  2553  0.55

> <Gold.Chemscore.Hbond.Weighted>
-2.4540

> <Gold.Chemscore.Metal.Weighted>
-0.0000

> <Gold.Chemscore.Lipo.Weighted>
-30.5224

> <Gold.Chemscore.Internal_Hbond.Weighted>
0.0000

> <Gold.Chemscore.DEClash.Weighted>
0.7395

> <Gold.Chemscore.DEInternal.Weighted>
1.3055

> <Gold.Chemscore.Rot.Weighted>
4.1713

> <Gold.Chemscore.Internal.Correction.Weighted>
   9.000000E+99

> <Gold.Reference.RMSD>
0.7825

#       Name:                example_1
#       Creating user name   hitesit
#       Creation time:       Mon Nov  6 23:23:08 2023


#       File generated by GOLD software.
#

@<TRIPOS>MOLECULE
example_1|example_1_prep|mol2|1|dock5
    55    58     1
SMALL
NO_CHARGES


@<TRIPOS>ATOM
      1 O1          19.4078 -29.1190  48.7413 O.3            1 RES1               0.0000
      2 C2          20.0272 -29.6931  47.6594 C.ar           1 RES1               0.0000
      3 C3          20.1669 -28.9546  49.9361 C.3            1 RES1               0.0000
      4 C4          19.1899 -30.0804  46.6025 C.ar           1 RES1               0.0000
      5 C5          21.4067 -29.9006  47.5536 C.ar           1 RES1               0.0000
      6 C6          19.2206 -28.4982  51.0321 C.3            1 RES1               0.0000
      7 O7          17.8508 -29.8379  46.7690 O.3            1 RES1               0.0000
      8 C8          19.7552 -30.6755  45.4730 C.ar           1 RES1               0.0000
      9 C9          21.9805 -30.4879  46.4335 C.ar           1 RES1               0.0000
     10 C10         16.9760 -30.1783  45.7035 C.3            1 RES1               0.0000
     11 C11         21.1546 -30.8948  45.3805 C.ar           1 RES1               0.0000
     12 N12         23.3072 -30.6344  46.4108 N.ar           1 RES1               0.0000
     13 C13         21.8122 -31.4938  44.2892 C.ar           1 RES1               0.0000
     14 C14         23.8448 -31.1926  45.3176 C.ar           1 RES1               0.0000
     15 N15         23.1500 -31.6130  44.2517 N.ar           1 RES1               0.0000
     16 N16         21.0800 -31.9399  43.1918 N.pl3          1 RES1               0.0000
     17 C17         25.3349 -31.3155  45.2638 C.3            1 RES1               0.0000
     18 C18         21.6743 -32.8288  42.2031 C.3            1 RES1               0.0000
     19 C19         21.7398 -34.2351  42.7834 C.ar           1 RES1               0.0000
     20 C20         20.8510 -32.7298  40.9138 C.3            1 RES1               0.0000
     21 C21         20.6747 -34.8136  43.5006 C.ar           1 RES1               0.0000
     22 C22         22.9258 -34.9697  42.6468 C.ar           1 RES1               0.0000
     23 C23         20.7644 -36.1052  44.0498 C.ar           1 RES1               0.0000
     24 C24         23.0358 -36.2485  43.1855 C.ar           1 RES1               0.0000
     25 C25         19.6484 -36.6984  44.7900 C.2            1 RES1               0.0000
     26 C26         21.9629 -36.8114  43.8782 C.ar           1 RES1               0.0000
     27 C27         18.3322 -36.6227  44.5798 C.2            1 RES1               0.0000
     28 C28         19.7773 -37.5638  45.9942 C.3            1 RES1               0.0000
     29 N29         17.5958 -37.3225  45.4962 N.2            1 RES1               0.0000
     30 N30         18.3635 -37.8788  46.3289 N.2            1 RES1               0.0000
     31 H1          20.6269 -29.9014  50.2152 H              1 RES1               0.0000
     32 H2          20.9423 -28.2059  49.7816 H              1 RES1               0.0000
     33 H3          22.0508 -29.5919  48.3755 H              1 RES1               0.0000
     34 H4          19.7763 -28.3645  51.9590 H              1 RES1               0.0000
     35 H5          18.4456 -29.2492  51.1785 H              1 RES1               0.0000
     36 H6          18.7611 -27.5536  50.7448 H              1 RES1               0.0000
     37 H7          19.1110 -30.9768  44.6483 H              1 RES1               0.0000
     38 H8          15.9526 -29.9295  45.9804 H              1 RES1               0.0000
     39 H9          17.0481 -31.2460  45.5017 H              1 RES1               0.0000
     40 H10         17.2565 -29.6205  44.8112 H              1 RES1               0.0000
     41 H11         20.1167 -31.6407  43.0792 H              1 RES1               0.0000
     42 H12         25.6268 -31.7838  44.3250 H              1 RES1               0.0000
     43 H13         25.6790 -31.9267  46.0968 H              1 RES1               0.0000
     44 H14         25.7834 -30.3255  45.3304 H              1 RES1               0.0000
     45 H15         22.6883 -32.4903  41.9955 H              1 RES1               0.0000
     46 H16         20.8507 -31.6994  40.5614 H              1 RES1               0.0000
     47 H17         19.8278 -33.0461  41.1113 H              1 RES1               0.0000
     48 H18         21.2894 -33.3736  40.1527 H              1 RES1               0.0000
     49 H19         19.7556 -34.2448  43.6335 H              1 RES1               0.0000
     50 H20         23.7702 -34.5353  42.1137 H              1 RES1               0.0000
     51 H21         23.9608 -36.8108  43.0663 H              1 RES1               0.0000
     52 H22         22.0582 -37.8144  44.2915 H              1 RES1               0.0000
     53 H23         17.8886 -36.0596  43.7600 H              1 RES1               0.0000
     54 H24         20.2637 -37.0306  46.8097 H              1 RES1               0.0000
     55 H25         20.3375 -38.4698  45.7676 H              1 RES1               0.0000
@<TRIPOS>BOND
    1    1    2 1     
    2    1    3 1     
    3    2    4 ar    
    4    2    5 ar    
    5    3    6 1     
    6    4    7 1     
    7    4    8 ar    
    8    5    9 ar    
    9    7   10 1     
   10    8   11 ar    
   11    9   12 ar    
   12   11   13 ar    
   13   12   14 ar    
   14   13   15 ar    
   15   13   16 1     
   16   14   17 1     
   17   16   18 1     
   18   18   19 1     
   19   18   20 1     
   20   19   21 ar    
   21   19   22 ar    
   22   21   23 ar    
   23   22   24 ar    
   24   23   25 1     
   25   23   26 ar    
   26   25   27 2     
   27   25   28 1     
   28   27   29 1     
   29   28   30 1     
   30    9   11 ar    
   31   14   15 ar    
   32   24   26 ar    
   33   29   30 2     
   34    3   31 1     
   35    3   32 1     
   36    5   33 1     
   37    6   34 1     
   38    6   35 1     
   39    6   36 1     
   40    8   37 1     
   41   10   38 1     
   42   10   39 1     
   43   10   40 1     
   44   16   41 1     
   45   17   42 1     
   46   17   43 1     
   47   17   44 1     
   48   18   45 1     
   49   20   46 1     
   50   20   47 1     
   51   20   48 1     
   52   21   49 1     
   53   22   50 1     
   54   24   51 1     
   55   26   52 1     
   56   27   53 1     
   57   28   54 1     
   58   28   55 1     
@<TRIPOS>SUBSTRUCTURE
      1 RES1           1
@<TRIPOS>SET
DONOR_HYDROGENS      STATIC     ATOMS    <user>   **** ""
1 41
ATOM$RED        STATIC     ATOMS    COLORGROUP SYSTEM
1 41
@<TRIPOS>COMMENT
> <Gold.Version>
2022.3.0

> <Gold.Id.Protein>
unknown|5ovf_clean|pdb

> <Gold.Protein.ActiveResidues>
 ILE839  VAL852  ILE856  LEU859  VAL871  LEU872  GLU873  VAL874  VAL875  SER876 
 ALA877  MET878  ASN879  SER880  SER881  PRO882  VAL883  TYR884  ARG885  LEU886 
 ASP887  HIS888  THR889  PHE890  GLU891  GLN892  ILE893  PRO894  SER895  ARG896 
 GLN897  LYS898  LYS899  ILE900  LEU901  GLU902  GLU903  ALA904  HIS905  GLU906 
 LEU907  SER908  GLU909  LYS914  GLU836  ILE839  VAL852  ILE855  ILE856  LEU859 
 GLN863  VAL871  LEU872  VAL874  VAL875  SER876  ALA877  MET878  ASN879  SER880 
 SER881  PRO882  VAL883  TYR884  ARG885  LEU886  ASP887  HIS888  THR889  PHE890 
 GLU891  GLN892  ILE893  PRO894  SER895  ARG896  GLN897  LYS898  LYS899  ILE900 
 LEU901  GLU902  GLU903  ALA904  HIS905  GLU906  LEU907  SER908  GLU909  ASP910 
 LYS914 

> <Gold.Score>
     Fitness  S(hb_ext) S(vdw_ext)  S(hb_int)    S(int)      intcor
     72.80       1.68      55.16       0.00      -4.73      -8.15

> <Gold.Goldscore.Fitness>
72.8023

> <Gold.Goldscore.Internal.Vdw>
-8.2641

> <Gold.Goldscore.Internal.Torsion>
-4.6193

> <Gold.Goldscore.External.Vdw>
55.1643

> <Gold.Goldscore.Internal.HBond>
0.0000

> <Gold.Goldscore.External.HBond>
1.6837

> <Gold.Goldscore.Internal.Correction>
-8.1511

> <Gold.Goldscore.Reference.RMSD>
2.2735

> <Gold.Goldscore.Hbonds>
donor molecule, donor type, donor heavy atom, donor atom, acceptor molecule, acceptor atom, score
      L1  H    16    41       P1  2553  0.84

> <Gold.Goldscore.Internal.Vdw.Weighted>
-8.2641

> <Gold.Goldscore.Internal.Torsion.Weighted>
-4.6193

> <Gold.Goldscore.External.Vdw.Weighted>
75.8509

> <Gold.Goldscore.Internal.HBond.Weighted>
0.0000

> <Gold.Goldscore.External.HBond.Weighted>
1.6837

> <Gold.Goldscore.Internal.Correction.Weighted>
-8.1511

> <Gold.Rescore>
     Score         DG    S(hbond)    S(metal)    S(lipo)     H(rot)  DE(clash)    DE(int)     intcor
     30.27     -33.64       0.99        0.00     248.12       1.63       1.91       1.46       ----

> <Gold.Chemscore.Fitness>
30.2715

> <Gold.Chemscore.DG>
-33.6426

> <Gold.Chemscore.ZeroCoef>
-5.4800

> <Gold.Chemscore.Hbond>
0.9893

> <Gold.Chemscore.Metal>
0.0000

> <Gold.Chemscore.Lipo>
248.1179

> <Gold.Chemscore.Internal_Hbond>
0.0000

> <Gold.Chemscore.DEClash>
1.9100

> <Gold.Chemscore.DEInternal>
1.4611

> <Gold.Chemscore.Rot>
1.6294

> <Gold.Chemscore.Internal.Correction>
   9.000000E+99

> <Gold.Chemscore.Reference.RMSD>
0.0000

> <Gold.Chemscore.Hbonds>
donor molecule, donor type, donor heavy atom, donor atom, acceptor molecule, acceptor atom, score
      L1  H    16    41       P1  2553  0.69

> <Gold.Chemscore.Hbond.Weighted>
-3.3042

> <Gold.Chemscore.Metal.Weighted>
-0.0000

> <Gold.Chemscore.Lipo.Weighted>
-29.0298

> <Gold.Chemscore.Internal_Hbond.Weighted>
0.0000

> <Gold.Chemscore.DEClash.Weighted>
1.9100

> <Gold.Chemscore.DEInternal.Weighted>
1.4611

> <Gold.Chemscore.Rot.Weighted>
4.1713

> <Gold.Chemscore.Internal.Correction.Weighted>
   9.000000E+99

> <Gold.Reference.RMSD>
2.2735

#       Name:                example_1
#       Creating user name   hitesit
#       Creation time:       Mon Nov  6 23:23:24 2023


#       File generated by GOLD software.
#

@<TRIPOS>MOLECULE
example_1|example_1_prep|mol2|1|dock7
    55    58     1
SMALL
NO_CHARGES


@<TRIPOS>ATOM
      1 O1          20.3644 -27.5919  47.9098 O.3            1 RES1               0.0000
      2 C2          20.8045 -28.5250  47.0044 C.ar           1 RES1               0.0000
      3 C3          21.2361 -26.5118  48.2330 C.3            1 RES1               0.0000
      4 C4          19.8155 -29.1423  46.2242 C.ar           1 RES1               0.0000
      5 C5          22.1453 -28.8781  46.8183 C.ar           1 RES1               0.0000
      6 C6          20.4189 -25.4485  48.9447 C.3            1 RES1               0.0000
      7 O7          18.5244 -28.7409  46.4521 O.3            1 RES1               0.0000
      8 C8          20.1945 -30.1050  45.2867 C.ar           1 RES1               0.0000
      9 C9          22.5345 -29.8313  45.8862 C.ar           1 RES1               0.0000
     10 C10         17.4855 -29.4210  45.7632 C.3            1 RES1               0.0000
     11 C11         21.5562 -30.4670  45.1145 C.ar           1 RES1               0.0000
     12 N12         23.8372 -30.0963  45.7647 N.ar           1 RES1               0.0000
     13 C13         22.0315 -31.4300  44.2041 C.ar           1 RES1               0.0000
     14 C14         24.1956 -31.0103  44.8528 C.ar           1 RES1               0.0000
     15 N15         23.3447 -31.6747  44.0588 N.ar           1 RES1               0.0000
     16 N16         21.1382 -32.1250  43.3928 N.pl3          1 RES1               0.0000
     17 C17         25.6571 -31.2772  44.6765 C.3            1 RES1               0.0000
     18 C18         21.6127 -32.9901  42.3216 C.3            1 RES1               0.0000
     19 C19         21.7554 -34.4068  42.8613 C.ar           1 RES1               0.0000
     20 C20         20.6384 -32.8724  41.1439 C.3            1 RES1               0.0000
     21 C21         20.7493 -35.0389  43.6174 C.ar           1 RES1               0.0000
     22 C22         22.9564 -35.0963  42.6448 C.ar           1 RES1               0.0000
     23 C23         20.9108 -36.3394  44.1278 C.ar           1 RES1               0.0000
     24 C24         23.1372 -36.3832  43.1439 C.ar           1 RES1               0.0000
     25 C25         19.8556 -36.9886  44.9091 C.2            1 RES1               0.0000
     26 C26         22.1215 -36.9994  43.8763 C.ar           1 RES1               0.0000
     27 C27         18.5287 -36.8526  44.8535 C.2            1 RES1               0.0000
     28 C28         20.0753 -37.9978  45.9810 C.3            1 RES1               0.0000
     29 N29         17.8650 -37.6391  45.7550 N.2            1 RES1               0.0000
     30 N30         18.6928 -38.3133  46.4275 N.2            1 RES1               0.0000
     31 H1          22.0342 -26.8631  48.8853 H              1 RES1               0.0000
     32 H2          21.6669 -26.0990  47.3221 H              1 RES1               0.0000
     33 H3          22.9079 -28.3902  47.4234 H              1 RES1               0.0000
     34 H4          21.0624 -24.6091  49.2038 H              1 RES1               0.0000
     35 H5          19.9876 -25.8690  49.8520 H              1 RES1               0.0000
     36 H6          19.6204 -25.1048  48.2887 H              1 RES1               0.0000
     37 H7          19.4319 -30.5868  44.6766 H              1 RES1               0.0000
     38 H8          16.5237 -28.9943  46.0441 H              1 RES1               0.0000
     39 H9          17.5051 -30.4772  46.0279 H              1 RES1               0.0000
     40 H10         17.6307 -29.3132  44.6894 H              1 RES1               0.0000
     41 H11         20.1404 -32.0271  43.5505 H              1 RES1               0.0000
     42 H12         25.7974 -32.0365  43.9085 H              1 RES1               0.0000
     43 H13         26.0776 -31.6301  45.6169 H              1 RES1               0.0000
     44 H14         26.1600 -30.3594  44.3756 H              1 RES1               0.0000
     45 H15         22.5923 -32.6399  41.9994 H              1 RES1               0.0000
     46 H16         20.5900 -31.8354  40.8149 H              1 RES1               0.0000
     47 H17         19.6485 -33.2003  41.4576 H              1 RES1               0.0000
     48 H18         20.9846 -33.4980  40.3226 H              1 RES1               0.0000
     49 H19         19.8200 -34.5056  43.8123 H              1 RES1               0.0000
     50 H20         23.7567 -34.6203  42.0800 H              1 RES1               0.0000
     51 H21         24.0729 -36.9101  42.9626 H              1 RES1               0.0000
     52 H22         22.2718 -38.0081  44.2582 H              1 RES1               0.0000
     53 H23         18.0245 -36.1819  44.1593 H              1 RES1               0.0000
     54 H24         20.6650 -37.5814  46.7964 H              1 RES1               0.0000
     55 H25         20.5723 -38.8839  45.5890 H              1 RES1               0.0000
@<TRIPOS>BOND
    1    1    2 1     
    2    1    3 1     
    3    2    4 ar    
    4    2    5 ar    
    5    3    6 1     
    6    4    7 1     
    7    4    8 ar    
    8    5    9 ar    
    9    7   10 1     
   10    8   11 ar    
   11    9   12 ar    
   12   11   13 ar    
   13   12   14 ar    
   14   13   15 ar    
   15   13   16 1     
   16   14   17 1     
   17   16   18 1     
   18   18   19 1     
   19   18   20 1     
   20   19   21 ar    
   21   19   22 ar    
   22   21   23 ar    
   23   22   24 ar    
   24   23   25 1     
   25   23   26 ar    
   26   25   27 2     
   27   25   28 1     
   28   27   29 1     
   29   28   30 1     
   30    9   11 ar    
   31   14   15 ar    
   32   24   26 ar    
   33   29   30 2     
   34    3   31 1     
   35    3   32 1     
   36    5   33 1     
   37    6   34 1     
   38    6   35 1     
   39    6   36 1     
   40    8   37 1     
   41   10   38 1     
   42   10   39 1     
   43   10   40 1     
   44   16   41 1     
   45   17   42 1     
   46   17   43 1     
   47   17   44 1     
   48   18   45 1     
   49   20   46 1     
   50   20   47 1     
   51   20   48 1     
   52   21   49 1     
   53   22   50 1     
   54   24   51 1     
   55   26   52 1     
   56   27   53 1     
   57   28   54 1     
   58   28   55 1     
@<TRIPOS>SUBSTRUCTURE
      1 RES1           1
@<TRIPOS>SET
DONOR_HYDROGENS      STATIC     ATOMS    <user>   **** ""
1 41
ATOM$RED        STATIC     ATOMS    COLORGROUP SYSTEM
1 41
@<TRIPOS>COMMENT
> <Gold.Version>
2022.3.0

> <Gold.Id.Protein>
unknown|5ovf_clean|pdb

> <Gold.Protein.ActiveResidues>
 ILE839  VAL852  ILE856  LEU859  VAL871  LEU872  GLU873  VAL874  VAL875  SER876 
 ALA877  MET878  ASN879  SER880  SER881  PRO882  VAL883  TYR884  ARG885  LEU886 
 ASP887  HIS888  THR889  PHE890  GLU891  GLN892  ILE893  PRO894  SER895  ARG896 
 GLN897  LYS898  LYS899  ILE900  LEU901  GLU902  GLU903  ALA904  HIS905  GLU906 
 LEU907  SER908  GLU909  LYS914  GLU836  ILE839  VAL852  ILE855  ILE856  LEU859 
 GLN863  VAL871  LEU872  VAL874  VAL875  SER876  ALA877  MET878  ASN879  SER880 
 SER881  PRO882  VAL883  TYR884  ARG885  LEU886  ASP887  HIS888  THR889  PHE890 
 GLU891  GLN892  ILE893  PRO894  SER895  ARG896  GLN897  LYS898  LYS899  ILE900 
 LEU901  GLU902  GLU903  ALA904  HIS905  GLU906  LEU907  SER908  GLU909  ASP910 
 LYS914 

> <Gold.Score>
     Fitness  S(hb_ext) S(vdw_ext)  S(hb_int)    S(int)      intcor
     69.51       0.33      53.96       0.00      -5.02      -8.15

> <Gold.Goldscore.Fitness>
69.5069

> <Gold.Goldscore.Internal.Vdw>
-8.8206

> <Gold.Goldscore.Internal.Torsion>
-4.3537

> <Gold.Goldscore.External.Vdw>
53.9603

> <Gold.Goldscore.Internal.HBond>
0.0000

> <Gold.Goldscore.External.HBond>
0.3348

> <Gold.Goldscore.Internal.Correction>
-8.1511

> <Gold.Goldscore.Reference.RMSD>
2.0916

> <Gold.Goldscore.Hbonds>
donor molecule, donor type, donor heavy atom, donor atom, acceptor molecule, acceptor atom, score
      L1  H    16    41       P1  2553  0.17

> <Gold.Goldscore.Internal.Vdw.Weighted>
-8.8206

> <Gold.Goldscore.Internal.Torsion.Weighted>
-4.3537

> <Gold.Goldscore.External.Vdw.Weighted>
74.1954

> <Gold.Goldscore.Internal.HBond.Weighted>
0.0000

> <Gold.Goldscore.External.HBond.Weighted>
0.3348

> <Gold.Goldscore.Internal.Correction.Weighted>
-8.1511

> <Gold.Rescore>
     Score         DG    S(hbond)    S(metal)    S(lipo)     H(rot)  DE(clash)    DE(int)     intcor
     24.64     -29.47       0.41        0.00     229.04       1.63       3.47       1.36       ----

> <Gold.Chemscore.Fitness>
24.6372

> <Gold.Chemscore.DG>
-29.4679

> <Gold.Chemscore.ZeroCoef>
-5.4800

> <Gold.Chemscore.Hbond>
0.4077

> <Gold.Chemscore.Metal>
0.0000

> <Gold.Chemscore.Lipo>
229.0381

> <Gold.Chemscore.Internal_Hbond>
0.0000

> <Gold.Chemscore.DEClash>
3.4715

> <Gold.Chemscore.DEInternal>
1.3592

> <Gold.Chemscore.Rot>
1.6294

> <Gold.Chemscore.Internal.Correction>
   9.000000E+99

> <Gold.Chemscore.Reference.RMSD>
0.0000

> <Gold.Chemscore.Hbonds>
donor molecule, donor type, donor heavy atom, donor atom, acceptor molecule, acceptor atom, score
      L1  H    16    41       P1  2553  0.72

> <Gold.Chemscore.Hbond.Weighted>
-1.3618

> <Gold.Chemscore.Metal.Weighted>
-0.0000

> <Gold.Chemscore.Lipo.Weighted>
-26.7975

> <Gold.Chemscore.Internal_Hbond.Weighted>
0.0000

> <Gold.Chemscore.DEClash.Weighted>
3.4715

> <Gold.Chemscore.DEInternal.Weighted>
1.3592

> <Gold.Chemscore.Rot.Weighted>
4.1713

> <Gold.Chemscore.Internal.Correction.Weighted>
   9.000000E+99

> <Gold.Reference.RMSD>
2.0916

#       Name:                example_1
#       Creating user name   hitesit
#       Creation time:       Mon Nov  6 23:22:53 2023


#       File generated by GOLD software.
#

@<TRIPOS>MOLECULE
example_1|example_1_prep|mol2|1|dock3
    55    58     1
SMALL
NO_CHARGES


@<TRIPOS>ATOM
      1 O1          19.9678 -27.7618  47.9955 O.3            1 RES1               0.0000
      2 C2          20.4339 -28.6689  47.0769 C.ar           1 RES1               0.0000
      3 C3          20.7291 -27.5631  49.1837 C.3            1 RES1               0.0000
      4 C4          19.4612 -29.3180  46.3021 C.ar           1 RES1               0.0000
      5 C5          21.7854 -28.9672  46.8729 C.ar           1 RES1               0.0000
      6 C6          19.8604 -26.8100  50.1751 C.3            1 RES1               0.0000
      7 O7          18.1580 -28.9698  46.5477 O.3            1 RES1               0.0000
      8 C8          19.8671 -30.2568  45.3517 C.ar           1 RES1               0.0000
      9 C9          22.2012 -29.8962  45.9279 C.ar           1 RES1               0.0000
     10 C10         17.1404 -29.6583  45.8357 C.3            1 RES1               0.0000
     11 C11         21.2400 -30.5633  45.1613 C.ar           1 RES1               0.0000
     12 N12         23.5118 -30.1086  45.7897 N.ar           1 RES1               0.0000
     13 C13         21.7424 -31.4988  44.2369 C.ar           1 RES1               0.0000
     14 C14         23.8955 -30.9998  44.8655 C.ar           1 RES1               0.0000
     15 N15         23.0625 -31.6903  44.0749 N.ar           1 RES1               0.0000
     16 N16         20.8680 -32.2215  43.4291 N.pl3          1 RES1               0.0000
     17 C17         25.3643 -31.2074  44.6707 C.3            1 RES1               0.0000
     18 C18         21.3634 -33.0511  42.3396 C.3            1 RES1               0.0000
     19 C19         21.6847 -34.4364  42.8841 C.ar           1 RES1               0.0000
     20 C20         20.3123 -33.0540  41.2237 C.3            1 RES1               0.0000
     21 C21         20.7945 -35.1586  43.7024 C.ar           1 RES1               0.0000
     22 C22         22.9379 -34.9995  42.6064 C.ar           1 RES1               0.0000
     23 C23         21.1205 -36.4268  44.2155 C.ar           1 RES1               0.0000
     24 C24         23.2810 -36.2523  43.1070 C.ar           1 RES1               0.0000
     25 C25         20.1848 -37.1706  45.0619 C.2            1 RES1               0.0000
     26 C26         22.3782 -36.9600  43.9020 C.ar           1 RES1               0.0000
     27 C27         20.3397 -38.3218  45.7201 C.2            1 RES1               0.0000
     28 C28         18.7914 -36.7534  45.3778 C.3            1 RES1               0.0000
     29 N29         19.2245 -38.7034  46.4145 N.2            1 RES1               0.0000
     30 N30         18.3079 -37.8507  46.2567 N.2            1 RES1               0.0000
     31 H1          21.0191 -28.5256  49.6026 H              1 RES1               0.0000
     32 H2          21.6218 -26.9817  48.9580 H              1 RES1               0.0000
     33 H3          22.5351 -28.4549  47.4740 H              1 RES1               0.0000
     34 H4          20.4193 -26.6442  51.0949 H              1 RES1               0.0000
     35 H5          18.9678 -27.3947  50.3931 H              1 RES1               0.0000
     36 H6          19.5707 -25.8508  49.7485 H              1 RES1               0.0000
     37 H7          19.1172 -30.7629  44.7456 H              1 RES1               0.0000
     38 H8          16.1657 -29.2756  46.1346 H              1 RES1               0.0000
     39 H9          17.1969 -30.7224  46.0600 H              1 RES1               0.0000
     40 H10         17.2783 -29.5049  44.7664 H              1 RES1               0.0000
     41 H11         19.8693 -32.1691  43.6025 H              1 RES1               0.0000
     42 H12         25.5256 -31.9538  43.8944 H              1 RES1               0.0000
     43 H13         25.8091 -31.5515  45.6033 H              1 RES1               0.0000
     44 H14         25.8273 -30.2679  44.3728 H              1 RES1               0.0000
     45 H15         22.2800 -32.6077  41.9534 H              1 RES1               0.0000
     46 H16         20.1368 -32.0332  40.8876 H              1 RES1               0.0000
     47 H17         19.3826 -33.4765  41.6019 H              1 RES1               0.0000
     48 H18         20.6707 -33.6545  40.3890 H              1 RES1               0.0000
     49 H19         19.8264 -34.7227  43.9447 H              1 RES1               0.0000
     50 H20         23.6508 -34.4511  41.9924 H              1 RES1               0.0000
     51 H21         24.2555 -36.6810  42.8779 H              1 RES1               0.0000
     52 H22         22.6552 -37.9413  44.2846 H              1 RES1               0.0000
     53 H23         21.2626 -38.8998  45.7057 H              1 RES1               0.0000
     54 H24         18.1892 -36.6817  44.4732 H              1 RES1               0.0000
     55 H25         18.7772 -35.7979  45.9001 H              1 RES1               0.0000
@<TRIPOS>BOND
    1    1    2 1     
    2    1    3 1     
    3    2    4 ar    
    4    2    5 ar    
    5    3    6 1     
    6    4    7 1     
    7    4    8 ar    
    8    5    9 ar    
    9    7   10 1     
   10    8   11 ar    
   11    9   12 ar    
   12   11   13 ar    
   13   12   14 ar    
   14   13   15 ar    
   15   13   16 1     
   16   14   17 1     
   17   16   18 1     
   18   18   19 1     
   19   18   20 1     
   20   19   21 ar    
   21   19   22 ar    
   22   21   23 ar    
   23   22   24 ar    
   24   23   25 1     
   25   23   26 ar    
   26   25   27 2     
   27   25   28 1     
   28   27   29 1     
   29   28   30 1     
   30    9   11 ar    
   31   14   15 ar    
   32   24   26 ar    
   33   29   30 2     
   34    3   31 1     
   35    3   32 1     
   36    5   33 1     
   37    6   34 1     
   38    6   35 1     
   39    6   36 1     
   40    8   37 1     
   41   10   38 1     
   42   10   39 1     
   43   10   40 1     
   44   16   41 1     
   45   17   42 1     
   46   17   43 1     
   47   17   44 1     
   48   18   45 1     
   49   20   46 1     
   50   20   47 1     
   51   20   48 1     
   52   21   49 1     
   53   22   50 1     
   54   24   51 1     
   55   26   52 1     
   56   27   53 1     
   57   28   54 1     
   58   28   55 1     
@<TRIPOS>SUBSTRUCTURE
      1 RES1           1
@<TRIPOS>SET
DONOR_HYDROGENS      STATIC     ATOMS    <user>   **** ""
1 41
ATOM$RED        STATIC     ATOMS    COLORGROUP SYSTEM
1 41
@<TRIPOS>COMMENT
> <Gold.Version>
2022.3.0

> <Gold.Id.Protein>
unknown|5ovf_clean|pdb

> <Gold.Protein.ActiveResidues>
 ILE839  VAL852  ILE856  LEU859  VAL871  LEU872  GLU873  VAL874  VAL875  SER876 
 ALA877  MET878  ASN879  SER880  SER881  PRO882  VAL883  TYR884  ARG885  LEU886 
 ASP887  HIS888  THR889  PHE890  GLU891  GLN892  ILE893  PRO894  SER895  ARG896 
 GLN897  LYS898  LYS899  ILE900  LEU901  GLU902  GLU903  ALA904  HIS905  GLU906 
 LEU907  SER908  GLU909  LYS914  GLU836  ILE839  VAL852  ILE855  ILE856  LEU859 
 GLN863  VAL871  LEU872  VAL874  VAL875  SER876  ALA877  MET878  ASN879  SER880 
 SER881  PRO882  VAL883  TYR884  ARG885  LEU886  ASP887  HIS888  THR889  PHE890 
 GLU891  GLN892  ILE893  PRO894  SER895  ARG896  GLN897  LYS898  LYS899  ILE900 
 LEU901  GLU902  GLU903  ALA904  HIS905  GLU906  LEU907  SER908  GLU909  ASP910 
 LYS914 

> <Gold.Score>
     Fitness  S(hb_ext) S(vdw_ext)  S(hb_int)    S(int)      intcor
     68.82       0.11      52.51       0.00      -3.50      -8.84

> <Gold.Goldscore.Fitness>
68.8180

> <Gold.Goldscore.Internal.Vdw>
-9.5476

> <Gold.Goldscore.Internal.Torsion>
-2.7922

> <Gold.Goldscore.External.Vdw>
52.5134

> <Gold.Goldscore.Internal.HBond>
0.0000

> <Gold.Goldscore.External.HBond>
0.1139

> <Gold.Goldscore.Internal.Correction>
-8.8381

> <Gold.Goldscore.Reference.RMSD>
1.9705

> <Gold.Goldscore.Hbonds>
donor molecule, donor type, donor heavy atom, donor atom, acceptor molecule, acceptor atom, score
      L1  H    16    41       P1  2553  0.06

> <Gold.Goldscore.Internal.Vdw.Weighted>
-9.5476

> <Gold.Goldscore.Internal.Torsion.Weighted>
-2.7922

> <Gold.Goldscore.External.Vdw.Weighted>
72.2059

> <Gold.Goldscore.Internal.HBond.Weighted>
0.0000

> <Gold.Goldscore.External.HBond.Weighted>
0.1139

> <Gold.Goldscore.Internal.Correction.Weighted>
-8.8381

> <Gold.Rescore>
     Score         DG    S(hbond)    S(metal)    S(lipo)     H(rot)  DE(clash)    DE(int)     intcor
     25.92     -29.11       0.31        0.00     228.74       1.63       2.18       1.01       ----

> <Gold.Chemscore.Fitness>
25.9182

> <Gold.Chemscore.DG>
-29.1074

> <Gold.Chemscore.ZeroCoef>
-5.4800

> <Gold.Chemscore.Hbond>
0.3103

> <Gold.Chemscore.Metal>
0.0000

> <Gold.Chemscore.Lipo>
228.7383

> <Gold.Chemscore.Internal_Hbond>
0.0000

> <Gold.Chemscore.DEClash>
2.1766

> <Gold.Chemscore.DEInternal>
1.0126

> <Gold.Chemscore.Rot>
1.6294

> <Gold.Chemscore.Internal.Correction>
   9.000000E+99

> <Gold.Chemscore.Reference.RMSD>
0.0000

> <Gold.Chemscore.Hbonds>
donor molecule, donor type, donor heavy atom, donor atom, acceptor molecule, acceptor atom, score
      L1  H    16    41       P1  2553  0.51

> <Gold.Chemscore.Hbond.Weighted>
-1.0363

> <Gold.Chemscore.Metal.Weighted>
-0.0000

> <Gold.Chemscore.Lipo.Weighted>
-26.7624

> <Gold.Chemscore.Internal_Hbond.Weighted>
0.0000

> <Gold.Chemscore.DEClash.Weighted>
2.1766

> <Gold.Chemscore.DEInternal.Weighted>
1.0126

> <Gold.Chemscore.Rot.Weighted>
4.1713

> <Gold.Chemscore.Internal.Correction.Weighted>
   9.000000E+99

> <Gold.Reference.RMSD>
1.9705

#       Name:                example_1
#       Creating user name   hitesit
#       Creation time:       Mon Nov  6 23:23:30 2023


#       File generated by GOLD software.
#

@<TRIPOS>MOLECULE
example_1|example_1_prep|mol2|1|dock8
    55    58     1
SMALL
NO_CHARGES


@<TRIPOS>ATOM
      1 O1          24.9314 -28.5993  47.3171 O.3            1 RES1               0.0000
      2 C2          23.9995 -29.3234  46.6162 C.ar           1 RES1               0.0000
      3 C3          24.4609 -27.6148  48.2337 C.3            1 RES1               0.0000
      4 C4          24.5052 -30.2783  45.7216 C.ar           1 RES1               0.0000
      5 C5          22.6150 -29.1703  46.7465 C.ar           1 RES1               0.0000
      6 C6          25.6700 -26.9406  48.8569 C.3            1 RES1               0.0000
      7 O7          25.8706 -30.3819  45.6525 O.3            1 RES1               0.0000
      8 C8          23.6112 -31.0462  44.9730 C.ar           1 RES1               0.0000
      9 C9          21.7162 -29.9311  46.0102 C.ar           1 RES1               0.0000
     10 C10         26.4202 -31.3407  44.7607 C.3            1 RES1               0.0000
     11 C11         22.2080 -30.8742  45.1017 C.ar           1 RES1               0.0000
     12 N12         20.4117 -29.7291  46.2084 N.ar           1 RES1               0.0000
     13 C13         21.2327 -31.5933  44.3849 C.ar           1 RES1               0.0000
     14 C14         19.5590 -30.4797  45.4978 C.ar           1 RES1               0.0000
     15 N15         19.9198 -31.4130  44.6064 N.ar           1 RES1               0.0000
     16 N16         21.6176 -32.5517  43.4508 N.pl3          1 RES1               0.0000
     17 C17         18.0961 -30.2935  45.7499 C.3            1 RES1               0.0000
     18 C18         22.0906 -33.8633  43.8712 C.3            1 RES1               0.0000
     19 C19         20.8872 -34.7425  44.1834 C.ar           1 RES1               0.0000
     20 C20         22.9951 -34.4228  42.7671 C.3            1 RES1               0.0000
     21 C21         20.7933 -35.5170  45.3560 C.ar           1 RES1               0.0000
     22 C22         19.8502 -34.8297  43.2444 C.ar           1 RES1               0.0000
     23 C23         19.6838 -36.3418  45.6141 C.ar           1 RES1               0.0000
     24 C24         18.7448 -35.6425  43.4796 C.ar           1 RES1               0.0000
     25 C25         19.5950 -37.1394  46.8393 C.2            1 RES1               0.0000
     26 C26         18.6621 -36.3892  44.6558 C.ar           1 RES1               0.0000
     27 C27         20.5353 -37.8177  47.5012 C.2            1 RES1               0.0000
     28 C28         18.3580 -37.3540  47.6389 C.3            1 RES1               0.0000
     29 N29         20.0631 -38.4467  48.6206 N.2            1 RES1               0.0000
     30 N30         18.8285 -38.2211  48.7511 N.2            1 RES1               0.0000
     31 H1          23.8570 -26.8774  47.7068 H              1 RES1               0.0000
     32 H2          23.8608 -28.0882  49.0092 H              1 RES1               0.0000
     33 H3          22.2299 -28.4312  47.4474 H              1 RES1               0.0000
     34 H4          25.3382 -26.1814  49.5636 H              1 RES1               0.0000
     35 H5          26.2677 -26.4730  48.0758 H              1 RES1               0.0000
     36 H6          26.2714 -27.6838  49.3784 H              1 RES1               0.0000
     37 H7          23.9971 -31.7905  44.2781 H              1 RES1               0.0000
     38 H8          27.5073 -31.3063  44.8157 H              1 RES1               0.0000
     39 H9          26.1009 -31.1159  43.7442 H              1 RES1               0.0000
     40 H10         26.0739 -32.3351  45.0384 H              1 RES1               0.0000
     41 H11         21.5677 -32.3326  42.4610 H              1 RES1               0.0000
     42 H12         17.5286 -30.9641  45.1063 H              1 RES1               0.0000
     43 H13         17.8189 -29.2627  45.5344 H              1 RES1               0.0000
     44 H14         17.8759 -30.5184  46.7923 H              1 RES1               0.0000
     45 H15         22.6810 -33.7461  44.7787 H              1 RES1               0.0000
     46 H16         23.8291 -33.7424  42.6014 H              1 RES1               0.0000
     47 H17         22.4226 -34.5262  41.8465 H              1 RES1               0.0000
     48 H18         23.3761 -35.3972  43.0690 H              1 RES1               0.0000
     49 H19         21.6027 -35.4759  46.0835 H              1 RES1               0.0000
     50 H20         19.9099 -34.2556  42.3210 H              1 RES1               0.0000
     51 H21         17.9430 -35.6957  42.7446 H              1 RES1               0.0000
     52 H22         17.7906 -37.0181  44.8318 H              1 RES1               0.0000
     53 H23         21.5753 -37.8656  47.1816 H              1 RES1               0.0000
     54 H24         17.5919 -37.8549  47.0488 H              1 RES1               0.0000
     55 H25         17.9666 -36.4105  48.0163 H              1 RES1               0.0000
@<TRIPOS>BOND
    1    1    2 1     
    2    1    3 1     
    3    2    4 ar    
    4    2    5 ar    
    5    3    6 1     
    6    4    7 1     
    7    4    8 ar    
    8    5    9 ar    
    9    7   10 1     
   10    8   11 ar    
   11    9   12 ar    
   12   11   13 ar    
   13   12   14 ar    
   14   13   15 ar    
   15   13   16 1     
   16   14   17 1     
   17   16   18 1     
   18   18   19 1     
   19   18   20 1     
   20   19   21 ar    
   21   19   22 ar    
   22   21   23 ar    
   23   22   24 ar    
   24   23   25 1     
   25   23   26 ar    
   26   25   27 2     
   27   25   28 1     
   28   27   29 1     
   29   28   30 1     
   30    9   11 ar    
   31   14   15 ar    
   32   24   26 ar    
   33   29   30 2     
   34    3   31 1     
   35    3   32 1     
   36    5   33 1     
   37    6   34 1     
   38    6   35 1     
   39    6   36 1     
   40    8   37 1     
   41   10   38 1     
   42   10   39 1     
   43   10   40 1     
   44   16   41 1     
   45   17   42 1     
   46   17   43 1     
   47   17   44 1     
   48   18   45 1     
   49   20   46 1     
   50   20   47 1     
   51   20   48 1     
   52   21   49 1     
   53   22   50 1     
   54   24   51 1     
   55   26   52 1     
   56   27   53 1     
   57   28   54 1     
   58   28   55 1     
@<TRIPOS>SUBSTRUCTURE
      1 RES1           1
@<TRIPOS>SET
DONOR_HYDROGENS      STATIC     ATOMS    <user>   **** ""
1 41
ATOM$RED        STATIC     ATOMS    COLORGROUP SYSTEM
1 41
@<TRIPOS>COMMENT
> <Gold.Version>
2022.3.0

> <Gold.Id.Protein>
unknown|5ovf_clean|pdb

> <Gold.Protein.ActiveResidues>
 ILE839  VAL852  ILE856  LEU859  VAL871  LEU872  GLU873  VAL874  VAL875  SER876 
 ALA877  MET878  ASN879  SER880  SER881  PRO882  VAL883  TYR884  ARG885  LEU886 
 ASP887  HIS888  THR889  PHE890  GLU891  GLN892  ILE893  PRO894  SER895  ARG896 
 GLN897  LYS898  LYS899  ILE900  LEU901  GLU902  GLU903  ALA904  HIS905  GLU906 
 LEU907  SER908  GLU909  LYS914  GLU836  ILE839  VAL852  ILE855  ILE856  LEU859 
 GLN863  VAL871  LEU872  VAL874  VAL875  SER876  ALA877  MET878  ASN879  SER880 
 SER881  PRO882  VAL883  TYR884  ARG885  LEU886  ASP887  HIS888  THR889  PHE890 
 GLU891  GLN892  ILE893  PRO894  SER895  ARG896  GLN897  LYS898  LYS899  ILE900 
 LEU901  GLU902  GLU903  ALA904  HIS905  GLU906  LEU907  SER908  GLU909  ASP910 
 LYS914 

> <Gold.Score>
     Fitness  S(hb_ext) S(vdw_ext)  S(hb_int)    S(int)      intcor
     61.50       0.00      47.74       0.00      -4.14      -8.15

> <Gold.Goldscore.Fitness>
61.4997

> <Gold.Goldscore.Internal.Vdw>
-2.0150

> <Gold.Goldscore.Internal.Torsion>
-10.2793

> <Gold.Goldscore.External.Vdw>
47.7403

> <Gold.Goldscore.Internal.HBond>
0.0000

> <Gold.Goldscore.External.HBond>
0.0000

> <Gold.Goldscore.Internal.Correction>
-8.1511

> <Gold.Goldscore.Reference.RMSD>
3.9105

> <Gold.Goldscore.Internal.Vdw.Weighted>
-2.0150

> <Gold.Goldscore.Internal.Torsion.Weighted>
-10.2793

> <Gold.Goldscore.External.Vdw.Weighted>
65.6429

> <Gold.Goldscore.Internal.HBond.Weighted>
0.0000

> <Gold.Goldscore.External.HBond.Weighted>
0.0000

> <Gold.Goldscore.Internal.Correction.Weighted>
-8.1511

> <Gold.Rescore>
     Score         DG    S(hbond)    S(metal)    S(lipo)     H(rot)  DE(clash)    DE(int)     intcor
     20.72     -28.94       0.00        0.00     236.13       1.63       6.65       1.57       ----

> <Gold.Chemscore.Fitness>
20.7247

> <Gold.Chemscore.DG>
-28.9362

> <Gold.Chemscore.ZeroCoef>
-5.4800

> <Gold.Chemscore.Hbond>
0.0000

> <Gold.Chemscore.Metal>
0.0000

> <Gold.Chemscore.Lipo>
236.1327

> <Gold.Chemscore.Internal_Hbond>
0.0000

> <Gold.Chemscore.DEClash>
6.6456

> <Gold.Chemscore.DEInternal>
1.5658

> <Gold.Chemscore.Rot>
1.6294

> <Gold.Chemscore.Internal.Correction>
   9.000000E+99

> <Gold.Chemscore.Reference.RMSD>
0.0000

> <Gold.Chemscore.Hbond.Weighted>
-0.0000

> <Gold.Chemscore.Metal.Weighted>
-0.0000

> <Gold.Chemscore.Lipo.Weighted>
-27.6275

> <Gold.Chemscore.Internal_Hbond.Weighted>
0.0000

> <Gold.Chemscore.DEClash.Weighted>
6.6456

> <Gold.Chemscore.DEInternal.Weighted>
1.5658

> <Gold.Chemscore.Rot.Weighted>
4.1713

> <Gold.Chemscore.Internal.Correction.Weighted>
   9.000000E+99

> <Gold.Reference.RMSD>
3.9105

