#       Name:                example_2
#       Creating user name   hitesit
#       Creation time:       Mon Nov  6 23:22:40 2023


#       File generated by GOLD software.
#

@<TRIPOS>MOLECULE
example_2|example_2_prep|mol2|1|dock2
    42    44     1
SMALL
NO_CHARGES


@<TRIPOS>ATOM
      1 O1          20.2165 -29.3355  48.5362 O.3            1 RES1               0.0000
      2 C2          20.7260 -29.8941  47.3902 C.ar           1 RES1               0.0000
      3 C3          21.1354 -28.9505  49.5490 C.3            1 RES1               0.0000
      4 C4          19.7888 -30.2538  46.4089 C.ar           1 RES1               0.0000
      5 C5          22.0875 -30.1250  47.1593 C.ar           1 RES1               0.0000
      6 O6          18.4718 -30.0158  46.7068 O.3            1 RES1               0.0000
      7 C7          20.2415 -30.8232  45.2187 C.ar           1 RES1               0.0000
      8 C8          22.5488 -30.6918  45.9778 C.ar           1 RES1               0.0000
      9 C9          17.5097 -30.2651  45.6916 C.3            1 RES1               0.0000
     10 C10         21.6231 -31.0222  44.9829 C.ar           1 RES1               0.0000
     11 N11         23.8610 -30.9095  45.8414 N.ar           1 RES1               0.0000
     12 C12         22.1681 -31.5759  43.8143 C.ar           1 RES1               0.0000
     13 C13         24.2590 -31.4888  44.7029 C.ar           1 RES1               0.0000
     14 N14         23.4764 -31.8398  43.6779 N.ar           1 RES1               0.0000
     15 N15         21.3887 -31.8982  42.6996 N.pl3          1 RES1               0.0000
     16 C16         21.9894 -32.8585  41.7585 C.3            1 RES1               0.0000
     17 C17         21.6864 -34.2679  42.2546 C.ar           1 RES1               0.0000
     18 C18         21.4849 -32.6906  40.3259 C.3            1 RES1               0.0000
     19 C19         20.3702 -34.7582  42.3007 C.ar           1 RES1               0.0000
     20 C20         22.7300 -35.1046  42.6805 C.ar           1 RES1               0.0000
     21 C21         20.1067 -36.0512  42.7553 C.ar           1 RES1               0.0000
     22 C22         22.4639 -36.3980  43.1345 C.ar           1 RES1               0.0000
     23 C23         21.1536 -36.8707  43.1707 C.ar           1 RES1               0.0000
     24 H1          20.5906 -28.5265  50.3913 H              1 RES1               0.0000
     25 H2          21.8241 -28.2069  49.1508 H              1 RES1               0.0000
     26 H3          21.6957 -29.8231  49.8815 H              1 RES1               0.0000
     27 H4          22.8072 -29.8518  47.9297 H              1 RES1               0.0000
     28 H5          19.5202 -31.1195  44.4584 H              1 RES1               0.0000
     29 H6          16.5150 -30.0330  46.0692 H              1 RES1               0.0000
     30 H7          17.5521 -31.3138  45.4010 H              1 RES1               0.0000
     31 H8          17.7246 -29.6397  44.8264 H              1 RES1               0.0000
     32 H9          25.3236 -31.6942  44.6017 H              1 RES1               0.0000
     33 H10         20.4687 -31.4967  42.5488 H              1 RES1               0.0000
     34 H11         23.0691 -32.7160  41.7628 H              1 RES1               0.0000
     35 H12         21.7051 -31.6820  39.9793 H              1 RES1               0.0000
     36 H13         20.4092 -32.8573  40.2979 H              1 RES1               0.0000
     37 H14         21.9811 -33.4130  39.6793 H              1 RES1               0.0000
     38 H15         19.5469 -34.1224  41.9782 H              1 RES1               0.0000
     39 H16         23.7565 -34.7417  42.6565 H              1 RES1               0.0000
     40 H17         19.0823 -36.4195  42.7853 H              1 RES1               0.0000
     41 H18         23.2819 -37.0384  43.4610 H              1 RES1               0.0000
     42 H19         20.9482 -37.8803  43.5236 H              1 RES1               0.0000
@<TRIPOS>BOND
    1    1    2 1     
    2    1    3 1     
    3    2    4 ar    
    4    2    5 ar    
    5    4    6 1     
    6    4    7 ar    
    7    5    8 ar    
    8    6    9 1     
    9    7   10 ar    
   10    8   11 ar    
   11   10   12 ar    
   12   11   13 ar    
   13   12   14 ar    
   14   12   15 1     
   15   15   16 1     
   16   16   17 1     
   17   16   18 1     
   18   17   19 ar    
   19   17   20 ar    
   20   19   21 ar    
   21   20   22 ar    
   22   21   23 ar    
   23    8   10 ar    
   24   13   14 ar    
   25   22   23 ar    
   26    3   24 1     
   27    3   25 1     
   28    3   26 1     
   29    5   27 1     
   30    7   28 1     
   31    9   29 1     
   32    9   30 1     
   33    9   31 1     
   34   13   32 1     
   35   15   33 1     
   36   16   34 1     
   37   18   35 1     
   38   18   36 1     
   39   18   37 1     
   40   19   38 1     
   41   20   39 1     
   42   21   40 1     
   43   22   41 1     
   44   23   42 1     
@<TRIPOS>SUBSTRUCTURE
      1 RES1           1
@<TRIPOS>SET
DONOR_HYDROGENS      STATIC     ATOMS    <user>   **** ""
1 33
ATOM$RED        STATIC     ATOMS    COLORGROUP SYSTEM
1 33
@<TRIPOS>COMMENT
> <Gold.Version>
2022.3.0

> <Gold.Id.Protein>
unknown|5ovf_clean|pdb

> <Gold.Protein.ActiveResidues>
 ILE839  VAL852  ILE856  LEU859  VAL871  LEU872  GLU873  VAL874  VAL875  SER876 
 ALA877  MET878  ASN879  SER880  SER881  PRO882  VAL883  TYR884  ARG885  LEU886 
 ASP887  HIS888  THR889  PHE890  GLU891  GLN892  ILE893  PRO894  SER895  ARG896 
 GLN897  LYS898  LYS899  ILE900  LEU901  GLU902  GLU903  ALA904  HIS905  GLU906 
 LEU907  SER908  GLU909  LYS914  GLU836  ILE839  VAL852  ILE855  ILE856  LEU859 
 GLN863  VAL871  LEU872  VAL874  VAL875  SER876  ALA877  MET878  ASN879  SER880 
 SER881  PRO882  VAL883  TYR884  ARG885  LEU886  ASP887  HIS888  THR889  PHE890 
 GLU891  GLN892  ILE893  PRO894  SER895  ARG896  GLN897  LYS898  LYS899  ILE900 
 LEU901  GLU902  GLU903  ALA904  HIS905  GLU906  LEU907  SER908  GLU909  ASP910 
 LYS914 

> <Gold.Score>
     Fitness  S(hb_ext) S(vdw_ext)  S(hb_int)    S(int)      intcor
     64.40       1.31      49.21       0.00      -4.57      -7.16

> <Gold.Goldscore.Fitness>
64.3994

> <Gold.Goldscore.Internal.Vdw>
-9.4177

> <Gold.Goldscore.Internal.Torsion>
-2.3091

> <Gold.Goldscore.External.Vdw>
49.2053

> <Gold.Goldscore.Internal.HBond>
0.0000

> <Gold.Goldscore.External.HBond>
1.3126

> <Gold.Goldscore.Internal.Correction>
-7.1563

> <Gold.Goldscore.Reference.RMSD>
5.2698

> <Gold.Goldscore.Hbonds>
donor molecule, donor type, donor heavy atom, donor atom, acceptor molecule, acceptor atom, score
      L1  H    15    33       P1  2553  0.66

> <Gold.Goldscore.Internal.Vdw.Weighted>
-9.4177

> <Gold.Goldscore.Internal.Torsion.Weighted>
-2.3091

> <Gold.Goldscore.External.Vdw.Weighted>
67.6572

> <Gold.Goldscore.Internal.HBond.Weighted>
0.0000

> <Gold.Goldscore.External.HBond.Weighted>
1.3126

> <Gold.Goldscore.Internal.Correction.Weighted>
-7.1563

> <Gold.Rescore>
     Score         DG    S(hbond)    S(metal)    S(lipo)     H(rot)  DE(clash)    DE(int)     intcor
     29.32     -29.96       0.97        0.00     215.69       1.56       0.16       0.48       ----

> <Gold.Chemscore.Fitness>
29.3173

> <Gold.Chemscore.DG>
-29.9564

> <Gold.Chemscore.ZeroCoef>
-5.4800

> <Gold.Chemscore.Hbond>
0.9654

> <Gold.Chemscore.Metal>
0.0000

> <Gold.Chemscore.Lipo>
215.6882

> <Gold.Chemscore.Internal_Hbond>
0.0000

> <Gold.Chemscore.DEClash>
0.1616

> <Gold.Chemscore.DEInternal>
0.4774

> <Gold.Chemscore.Rot>
1.5560

> <Gold.Chemscore.Internal.Correction>
   9.000000E+99

> <Gold.Chemscore.Reference.RMSD>
0.0000

> <Gold.Chemscore.Hbonds>
donor molecule, donor type, donor heavy atom, donor atom, acceptor molecule, acceptor atom, score
      L1  H    15    33       P1  2553  0.93

> <Gold.Chemscore.Hbond.Weighted>
-3.2243

> <Gold.Chemscore.Metal.Weighted>
-0.0000

> <Gold.Chemscore.Lipo.Weighted>
-25.2355

> <Gold.Chemscore.Internal_Hbond.Weighted>
0.0000

> <Gold.Chemscore.DEClash.Weighted>
0.1616

> <Gold.Chemscore.DEInternal.Weighted>
0.4774

> <Gold.Chemscore.Rot.Weighted>
3.9834

> <Gold.Chemscore.Internal.Correction.Weighted>
   9.000000E+99

> <Gold.Reference.RMSD>
5.2698

#       Name:                example_2
#       Creating user name   hitesit
#       Creation time:       Mon Nov  6 23:22:36 2023


#       File generated by GOLD software.
#

@<TRIPOS>MOLECULE
example_2|example_2_prep|mol2|1|dock1
    42    44     1
SMALL
NO_CHARGES


@<TRIPOS>ATOM
      1 O1          20.1896 -29.0999  48.5701 O.3            1 RES1               0.0000
      2 C2          20.6906 -29.7200  47.4523 C.ar           1 RES1               0.0000
      3 C3          21.1137 -28.6865  49.5669 C.3            1 RES1               0.0000
      4 C4          19.7478 -30.1142  46.4898 C.ar           1 RES1               0.0000
      5 C5          22.0487 -29.9799  47.2325 C.ar           1 RES1               0.0000
      6 O6          18.4343 -29.8445  46.7763 O.3            1 RES1               0.0000
      7 C7          20.1916 -30.7465  45.3284 C.ar           1 RES1               0.0000
      8 C8          22.5013 -30.6093  46.0796 C.ar           1 RES1               0.0000
      9 C9          17.4614 -30.1889  45.7999 C.3            1 RES1               0.0000
     10 C10         21.5703 -30.9751  45.1021 C.ar           1 RES1               0.0000
     11 N11         23.8103 -30.8508  45.9534 N.ar           1 RES1               0.0000
     12 C12         22.1068 -31.5918  43.9615 C.ar           1 RES1               0.0000
     13 C13         24.1995 -31.4897  44.8442 C.ar           1 RES1               0.0000
     14 N14         23.4113 -31.8794  43.8375 N.ar           1 RES1               0.0000
     15 N15         21.3221 -31.9572  42.8639 N.pl3          1 RES1               0.0000
     16 C16         21.9770 -32.8299  41.8750 C.3            1 RES1               0.0000
     17 C17         21.8262 -34.2748  42.3378 C.ar           1 RES1               0.0000
     18 C18         21.4086 -32.6723  40.4654 C.3            1 RES1               0.0000
     19 C19         20.5610 -34.8752  42.4551 C.ar           1 RES1               0.0000
     20 C20         22.9622 -35.0337  42.6603 C.ar           1 RES1               0.0000
     21 C21         20.4370 -36.1995  42.8782 C.ar           1 RES1               0.0000
     22 C22         22.8356 -36.3584  43.0830 C.ar           1 RES1               0.0000
     23 C23         21.5742 -36.9406  43.1907 C.ar           1 RES1               0.0000
     24 H1          20.5756 -28.2140  50.3873 H              1 RES1               0.0000
     25 H2          21.8173 -27.9751  49.1369 H              1 RES1               0.0000
     26 H3          21.6567 -29.5534  49.9405 H              1 RES1               0.0000
     27 H4          22.7726 -29.6794  47.9885 H              1 RES1               0.0000
     28 H5          19.4658 -31.0695  44.5836 H              1 RES1               0.0000
     29 H6          16.4711 -29.9182  46.1630 H              1 RES1               0.0000
     30 H7          17.4989 -31.2610  45.6125 H              1 RES1               0.0000
     31 H8          17.6686 -29.6514  44.8758 H              1 RES1               0.0000
     32 H9          25.2612 -31.7140  44.7527 H              1 RES1               0.0000
     33 H10         20.3635 -31.6416  42.7557 H              1 RES1               0.0000
     34 H11         23.0379 -32.5854  41.8483 H              1 RES1               0.0000
     35 H12         21.5201 -31.6382  40.1425 H              1 RES1               0.0000
     36 H13         20.3530 -32.9400  40.4676 H              1 RES1               0.0000
     37 H14         21.9475 -33.3263  39.7814 H              1 RES1               0.0000
     38 H15         19.6678 -34.3011  42.2133 H              1 RES1               0.0000
     39 H16         23.9513 -34.5852  42.5800 H              1 RES1               0.0000
     40 H17         19.4508 -36.6534  42.9641 H              1 RES1               0.0000
     41 H18         23.7243 -36.9377  43.3290 H              1 RES1               0.0000
     42 H19         21.4775 -37.9745  43.5190 H              1 RES1               0.0000
@<TRIPOS>BOND
    1    1    2 1     
    2    1    3 1     
    3    2    4 ar    
    4    2    5 ar    
    5    4    6 1     
    6    4    7 ar    
    7    5    8 ar    
    8    6    9 1     
    9    7   10 ar    
   10    8   11 ar    
   11   10   12 ar    
   12   11   13 ar    
   13   12   14 ar    
   14   12   15 1     
   15   15   16 1     
   16   16   17 1     
   17   16   18 1     
   18   17   19 ar    
   19   17   20 ar    
   20   19   21 ar    
   21   20   22 ar    
   22   21   23 ar    
   23    8   10 ar    
   24   13   14 ar    
   25   22   23 ar    
   26    3   24 1     
   27    3   25 1     
   28    3   26 1     
   29    5   27 1     
   30    7   28 1     
   31    9   29 1     
   32    9   30 1     
   33    9   31 1     
   34   13   32 1     
   35   15   33 1     
   36   16   34 1     
   37   18   35 1     
   38   18   36 1     
   39   18   37 1     
   40   19   38 1     
   41   20   39 1     
   42   21   40 1     
   43   22   41 1     
   44   23   42 1     
@<TRIPOS>SUBSTRUCTURE
      1 RES1           1
@<TRIPOS>SET
DONOR_HYDROGENS      STATIC     ATOMS    <user>   **** ""
1 33
ATOM$RED        STATIC     ATOMS    COLORGROUP SYSTEM
1 33
@<TRIPOS>COMMENT
> <Gold.Version>
2022.3.0

> <Gold.Id.Protein>
unknown|5ovf_clean|pdb

> <Gold.Protein.ActiveResidues>
 ILE839  VAL852  ILE856  LEU859  VAL871  LEU872  GLU873  VAL874  VAL875  SER876 
 ALA877  MET878  ASN879  SER880  SER881  PRO882  VAL883  TYR884  ARG885  LEU886 
 ASP887  HIS888  THR889  PHE890  GLU891  GLN892  ILE893  PRO894  SER895  ARG896 
 GLN897  LYS898  LYS899  ILE900  LEU901  GLU902  GLU903  ALA904  HIS905  GLU906 
 LEU907  SER908  GLU909  LYS914  GLU836  ILE839  VAL852  ILE855  ILE856  LEU859 
 GLN863  VAL871  LEU872  VAL874  VAL875  SER876  ALA877  MET878  ASN879  SER880 
 SER881  PRO882  VAL883  TYR884  ARG885  LEU886  ASP887  HIS888  THR889  PHE890 
 GLU891  GLN892  ILE893  PRO894  SER895  ARG896  GLN897  LYS898  LYS899  ILE900 
 LEU901  GLU902  GLU903  ALA904  HIS905  GLU906  LEU907  SER908  GLU909  ASP910 
 LYS914 

> <Gold.Score>
     Fitness  S(hb_ext) S(vdw_ext)  S(hb_int)    S(int)      intcor
     64.15       1.97      48.50       0.00      -4.51      -7.20

> <Gold.Goldscore.Fitness>
64.1466

> <Gold.Goldscore.Internal.Vdw>
-9.8804

> <Gold.Goldscore.Internal.Torsion>
-1.8338

> <Gold.Goldscore.External.Vdw>
48.5011

> <Gold.Goldscore.Internal.HBond>
0.0000

> <Gold.Goldscore.External.HBond>
1.9711

> <Gold.Goldscore.Internal.Correction>
-7.2007

> <Gold.Goldscore.Reference.RMSD>
5.3319

> <Gold.Goldscore.Hbonds>
donor molecule, donor type, donor heavy atom, donor atom, acceptor molecule, acceptor atom, score
      L1  H    15    33       P1  2553  0.99

> <Gold.Goldscore.Internal.Vdw.Weighted>
-9.8804

> <Gold.Goldscore.Internal.Torsion.Weighted>
-1.8338

> <Gold.Goldscore.External.Vdw.Weighted>
66.6891

> <Gold.Goldscore.Internal.HBond.Weighted>
0.0000

> <Gold.Goldscore.External.HBond.Weighted>
1.9711

> <Gold.Goldscore.Internal.Correction.Weighted>
-7.2007

> <Gold.Rescore>
     Score         DG    S(hbond)    S(metal)    S(lipo)     H(rot)  DE(clash)    DE(int)     intcor
     29.77     -30.20       0.97        0.00     217.74       1.56       0.01       0.43       ----

> <Gold.Chemscore.Fitness>
29.7688

> <Gold.Chemscore.DG>
-30.2039

> <Gold.Chemscore.ZeroCoef>
-5.4800

> <Gold.Chemscore.Hbond>
0.9675

> <Gold.Chemscore.Metal>
0.0000

> <Gold.Chemscore.Lipo>
217.7420

> <Gold.Chemscore.Internal_Hbond>
0.0000

> <Gold.Chemscore.DEClash>
0.0077

> <Gold.Chemscore.DEInternal>
0.4274

> <Gold.Chemscore.Rot>
1.5560

> <Gold.Chemscore.Internal.Correction>
   9.000000E+99

> <Gold.Chemscore.Reference.RMSD>
0.0000

> <Gold.Chemscore.Hbonds>
donor molecule, donor type, donor heavy atom, donor atom, acceptor molecule, acceptor atom, score
      L1  H    15    33       P1  2553  0.97

> <Gold.Chemscore.Hbond.Weighted>
-3.2315

> <Gold.Chemscore.Metal.Weighted>
-0.0000

> <Gold.Chemscore.Lipo.Weighted>
-25.4758

> <Gold.Chemscore.Internal_Hbond.Weighted>
0.0000

> <Gold.Chemscore.DEClash.Weighted>
0.0077

> <Gold.Chemscore.DEInternal.Weighted>
0.4274

> <Gold.Chemscore.Rot.Weighted>
3.9834

> <Gold.Chemscore.Internal.Correction.Weighted>
   9.000000E+99

> <Gold.Reference.RMSD>
5.3319

#       Name:                example_2
#       Creating user name   hitesit
#       Creation time:       Mon Nov  6 23:22:49 2023


#       File generated by GOLD software.
#

@<TRIPOS>MOLECULE
example_2|example_2_prep|mol2|1|dock4
    42    44     1
SMALL
NO_CHARGES


@<TRIPOS>ATOM
      1 O1          20.3128 -28.9710  48.4634 O.3            1 RES1               0.0000
      2 C2          20.7637 -29.6393  47.3520 C.ar           1 RES1               0.0000
      3 C3          21.2765 -28.5541  49.4203 C.3            1 RES1               0.0000
      4 C4          19.7871 -30.0030  46.4114 C.ar           1 RES1               0.0000
      5 C5          22.1029 -29.9747  47.1187 C.ar           1 RES1               0.0000
      6 O6          18.4940 -29.6589  46.7106 O.3            1 RES1               0.0000
      7 C7          20.1797 -30.6813  45.2576 C.ar           1 RES1               0.0000
      8 C8          22.5045 -30.6504  45.9732 C.ar           1 RES1               0.0000
      9 C9          17.4863 -29.9951  45.7672 C.3            1 RES1               0.0000
     10 C10         21.5410 -30.9866  45.0168 C.ar           1 RES1               0.0000
     11 N11         23.7970 -30.9629  45.8338 N.ar           1 RES1               0.0000
     12 C12         22.0272 -31.6538  43.8821 C.ar           1 RES1               0.0000
     13 C13         24.1355 -31.6439  44.7330 C.ar           1 RES1               0.0000
     14 N14         23.3129 -32.0120  43.7460 N.ar           1 RES1               0.0000
     15 N15         21.2080 -31.9998  42.8037 N.pl3          1 RES1               0.0000
     16 C16         21.8154 -32.8939  41.8035 C.3            1 RES1               0.0000
     17 C17         21.6442 -34.3318  42.2805 C.ar           1 RES1               0.0000
     18 C18         21.2123 -32.7323  40.4088 C.3            1 RES1               0.0000
     19 C19         22.7542 -35.1294  42.6073 C.ar           1 RES1               0.0000
     20 C20         20.3604 -34.8870  42.3984 C.ar           1 RES1               0.0000
     21 C21         22.5835 -36.4438  43.0446 C.ar           1 RES1               0.0000
     22 C22         20.1920 -36.2022  42.8364 C.ar           1 RES1               0.0000
     23 C23         21.3027 -36.9790  43.1601 C.ar           1 RES1               0.0000
     24 H1          20.7757 -28.0414  50.2402 H              1 RES1               0.0000
     25 H2          21.9870 -27.8768  48.9486 H              1 RES1               0.0000
     26 H3          21.8056 -29.4244  49.8056 H              1 RES1               0.0000
     27 H4          22.8529 -29.6973  47.8579 H              1 RES1               0.0000
     28 H5          19.4269 -30.9809  44.5300 H              1 RES1               0.0000
     29 H6          16.5175 -29.6625  46.1369 H              1 RES1               0.0000
     30 H7          17.4690 -31.0745  45.6237 H              1 RES1               0.0000
     31 H8          17.6999 -29.5061  44.8180 H              1 RES1               0.0000
     32 H9          25.1825 -31.9254  44.6314 H              1 RES1               0.0000
     33 H10         20.2566 -31.6573  42.7157 H              1 RES1               0.0000
     34 H11         22.8805 -32.6741  41.7461 H              1 RES1               0.0000
     35 H12         21.3386 -31.7032  40.0756 H              1 RES1               0.0000
     36 H13         20.1513 -32.9755  40.4417 H              1 RES1               0.0000
     37 H14         21.7171 -33.4031  39.7150 H              1 RES1               0.0000
     38 H15         23.7584 -34.7175  42.5184 H              1 RES1               0.0000
     39 H16         19.4876 -34.2866  42.1458 H              1 RES1               0.0000
     40 H17         23.4519 -37.0511  43.2955 H              1 RES1               0.0000
     41 H18         19.1910 -36.6215  42.9253 H              1 RES1               0.0000
     42 H19         21.1694 -38.0039  43.5032 H              1 RES1               0.0000
@<TRIPOS>BOND
    1    1    2 1     
    2    1    3 1     
    3    2    4 ar    
    4    2    5 ar    
    5    4    6 1     
    6    4    7 ar    
    7    5    8 ar    
    8    6    9 1     
    9    7   10 ar    
   10    8   11 ar    
   11   10   12 ar    
   12   11   13 ar    
   13   12   14 ar    
   14   12   15 1     
   15   15   16 1     
   16   16   17 1     
   17   16   18 1     
   18   17   19 ar    
   19   17   20 ar    
   20   19   21 ar    
   21   20   22 ar    
   22   21   23 ar    
   23    8   10 ar    
   24   13   14 ar    
   25   22   23 ar    
   26    3   24 1     
   27    3   25 1     
   28    3   26 1     
   29    5   27 1     
   30    7   28 1     
   31    9   29 1     
   32    9   30 1     
   33    9   31 1     
   34   13   32 1     
   35   15   33 1     
   36   16   34 1     
   37   18   35 1     
   38   18   36 1     
   39   18   37 1     
   40   19   38 1     
   41   20   39 1     
   42   21   40 1     
   43   22   41 1     
   44   23   42 1     
@<TRIPOS>SUBSTRUCTURE
      1 RES1           1
@<TRIPOS>SET
DONOR_HYDROGENS      STATIC     ATOMS    <user>   **** ""
1 33
ATOM$RED        STATIC     ATOMS    COLORGROUP SYSTEM
1 33
@<TRIPOS>COMMENT
> <Gold.Version>
2022.3.0

> <Gold.Id.Protein>
unknown|5ovf_clean|pdb

> <Gold.Protein.ActiveResidues>
 ILE839  VAL852  ILE856  LEU859  VAL871  LEU872  GLU873  VAL874  VAL875  SER876 
 ALA877  MET878  ASN879  SER880  SER881  PRO882  VAL883  TYR884  ARG885  LEU886 
 ASP887  HIS888  THR889  PHE890  GLU891  GLN892  ILE893  PRO894  SER895  ARG896 
 GLN897  LYS898  LYS899  ILE900  LEU901  GLU902  GLU903  ALA904  HIS905  GLU906 
 LEU907  SER908  GLU909  LYS914  GLU836  ILE839  VAL852  ILE855  ILE856  LEU859 
 GLN863  VAL871  LEU872  VAL874  VAL875  SER876  ALA877  MET878  ASN879  SER880 
 SER881  PRO882  VAL883  TYR884  ARG885  LEU886  ASP887  HIS888  THR889  PHE890 
 GLU891  GLN892  ILE893  PRO894  SER895  ARG896  GLN897  LYS898  LYS899  ILE900 
 LEU901  GLU902  GLU903  ALA904  HIS905  GLU906  LEU907  SER908  GLU909  ASP910 
 LYS914 

> <Gold.Score>
     Fitness  S(hb_ext) S(vdw_ext)  S(hb_int)    S(int)      intcor
     63.63       1.93      48.31       0.00      -4.72      -7.16

> <Gold.Goldscore.Fitness>
63.6300

> <Gold.Goldscore.Internal.Vdw>
-10.1201

> <Gold.Goldscore.Internal.Torsion>
-1.7601

> <Gold.Goldscore.External.Vdw>
48.3099

> <Gold.Goldscore.Internal.HBond>
0.0000

> <Gold.Goldscore.External.HBond>
1.9277

> <Gold.Goldscore.Internal.Correction>
-7.1563

> <Gold.Goldscore.Reference.RMSD>
5.3376

> <Gold.Goldscore.Hbonds>
donor molecule, donor type, donor heavy atom, donor atom, acceptor molecule, acceptor atom, score
      L1  H    15    33       P1  2553  0.96

> <Gold.Goldscore.Internal.Vdw.Weighted>
-10.1201

> <Gold.Goldscore.Internal.Torsion.Weighted>
-1.7601

> <Gold.Goldscore.External.Vdw.Weighted>
66.4261

> <Gold.Goldscore.Internal.HBond.Weighted>
0.0000

> <Gold.Goldscore.External.HBond.Weighted>
1.9277

> <Gold.Goldscore.Internal.Correction.Weighted>
-7.1563

> <Gold.Rescore>
     Score         DG    S(hbond)    S(metal)    S(lipo)     H(rot)  DE(clash)    DE(int)     intcor
     29.71     -30.29       0.93        0.00     219.68       1.56       0.17       0.41       ----

> <Gold.Chemscore.Fitness>
29.7078

> <Gold.Chemscore.DG>
-30.2926

> <Gold.Chemscore.ZeroCoef>
-5.4800

> <Gold.Chemscore.Hbond>
0.9261

> <Gold.Chemscore.Metal>
0.0000

> <Gold.Chemscore.Lipo>
219.6837

> <Gold.Chemscore.Internal_Hbond>
0.0000

> <Gold.Chemscore.DEClash>
0.1731

> <Gold.Chemscore.DEInternal>
0.4118

> <Gold.Chemscore.Rot>
1.5560

> <Gold.Chemscore.Internal.Correction>
   9.000000E+99

> <Gold.Chemscore.Reference.RMSD>
0.0000

> <Gold.Chemscore.Hbonds>
donor molecule, donor type, donor heavy atom, donor atom, acceptor molecule, acceptor atom, score
      L1  H    15    33       P1  2553  0.84

> <Gold.Chemscore.Hbond.Weighted>
-3.0931

> <Gold.Chemscore.Metal.Weighted>
-0.0000

> <Gold.Chemscore.Lipo.Weighted>
-25.7030

> <Gold.Chemscore.Internal_Hbond.Weighted>
0.0000

> <Gold.Chemscore.DEClash.Weighted>
0.1731

> <Gold.Chemscore.DEInternal.Weighted>
0.4118

> <Gold.Chemscore.Rot.Weighted>
3.9834

> <Gold.Chemscore.Internal.Correction.Weighted>
   9.000000E+99

> <Gold.Reference.RMSD>
5.3376

#       Name:                example_2
#       Creating user name   hitesit
#       Creation time:       Mon Nov  6 23:23:02 2023


#       File generated by GOLD software.
#

@<TRIPOS>MOLECULE
example_2|example_2_prep|mol2|1|dock7
    42    44     1
SMALL
NO_CHARGES


@<TRIPOS>ATOM
      1 O1          20.5578 -28.5958  48.2623 O.3            1 RES1               0.0000
      2 C2          21.0103 -29.3353  47.1977 C.ar           1 RES1               0.0000
      3 C3          21.5213 -28.1073  49.1850 C.3            1 RES1               0.0000
      4 C4          20.0335 -29.7709  46.2885 C.ar           1 RES1               0.0000
      5 C5          22.3515 -29.6750  46.9824 C.ar           1 RES1               0.0000
      6 O6          18.7386 -29.4176  46.5686 O.3            1 RES1               0.0000
      7 C7          20.4277 -30.5238  45.1824 C.ar           1 RES1               0.0000
      8 C8          22.7546 -30.4246  45.8844 C.ar           1 RES1               0.0000
      9 C9          17.7253 -29.8628  45.6778 C.3            1 RES1               0.0000
     10 C10         21.7906 -30.8338  44.9575 C.ar           1 RES1               0.0000
     11 N11         24.0493 -30.7354  45.7615 N.ar           1 RES1               0.0000
     12 C12         22.2783 -31.5735  43.8694 C.ar           1 RES1               0.0000
     13 C13         24.3895 -31.4878  44.7088 C.ar           1 RES1               0.0000
     14 N14         23.5665 -31.9297  43.7529 N.ar           1 RES1               0.0000
     15 N15         21.4581 -31.9997  42.8207 N.pl3          1 RES1               0.0000
     16 C16         22.1042 -32.8616  41.8166 C.3            1 RES1               0.0000
     17 C17         21.9999 -34.3075  42.2891 C.ar           1 RES1               0.0000
     18 C18         21.4920 -32.7233  40.4234 C.3            1 RES1               0.0000
     19 C19         20.7546 -34.9474  42.4109 C.ar           1 RES1               0.0000
     20 C20         23.1597 -35.0274  42.6161 C.ar           1 RES1               0.0000
     21 C21         20.6732 -36.2721  42.8429 C.ar           1 RES1               0.0000
     22 C22         23.0757 -36.3527  43.0476 C.ar           1 RES1               0.0000
     23 C23         21.8337 -36.9743  43.1597 C.ar           1 RES1               0.0000
     24 H1          21.0192 -27.5433  49.9697 H              1 RES1               0.0000
     25 H2          22.2252 -27.4588  48.6656 H              1 RES1               0.0000
     26 H3          22.0581 -28.9453  49.6271 H              1 RES1               0.0000
     27 H4          23.1018 -29.3412  47.6977 H              1 RES1               0.0000
     28 H5          19.6747 -30.8789  44.4803 H              1 RES1               0.0000
     29 H6          16.7557 -29.5089  46.0249 H              1 RES1               0.0000
     30 H7          17.7239 -30.9513  45.6446 H              1 RES1               0.0000
     31 H8          17.9197 -29.4694  44.6812 H              1 RES1               0.0000
     32 H9          25.4385 -31.7671  44.6224 H              1 RES1               0.0000
     33 H10         20.4811 -31.7324  42.7557 H              1 RES1               0.0000
     34 H11         23.1580 -32.5931  41.7584 H              1 RES1               0.0000
     35 H12         21.5705 -31.6884  40.0935 H              1 RES1               0.0000
     36 H13         20.4433 -33.0150  40.4571 H              1 RES1               0.0000
     37 H14         22.0258 -33.3679  39.7267 H              1 RES1               0.0000
     38 H15         19.8434 -34.4038  42.1657 H              1 RES1               0.0000
     39 H16         24.1339 -34.5480  42.5323 H              1 RES1               0.0000
     40 H17         19.7021 -36.7568  42.9323 H              1 RES1               0.0000
     41 H18         23.9826 -36.9016  43.2970 H              1 RES1               0.0000
     42 H19         21.7703 -38.0086  43.4949 H              1 RES1               0.0000
@<TRIPOS>BOND
    1    1    2 1     
    2    1    3 1     
    3    2    4 ar    
    4    2    5 ar    
    5    4    6 1     
    6    4    7 ar    
    7    5    8 ar    
    8    6    9 1     
    9    7   10 ar    
   10    8   11 ar    
   11   10   12 ar    
   12   11   13 ar    
   13   12   14 ar    
   14   12   15 1     
   15   15   16 1     
   16   16   17 1     
   17   16   18 1     
   18   17   19 ar    
   19   17   20 ar    
   20   19   21 ar    
   21   20   22 ar    
   22   21   23 ar    
   23    8   10 ar    
   24   13   14 ar    
   25   22   23 ar    
   26    3   24 1     
   27    3   25 1     
   28    3   26 1     
   29    5   27 1     
   30    7   28 1     
   31    9   29 1     
   32    9   30 1     
   33    9   31 1     
   34   13   32 1     
   35   15   33 1     
   36   16   34 1     
   37   18   35 1     
   38   18   36 1     
   39   18   37 1     
   40   19   38 1     
   41   20   39 1     
   42   21   40 1     
   43   22   41 1     
   44   23   42 1     
@<TRIPOS>SUBSTRUCTURE
      1 RES1           1
@<TRIPOS>SET
DONOR_HYDROGENS      STATIC     ATOMS    <user>   **** ""
1 33
ATOM$RED        STATIC     ATOMS    COLORGROUP SYSTEM
1 33
@<TRIPOS>COMMENT
> <Gold.Version>
2022.3.0

> <Gold.Id.Protein>
unknown|5ovf_clean|pdb

> <Gold.Protein.ActiveResidues>
 ILE839  VAL852  ILE856  LEU859  VAL871  LEU872  GLU873  VAL874  VAL875  SER876 
 ALA877  MET878  ASN879  SER880  SER881  PRO882  VAL883  TYR884  ARG885  LEU886 
 ASP887  HIS888  THR889  PHE890  GLU891  GLN892  ILE893  PRO894  SER895  ARG896 
 GLN897  LYS898  LYS899  ILE900  LEU901  GLU902  GLU903  ALA904  HIS905  GLU906 
 LEU907  SER908  GLU909  LYS914  GLU836  ILE839  VAL852  ILE855  ILE856  LEU859 
 GLN863  VAL871  LEU872  VAL874  VAL875  SER876  ALA877  MET878  ASN879  SER880 
 SER881  PRO882  VAL883  TYR884  ARG885  LEU886  ASP887  HIS888  THR889  PHE890 
 GLU891  GLN892  ILE893  PRO894  SER895  ARG896  GLN897  LYS898  LYS899  ILE900 
 LEU901  GLU902  GLU903  ALA904  HIS905  GLU906  LEU907  SER908  GLU909  ASP910 
 LYS914 

> <Gold.Score>
     Fitness  S(hb_ext) S(vdw_ext)  S(hb_int)    S(int)      intcor
     63.12       2.00      48.21       0.00      -5.16      -7.16

> <Gold.Goldscore.Fitness>
63.1245

> <Gold.Goldscore.Internal.Vdw>
-10.7076

> <Gold.Goldscore.Internal.Torsion>
-1.6108

> <Gold.Goldscore.External.Vdw>
48.2085

> <Gold.Goldscore.Internal.HBond>
0.0000

> <Gold.Goldscore.External.HBond>
2.0000

> <Gold.Goldscore.Internal.Correction>
-7.1563

> <Gold.Goldscore.Reference.RMSD>
5.4008

> <Gold.Goldscore.Hbonds>
donor molecule, donor type, donor heavy atom, donor atom, acceptor molecule, acceptor atom, score
      L1  H    15    33       P1  2553  1.00

> <Gold.Goldscore.Internal.Vdw.Weighted>
-10.7076

> <Gold.Goldscore.Internal.Torsion.Weighted>
-1.6108

> <Gold.Goldscore.External.Vdw.Weighted>
66.2866

> <Gold.Goldscore.Internal.HBond.Weighted>
0.0000

> <Gold.Goldscore.External.HBond.Weighted>
2.0000

> <Gold.Goldscore.Internal.Correction.Weighted>
-7.1563

> <Gold.Rescore>
     Score         DG    S(hbond)    S(metal)    S(lipo)     H(rot)  DE(clash)    DE(int)     intcor
     29.65     -30.18       1.00        0.00     216.79       1.56       0.09       0.45       ----

> <Gold.Chemscore.Fitness>
29.6459

> <Gold.Chemscore.DG>
-30.1849

> <Gold.Chemscore.ZeroCoef>
-5.4800

> <Gold.Chemscore.Hbond>
0.9953

> <Gold.Chemscore.Metal>
0.0000

> <Gold.Chemscore.Lipo>
216.7860

> <Gold.Chemscore.Internal_Hbond>
0.0000

> <Gold.Chemscore.DEClash>
0.0889

> <Gold.Chemscore.DEInternal>
0.4501

> <Gold.Chemscore.Rot>
1.5560

> <Gold.Chemscore.Internal.Correction>
   9.000000E+99

> <Gold.Chemscore.Reference.RMSD>
0.0000

> <Gold.Chemscore.Hbonds>
donor molecule, donor type, donor heavy atom, donor atom, acceptor molecule, acceptor atom, score
      L1  H    15    33       P1  2553  1.00

> <Gold.Chemscore.Hbond.Weighted>
-3.3244

> <Gold.Chemscore.Metal.Weighted>
-0.0000

> <Gold.Chemscore.Lipo.Weighted>
-25.3640

> <Gold.Chemscore.Internal_Hbond.Weighted>
0.0000

> <Gold.Chemscore.DEClash.Weighted>
0.0889

> <Gold.Chemscore.DEInternal.Weighted>
0.4501

> <Gold.Chemscore.Rot.Weighted>
3.9834

> <Gold.Chemscore.Internal.Correction.Weighted>
   9.000000E+99

> <Gold.Reference.RMSD>
5.4008

#       Name:                example_2
#       Creating user name   hitesit
#       Creation time:       Mon Nov  6 23:23:11 2023


#       File generated by GOLD software.
#

@<TRIPOS>MOLECULE
example_2|example_2_prep|mol2|1|dock9
    42    44     1
SMALL
NO_CHARGES


@<TRIPOS>ATOM
      1 O1          19.8585 -28.8536  48.4592 O.3            1 RES1               0.0000
      2 C2          20.3713 -29.5232  47.3758 C.ar           1 RES1               0.0000
      3 C3          20.7779 -28.3064  49.3938 C.3            1 RES1               0.0000
      4 C4          19.4331 -30.0406  46.4688 C.ar           1 RES1               0.0000
      5 C5          21.7374 -29.7189  47.1398 C.ar           1 RES1               0.0000
      6 O6          18.1123 -29.8277  46.7694 O.3            1 RES1               0.0000
      7 C7          19.8886 -30.7287  45.3442 C.ar           1 RES1               0.0000
      8 C8          22.2017 -30.4030  46.0233 C.ar           1 RES1               0.0000
      9 C9          17.1435 -30.2369  45.8142 C.3            1 RES1               0.0000
     10 C10         21.2733 -30.8925  45.0990 C.ar           1 RES1               0.0000
     11 N11         23.5198 -30.5765  45.8807 N.ar           1 RES1               0.0000
     12 C12         21.8208 -31.5583  43.9916 C.ar           1 RES1               0.0000
     13 C13         23.9223 -31.2707  44.8101 C.ar           1 RES1               0.0000
     14 N14         23.1372 -31.7777  43.8546 N.ar           1 RES1               0.0000
     15 N15         21.0357 -32.0476  42.9437 N.pl3          1 RES1               0.0000
     16 C16         21.7416 -32.8768  41.9524 C.3            1 RES1               0.0000
     17 C17         21.6719 -34.3302  42.4079 C.ar           1 RES1               0.0000
     18 C18         21.1686 -32.7447  40.5420 C.3            1 RES1               0.0000
     19 C19         22.8377 -35.0673  42.6771 C.ar           1 RES1               0.0000
     20 C20         20.4276 -34.9610  42.5634 C.ar           1 RES1               0.0000
     21 C21         22.7598 -36.3967  43.0952 C.ar           1 RES1               0.0000
     22 C22         20.3521 -36.2909  42.9822 C.ar           1 RES1               0.0000
     23 C23         21.5172 -37.0073  43.2487 C.ar           1 RES1               0.0000
     24 H1          20.2303 -27.8088  50.1929 H              1 RES1               0.0000
     25 H2          21.4210 -27.5856  48.8910 H              1 RES1               0.0000
     26 H3          21.3871 -29.1052  49.8141 H              1 RES1               0.0000
     27 H4          22.4583 -29.3226  47.8533 H              1 RES1               0.0000
     28 H5          19.1674 -31.1467  44.6434 H              1 RES1               0.0000
     29 H6          16.1465 -30.0062  46.1866 H              1 RES1               0.0000
     30 H7          17.2293 -31.3095  45.6468 H              1 RES1               0.0000
     31 H8          17.3121 -29.7086  44.8770 H              1 RES1               0.0000
     32 H9          24.9933 -31.4388  44.7072 H              1 RES1               0.0000
     33 H10         20.0439 -31.8446  42.8709 H              1 RES1               0.0000
     34 H11         22.7869 -32.5723  41.9298 H              1 RES1               0.0000
     35 H12         21.2220 -31.7044  40.2244 H              1 RES1               0.0000
     36 H13         20.1299 -33.0719  40.5401 H              1 RES1               0.0000
     37 H14         21.7454 -33.3637  39.8564 H              1 RES1               0.0000
     38 H15         23.8123 -34.5963  42.5583 H              1 RES1               0.0000
     39 H16         19.5126 -34.4081  42.3556 H              1 RES1               0.0000
     40 H17         23.6707 -36.9567  43.3015 H              1 RES1               0.0000
     41 H18         19.3810 -36.7692  43.1007 H              1 RES1               0.0000
     42 H19         21.4564 -38.0439  43.5768 H              1 RES1               0.0000
@<TRIPOS>BOND
    1    1    2 1     
    2    1    3 1     
    3    2    4 ar    
    4    2    5 ar    
    5    4    6 1     
    6    4    7 ar    
    7    5    8 ar    
    8    6    9 1     
    9    7   10 ar    
   10    8   11 ar    
   11   10   12 ar    
   12   11   13 ar    
   13   12   14 ar    
   14   12   15 1     
   15   15   16 1     
   16   16   17 1     
   17   16   18 1     
   18   17   19 ar    
   19   17   20 ar    
   20   19   21 ar    
   21   20   22 ar    
   22   21   23 ar    
   23    8   10 ar    
   24   13   14 ar    
   25   22   23 ar    
   26    3   24 1     
   27    3   25 1     
   28    3   26 1     
   29    5   27 1     
   30    7   28 1     
   31    9   29 1     
   32    9   30 1     
   33    9   31 1     
   34   13   32 1     
   35   15   33 1     
   36   16   34 1     
   37   18   35 1     
   38   18   36 1     
   39   18   37 1     
   40   19   38 1     
   41   20   39 1     
   42   21   40 1     
   43   22   41 1     
   44   23   42 1     
@<TRIPOS>SUBSTRUCTURE
      1 RES1           1
@<TRIPOS>SET
DONOR_HYDROGENS      STATIC     ATOMS    <user>   **** ""
1 33
ATOM$RED        STATIC     ATOMS    COLORGROUP SYSTEM
1 33
@<TRIPOS>COMMENT
> <Gold.Version>
2022.3.0

> <Gold.Id.Protein>
unknown|5ovf_clean|pdb

> <Gold.Protein.ActiveResidues>
 ILE839  VAL852  ILE856  LEU859  VAL871  LEU872  GLU873  VAL874  VAL875  SER876 
 ALA877  MET878  ASN879  SER880  SER881  PRO882  VAL883  TYR884  ARG885  LEU886 
 ASP887  HIS888  THR889  PHE890  GLU891  GLN892  ILE893  PRO894  SER895  ARG896 
 GLN897  LYS898  LYS899  ILE900  LEU901  GLU902  GLU903  ALA904  HIS905  GLU906 
 LEU907  SER908  GLU909  LYS914  GLU836  ILE839  VAL852  ILE855  ILE856  LEU859 
 GLN863  VAL871  LEU872  VAL874  VAL875  SER876  ALA877  MET878  ASN879  SER880 
 SER881  PRO882  VAL883  TYR884  ARG885  LEU886  ASP887  HIS888  THR889  PHE890 
 GLU891  GLN892  ILE893  PRO894  SER895  ARG896  GLN897  LYS898  LYS899  ILE900 
 LEU901  GLU902  GLU903  ALA904  HIS905  GLU906  LEU907  SER908  GLU909  ASP910 
 LYS914 

> <Gold.Score>
     Fitness  S(hb_ext) S(vdw_ext)  S(hb_int)    S(int)      intcor
     62.47       1.89      48.06       0.00      -5.51      -7.16

> <Gold.Goldscore.Fitness>
62.4670

> <Gold.Goldscore.Internal.Vdw>
-10.9633

> <Gold.Goldscore.Internal.Torsion>
-1.7029

> <Gold.Goldscore.External.Vdw>
48.0637

> <Gold.Goldscore.Internal.HBond>
0.0000

> <Gold.Goldscore.External.HBond>
1.8893

> <Gold.Goldscore.Internal.Correction>
-7.1563

> <Gold.Goldscore.Reference.RMSD>
5.3851

> <Gold.Goldscore.Hbonds>
donor molecule, donor type, donor heavy atom, donor atom, acceptor molecule, acceptor atom, score
      L1  H    15    33       P1  2553  0.94

> <Gold.Goldscore.Internal.Vdw.Weighted>
-10.9633

> <Gold.Goldscore.Internal.Torsion.Weighted>
-1.7029

> <Gold.Goldscore.External.Vdw.Weighted>
66.0876

> <Gold.Goldscore.Internal.HBond.Weighted>
0.0000

> <Gold.Goldscore.External.HBond.Weighted>
1.8893

> <Gold.Goldscore.Internal.Correction.Weighted>
-7.1563

> <Gold.Rescore>
     Score         DG    S(hbond)    S(metal)    S(lipo)     H(rot)  DE(clash)    DE(int)     intcor
     29.04     -29.94       0.93        0.00     216.41       1.56       0.50       0.40       ----

> <Gold.Chemscore.Fitness>
29.0437

> <Gold.Chemscore.DG>
-29.9379

> <Gold.Chemscore.ZeroCoef>
-5.4800

> <Gold.Chemscore.Hbond>
0.9347

> <Gold.Chemscore.Metal>
0.0000

> <Gold.Chemscore.Lipo>
216.4068

> <Gold.Chemscore.Internal_Hbond>
0.0000

> <Gold.Chemscore.DEClash>
0.4975

> <Gold.Chemscore.DEInternal>
0.3968

> <Gold.Chemscore.Rot>
1.5560

> <Gold.Chemscore.Internal.Correction>
   9.000000E+99

> <Gold.Chemscore.Reference.RMSD>
0.0000

> <Gold.Chemscore.Hbonds>
donor molecule, donor type, donor heavy atom, donor atom, acceptor molecule, acceptor atom, score
      L1  H    15    33       P1  2553  0.50

> <Gold.Chemscore.Hbond.Weighted>
-3.1218

> <Gold.Chemscore.Metal.Weighted>
-0.0000

> <Gold.Chemscore.Lipo.Weighted>
-25.3196

> <Gold.Chemscore.Internal_Hbond.Weighted>
0.0000

> <Gold.Chemscore.DEClash.Weighted>
0.4975

> <Gold.Chemscore.DEInternal.Weighted>
0.3968

> <Gold.Chemscore.Rot.Weighted>
3.9834

> <Gold.Chemscore.Internal.Correction.Weighted>
   9.000000E+99

> <Gold.Reference.RMSD>
5.3851

#       Name:                example_2
#       Creating user name   hitesit
#       Creation time:       Mon Nov  6 23:22:57 2023


#       File generated by GOLD software.
#

@<TRIPOS>MOLECULE
example_2|example_2_prep|mol2|1|dock6
    42    44     1
SMALL
NO_CHARGES


@<TRIPOS>ATOM
      1 O1          19.6306 -28.8280  48.6116 O.3            1 RES1               0.0000
      2 C2          20.1490 -29.6308  47.6259 C.ar           1 RES1               0.0000
      3 C3          20.4247 -28.6049  49.7683 C.3            1 RES1               0.0000
      4 C4          19.3330 -29.8340  46.5018 C.ar           1 RES1               0.0000
      5 C5          21.4057 -30.2455  47.6844 C.ar           1 RES1               0.0000
      6 O6          18.1087 -29.2169  46.5173 O.3            1 RES1               0.0000
      7 C7          19.8025 -30.6367  45.4622 C.ar           1 RES1               0.0000
      8 C8          21.8825 -31.0471  46.6548 C.ar           1 RES1               0.0000
      9 C9          17.2574 -29.4107  45.3965 C.3            1 RES1               0.0000
     10 C10         21.0881 -31.2270  45.5180 C.ar           1 RES1               0.0000
     11 N11         23.0801 -31.6250  46.7951 N.ar           1 RES1               0.0000
     12 C12         21.6453 -32.0371  44.5168 C.ar           1 RES1               0.0000
     13 C13         23.4863 -32.4166  45.7958 C.ar           1 RES1               0.0000
     14 N14         22.8260 -32.6582  44.6592 N.ar           1 RES1               0.0000
     15 N15         21.0117 -32.2624  43.2914 N.pl3          1 RES1               0.0000
     16 C16         21.8017 -33.0016  42.2923 C.3            1 RES1               0.0000
     17 C17         21.8399 -34.4693  42.7033 C.ar           1 RES1               0.0000
     18 C18         21.2482 -32.8720  40.8739 C.3            1 RES1               0.0000
     19 C19         23.0573 -35.1588  42.8354 C.ar           1 RES1               0.0000
     20 C20         20.6452 -35.1618  42.9553 C.ar           1 RES1               0.0000
     21 C21         23.0784 -36.5019  43.2141 C.ar           1 RES1               0.0000
     22 C22         20.6688 -36.5055  43.3345 C.ar           1 RES1               0.0000
     23 C23         21.8844 -37.1741  43.4647 C.ar           1 RES1               0.0000
     24 H1          19.8879 -27.9545  50.4573 H              1 RES1               0.0000
     25 H2          21.3624 -28.1326  49.4793 H              1 RES1               0.0000
     26 H3          20.6326 -29.5567  50.2550 H              1 RES1               0.0000
     27 H4          22.0286 -30.0904  48.5641 H              1 RES1               0.0000
     28 H5          19.1697 -30.8123  44.5934 H              1 RES1               0.0000
     29 H6          16.3274 -28.8648  45.5483 H              1 RES1               0.0000
     30 H7          17.0412 -30.4721  45.2842 H              1 RES1               0.0000
     31 H8          17.7511 -29.0437  44.4979 H              1 RES1               0.0000
     32 H9          24.4480 -32.9119  45.9207 H              1 RES1               0.0000
     33 H10         20.0687 -31.9378  43.1026 H              1 RES1               0.0000
     34 H11         22.8194 -32.6142  42.3021 H              1 RES1               0.0000
     35 H12         21.2242 -31.8213  40.5882 H              1 RES1               0.0000
     36 H13         20.2395 -33.2807  40.8390 H              1 RES1               0.0000
     37 H14         21.8865 -33.4214  40.1835 H              1 RES1               0.0000
     38 H15         23.9944 -34.6395  42.6401 H              1 RES1               0.0000
     39 H16         19.6911 -34.6465  42.8543 H              1 RES1               0.0000
     40 H17         24.0286 -37.0246  43.3138 H              1 RES1               0.0000
     41 H18         19.7355 -37.0319  43.5288 H              1 RES1               0.0000
     42 H19         21.9009 -38.2216  43.7621 H              1 RES1               0.0000
@<TRIPOS>BOND
    1    1    2 1     
    2    1    3 1     
    3    2    4 ar    
    4    2    5 ar    
    5    4    6 1     
    6    4    7 ar    
    7    5    8 ar    
    8    6    9 1     
    9    7   10 ar    
   10    8   11 ar    
   11   10   12 ar    
   12   11   13 ar    
   13   12   14 ar    
   14   12   15 1     
   15   15   16 1     
   16   16   17 1     
   17   16   18 1     
   18   17   19 ar    
   19   17   20 ar    
   20   19   21 ar    
   21   20   22 ar    
   22   21   23 ar    
   23    8   10 ar    
   24   13   14 ar    
   25   22   23 ar    
   26    3   24 1     
   27    3   25 1     
   28    3   26 1     
   29    5   27 1     
   30    7   28 1     
   31    9   29 1     
   32    9   30 1     
   33    9   31 1     
   34   13   32 1     
   35   15   33 1     
   36   16   34 1     
   37   18   35 1     
   38   18   36 1     
   39   18   37 1     
   40   19   38 1     
   41   20   39 1     
   42   21   40 1     
   43   22   41 1     
   44   23   42 1     
@<TRIPOS>SUBSTRUCTURE
      1 RES1           1
@<TRIPOS>SET
DONOR_HYDROGENS      STATIC     ATOMS    <user>   **** ""
1 33
ATOM$RED        STATIC     ATOMS    COLORGROUP SYSTEM
1 33
@<TRIPOS>COMMENT
> <Gold.Version>
2022.3.0

> <Gold.Id.Protein>
unknown|5ovf_clean|pdb

> <Gold.Protein.ActiveResidues>
 ILE839  VAL852  ILE856  LEU859  VAL871  LEU872  GLU873  VAL874  VAL875  SER876 
 ALA877  MET878  ASN879  SER880  SER881  PRO882  VAL883  TYR884  ARG885  LEU886 
 ASP887  HIS888  THR889  PHE890  GLU891  GLN892  ILE893  PRO894  SER895  ARG896 
 GLN897  LYS898  LYS899  ILE900  LEU901  GLU902  GLU903  ALA904  HIS905  GLU906 
 LEU907  SER908  GLU909  LYS914  GLU836  ILE839  VAL852  ILE855  ILE856  LEU859 
 GLN863  VAL871  LEU872  VAL874  VAL875  SER876  ALA877  MET878  ASN879  SER880 
 SER881  PRO882  VAL883  TYR884  ARG885  LEU886  ASP887  HIS888  THR889  PHE890 
 GLU891  GLN892  ILE893  PRO894  SER895  ARG896  GLN897  LYS898  LYS899  ILE900 
 LEU901  GLU902  GLU903  ALA904  HIS905  GLU906  LEU907  SER908  GLU909  ASP910 
 LYS914 

> <Gold.Score>
     Fitness  S(hb_ext) S(vdw_ext)  S(hb_int)    S(int)      intcor
     60.37       2.00      43.78       0.00      -1.82      -7.16

> <Gold.Goldscore.Fitness>
60.3708

> <Gold.Goldscore.Internal.Vdw>
-7.3180

> <Gold.Goldscore.Internal.Torsion>
-1.6595

> <Gold.Goldscore.External.Vdw>
43.7760

> <Gold.Goldscore.Internal.HBond>
0.0000

> <Gold.Goldscore.External.HBond>
2.0000

> <Gold.Goldscore.Internal.Correction>
-7.1563

> <Gold.Goldscore.Reference.RMSD>
5.3305

> <Gold.Goldscore.Hbonds>
donor molecule, donor type, donor heavy atom, donor atom, acceptor molecule, acceptor atom, score
      L1  H    15    33       P1  2553  1.00

> <Gold.Goldscore.Internal.Vdw.Weighted>
-7.3180

> <Gold.Goldscore.Internal.Torsion.Weighted>
-1.6595

> <Gold.Goldscore.External.Vdw.Weighted>
60.1920

> <Gold.Goldscore.Internal.HBond.Weighted>
0.0000

> <Gold.Goldscore.External.HBond.Weighted>
2.0000

> <Gold.Goldscore.Internal.Correction.Weighted>
-7.1563

> <Gold.Rescore>
     Score         DG    S(hbond)    S(metal)    S(lipo)     H(rot)  DE(clash)    DE(int)     intcor
     27.63     -29.63       0.99        0.00     212.12       1.56       0.11       1.89       ----

> <Gold.Chemscore.Fitness>
27.6336

> <Gold.Chemscore.DG>
-29.6331

> <Gold.Chemscore.ZeroCoef>
-5.4800

> <Gold.Chemscore.Hbond>
0.9937

> <Gold.Chemscore.Metal>
0.0000

> <Gold.Chemscore.Lipo>
212.1161

> <Gold.Chemscore.Internal_Hbond>
0.0000

> <Gold.Chemscore.DEClash>
0.1079

> <Gold.Chemscore.DEInternal>
1.8915

> <Gold.Chemscore.Rot>
1.5560

> <Gold.Chemscore.Internal.Correction>
   9.000000E+99

> <Gold.Chemscore.Reference.RMSD>
0.0000

> <Gold.Chemscore.Hbonds>
donor molecule, donor type, donor heavy atom, donor atom, acceptor molecule, acceptor atom, score
      L1  H    15    33       P1  2553  0.77

> <Gold.Chemscore.Hbond.Weighted>
-3.3189

> <Gold.Chemscore.Metal.Weighted>
-0.0000

> <Gold.Chemscore.Lipo.Weighted>
-24.8176

> <Gold.Chemscore.Internal_Hbond.Weighted>
0.0000

> <Gold.Chemscore.DEClash.Weighted>
0.1079

> <Gold.Chemscore.DEInternal.Weighted>
1.8915

> <Gold.Chemscore.Rot.Weighted>
3.9834

> <Gold.Chemscore.Internal.Correction.Weighted>
   9.000000E+99

> <Gold.Reference.RMSD>
5.3305

#       Name:                example_2
#       Creating user name   hitesit
#       Creation time:       Mon Nov  6 23:22:44 2023


#       File generated by GOLD software.
#

@<TRIPOS>MOLECULE
example_2|example_2_prep|mol2|1|dock3
    42    44     1
SMALL
NO_CHARGES


@<TRIPOS>ATOM
      1 O1          20.7347 -27.5252  47.6631 O.3            1 RES1               0.0000
      2 C2          21.0572 -28.5678  46.8301 C.ar           1 RES1               0.0000
      3 C3          21.7402 -27.0500  48.5471 C.3            1 RES1               0.0000
      4 C4          20.0702 -28.9494  45.9076 C.ar           1 RES1               0.0000
      5 C5          22.2768 -29.2549  46.8570 C.ar           1 RES1               0.0000
      6 O6          18.8939 -28.2460  45.9469 O.3            1 RES1               0.0000
      7 C7          20.3361 -30.0000  45.0295 C.ar           1 RES1               0.0000
      8 C8          22.5516 -30.3028  45.9872 C.ar           1 RES1               0.0000
      9 C9          17.8336 -28.6855  45.1096 C.3            1 RES1               0.0000
     10 C10         21.5851 -30.6664  45.0441 C.ar           1 RES1               0.0000
     11 N11         23.7271 -30.9311  46.0924 N.ar           1 RES1               0.0000
     12 C12         21.9431 -31.7228  44.1926 C.ar           1 RES1               0.0000
     13 C13         23.9373 -31.9566  45.2592 C.ar           1 RES1               0.0000
     14 N14         23.1002 -32.3911  44.3121 N.ar           1 RES1               0.0000
     15 N15         21.1197 -32.1636  43.1526 N.pl3          1 RES1               0.0000
     16 C16         21.7909 -32.9321  42.0907 C.3            1 RES1               0.0000
     17 C17         21.7494 -34.4083  42.4695 C.ar           1 RES1               0.0000
     18 C18         21.1609 -32.7297  40.7134 C.3            1 RES1               0.0000
     19 C19         22.9269 -35.1251  42.7428 C.ar           1 RES1               0.0000
     20 C20         20.5200 -35.0813  42.5484 C.ar           1 RES1               0.0000
     21 C21         22.8748 -36.4758  43.0903 C.ar           1 RES1               0.0000
     22 C22         20.4704 -36.4326  42.8966 C.ar           1 RES1               0.0000
     23 C23         21.6467 -37.1285  43.1682 C.ar           1 RES1               0.0000
     24 H1          21.3427 -26.2283  49.1410 H              1 RES1               0.0000
     25 H2          22.5952 -26.7006  47.9702 H              1 RES1               0.0000
     26 H3          22.0535 -27.8570  49.2079 H              1 RES1               0.0000
     27 H4          23.0334 -28.9588  47.5821 H              1 RES1               0.0000
     28 H5          19.5704 -30.3128  44.3210 H              1 RES1               0.0000
     29 H6          16.9700 -28.0362  45.2464 H              1 RES1               0.0000
     30 H7          17.5643 -29.7077  45.3713 H              1 RES1               0.0000
     31 H8          18.1536 -28.6493  44.0694 H              1 RES1               0.0000
     32 H9          24.8817 -32.4888  45.3627 H              1 RES1               0.0000
     33 H10         20.1242 -31.9668  43.1308 H              1 RES1               0.0000
     34 H11         22.8324 -32.6174  42.0431 H              1 RES1               0.0000
     35 H12         21.1945 -31.6734  40.4505 H              1 RES1               0.0000
     36 H13         20.1252 -33.0656  40.7350 H              1 RES1               0.0000
     37 H14         21.7140 -33.3058  39.9730 H              1 RES1               0.0000
     38 H15         23.8905 -34.6211  42.6828 H              1 RES1               0.0000
     39 H16         19.5965 -34.5446  42.3361 H              1 RES1               0.0000
     40 H17         23.7946 -37.0197  43.3005 H              1 RES1               0.0000
     41 H18         19.5106 -36.9437  42.9560 H              1 RES1               0.0000
     42 H19         21.6059 -38.1819  43.4412 H              1 RES1               0.0000
@<TRIPOS>BOND
    1    1    2 1     
    2    1    3 1     
    3    2    4 ar    
    4    2    5 ar    
    5    4    6 1     
    6    4    7 ar    
    7    5    8 ar    
    8    6    9 1     
    9    7   10 ar    
   10    8   11 ar    
   11   10   12 ar    
   12   11   13 ar    
   13   12   14 ar    
   14   12   15 1     
   15   15   16 1     
   16   16   17 1     
   17   16   18 1     
   18   17   19 ar    
   19   17   20 ar    
   20   19   21 ar    
   21   20   22 ar    
   22   21   23 ar    
   23    8   10 ar    
   24   13   14 ar    
   25   22   23 ar    
   26    3   24 1     
   27    3   25 1     
   28    3   26 1     
   29    5   27 1     
   30    7   28 1     
   31    9   29 1     
   32    9   30 1     
   33    9   31 1     
   34   13   32 1     
   35   15   33 1     
   36   16   34 1     
   37   18   35 1     
   38   18   36 1     
   39   18   37 1     
   40   19   38 1     
   41   20   39 1     
   42   21   40 1     
   43   22   41 1     
   44   23   42 1     
@<TRIPOS>SUBSTRUCTURE
      1 RES1           1
@<TRIPOS>SET
DONOR_HYDROGENS      STATIC     ATOMS    <user>   **** ""
1 33
ATOM$RED        STATIC     ATOMS    COLORGROUP SYSTEM
1 33
@<TRIPOS>COMMENT
> <Gold.Version>
2022.3.0

> <Gold.Id.Protein>
unknown|5ovf_clean|pdb

> <Gold.Protein.ActiveResidues>
 ILE839  VAL852  ILE856  LEU859  VAL871  LEU872  GLU873  VAL874  VAL875  SER876 
 ALA877  MET878  ASN879  SER880  SER881  PRO882  VAL883  TYR884  ARG885  LEU886 
 ASP887  HIS888  THR889  PHE890  GLU891  GLN892  ILE893  PRO894  SER895  ARG896 
 GLN897  LYS898  LYS899  ILE900  LEU901  GLU902  GLU903  ALA904  HIS905  GLU906 
 LEU907  SER908  GLU909  LYS914  GLU836  ILE839  VAL852  ILE855  ILE856  LEU859 
 GLN863  VAL871  LEU872  VAL874  VAL875  SER876  ALA877  MET878  ASN879  SER880 
 SER881  PRO882  VAL883  TYR884  ARG885  LEU886  ASP887  HIS888  THR889  PHE890 
 GLU891  GLN892  ILE893  PRO894  SER895  ARG896  GLN897  LYS898  LYS899  ILE900 
 LEU901  GLU902  GLU903  ALA904  HIS905  GLU906  LEU907  SER908  GLU909  ASP910 
 LYS914 

> <Gold.Score>
     Fitness  S(hb_ext) S(vdw_ext)  S(hb_int)    S(int)      intcor
     60.03       1.52      45.10       0.00      -3.51      -7.16

> <Gold.Goldscore.Fitness>
60.0266

> <Gold.Goldscore.Internal.Vdw>
-8.3140

> <Gold.Goldscore.Internal.Torsion>
-2.3502

> <Gold.Goldscore.External.Vdw>
45.1015

> <Gold.Goldscore.Internal.HBond>
0.0000

> <Gold.Goldscore.External.HBond>
1.5200

> <Gold.Goldscore.Internal.Correction>
-7.1563

> <Gold.Goldscore.Reference.RMSD>
5.5636

> <Gold.Goldscore.Hbonds>
donor molecule, donor type, donor heavy atom, donor atom, acceptor molecule, acceptor atom, score
      L1  H    15    33       P1  2553  0.76

> <Gold.Goldscore.Internal.Vdw.Weighted>
-8.3140

> <Gold.Goldscore.Internal.Torsion.Weighted>
-2.3502

> <Gold.Goldscore.External.Vdw.Weighted>
62.0145

> <Gold.Goldscore.Internal.HBond.Weighted>
0.0000

> <Gold.Goldscore.External.HBond.Weighted>
1.5200

> <Gold.Goldscore.Internal.Correction.Weighted>
-7.1563

> <Gold.Rescore>
     Score         DG    S(hbond)    S(metal)    S(lipo)     H(rot)  DE(clash)    DE(int)     intcor
     28.76     -29.29       0.97        0.00     209.89       1.56       0.03       0.50       ----

> <Gold.Chemscore.Fitness>
28.7574

> <Gold.Chemscore.DG>
-29.2916

> <Gold.Chemscore.ZeroCoef>
-5.4800

> <Gold.Chemscore.Hbond>
0.9694

> <Gold.Chemscore.Metal>
0.0000

> <Gold.Chemscore.Lipo>
209.8914

> <Gold.Chemscore.Internal_Hbond>
0.0000

> <Gold.Chemscore.DEClash>
0.0339

> <Gold.Chemscore.DEInternal>
0.5002

> <Gold.Chemscore.Rot>
1.5560

> <Gold.Chemscore.Internal.Correction>
   9.000000E+99

> <Gold.Chemscore.Reference.RMSD>
0.0000

> <Gold.Chemscore.Hbonds>
donor molecule, donor type, donor heavy atom, donor atom, acceptor molecule, acceptor atom, score
      L1  H    15    33       P1  2553  0.90

> <Gold.Chemscore.Hbond.Weighted>
-3.2377

> <Gold.Chemscore.Metal.Weighted>
-0.0000

> <Gold.Chemscore.Lipo.Weighted>
-24.5573

> <Gold.Chemscore.Internal_Hbond.Weighted>
0.0000

> <Gold.Chemscore.DEClash.Weighted>
0.0339

> <Gold.Chemscore.DEInternal.Weighted>
0.5002

> <Gold.Chemscore.Rot.Weighted>
3.9834

> <Gold.Chemscore.Internal.Correction.Weighted>
   9.000000E+99

> <Gold.Reference.RMSD>
5.5636

#       Name:                example_2
#       Creating user name   hitesit
#       Creation time:       Mon Nov  6 23:22:53 2023


#       File generated by GOLD software.
#

@<TRIPOS>MOLECULE
example_2|example_2_prep|mol2|1|dock5
    42    44     1
SMALL
NO_CHARGES


@<TRIPOS>ATOM
      1 O1          20.4636 -41.0655  48.3606 O.3            1 RES1               0.0000
      2 C2          20.8989 -40.0226  47.5811 C.ar           1 RES1               0.0000
      3 C3          21.3638 -42.1405  48.5893 C.3            1 RES1               0.0000
      4 C4          19.9761 -38.9874  47.3628 C.ar           1 RES1               0.0000
      5 C5          22.1717 -39.9434  47.0029 C.ar           1 RES1               0.0000
      6 O6          18.7431 -39.1369  47.9437 O.3            1 RES1               0.0000
      7 C7          20.3570 -37.8960  46.5822 C.ar           1 RES1               0.0000
      8 C8          22.5610 -38.8612  46.2236 C.ar           1 RES1               0.0000
      9 C9          17.7419 -38.1813  47.6229 C.3            1 RES1               0.0000
     10 C10         21.6576 -37.8114  46.0294 C.ar           1 RES1               0.0000
     11 N11         23.7825 -38.8699  45.6799 N.ar           1 RES1               0.0000
     12 C12         22.1301 -36.7490  45.2437 C.ar           1 RES1               0.0000
     13 C13         24.1044 -37.8253  44.9083 C.ar           1 RES1               0.0000
     14 N14         23.3362 -36.7610  44.6563 N.ar           1 RES1               0.0000
     15 N15         21.3787 -35.5938  45.0094 N.pl3          1 RES1               0.0000
     16 C16         20.4309 -35.6676  43.8848 C.3            1 RES1               0.0000
     17 C17         20.8217 -34.6089  42.8596 C.ar           1 RES1               0.0000
     18 C18         20.3908 -37.0443  43.2228 C.3            1 RES1               0.0000
     19 C19         19.8567 -33.9854  42.0503 C.ar           1 RES1               0.0000
     20 C20         22.1672 -34.2401  42.7054 C.ar           1 RES1               0.0000
     21 C21         20.2276 -33.0163  41.1168 C.ar           1 RES1               0.0000
     22 C22         22.5359 -33.2701  41.7711 C.ar           1 RES1               0.0000
     23 C23         21.5666 -32.6584  40.9786 C.ar           1 RES1               0.0000
     24 H1          20.8841 -42.8879  49.2194 H              1 RES1               0.0000
     25 H2          22.2575 -41.7661  49.0864 H              1 RES1               0.0000
     26 H3          21.6400 -42.5915  47.6374 H              1 RES1               0.0000
     27 H4          22.8783 -40.7551  47.1693 H              1 RES1               0.0000
     28 H5          19.6423 -37.0959  46.3949 H              1 RES1               0.0000
     29 H6          16.8232 -38.4259  48.1539 H              1 RES1               0.0000
     30 H7          17.5562 -38.1965  46.5500 H              1 RES1               0.0000
     31 H8          18.0790 -37.1890  47.9190 H              1 RES1               0.0000
     32 H9          25.0875 -37.8441  44.4404 H              1 RES1               0.0000
     33 H10         21.4797 -34.7587  45.5775 H              1 RES1               0.0000
     34 H11         19.4345 -35.4352  44.2578 H              1 RES1               0.0000
     35 H12         20.1111 -37.7942  43.9613 H              1 RES1               0.0000
     36 H13         21.3738 -37.2816  42.8188 H              1 RES1               0.0000
     37 H14         19.6588 -37.0381  42.4164 H              1 RES1               0.0000
     38 H15         18.8081 -34.2612  42.1526 H              1 RES1               0.0000
     39 H16         22.9307 -34.7148  43.3201 H              1 RES1               0.0000
     40 H17         19.4700 -32.5400  40.4963 H              1 RES1               0.0000
     41 H18         23.5828 -32.9911  41.6616 H              1 RES1               0.0000
     42 H19         21.8559 -31.9008  40.2516 H              1 RES1               0.0000
@<TRIPOS>BOND
    1    1    2 1     
    2    1    3 1     
    3    2    4 ar    
    4    2    5 ar    
    5    4    6 1     
    6    4    7 ar    
    7    5    8 ar    
    8    6    9 1     
    9    7   10 ar    
   10    8   11 ar    
   11   10   12 ar    
   12   11   13 ar    
   13   12   14 ar    
   14   12   15 1     
   15   15   16 1     
   16   16   17 1     
   17   16   18 1     
   18   17   19 ar    
   19   17   20 ar    
   20   19   21 ar    
   21   20   22 ar    
   22   21   23 ar    
   23    8   10 ar    
   24   13   14 ar    
   25   22   23 ar    
   26    3   24 1     
   27    3   25 1     
   28    3   26 1     
   29    5   27 1     
   30    7   28 1     
   31    9   29 1     
   32    9   30 1     
   33    9   31 1     
   34   13   32 1     
   35   15   33 1     
   36   16   34 1     
   37   18   35 1     
   38   18   36 1     
   39   18   37 1     
   40   19   38 1     
   41   20   39 1     
   42   21   40 1     
   43   22   41 1     
   44   23   42 1     
@<TRIPOS>SUBSTRUCTURE
      1 RES1           1
@<TRIPOS>SET
DONOR_HYDROGENS      STATIC     ATOMS    <user>   **** ""
1 33
ATOM$RED        STATIC     ATOMS    COLORGROUP SYSTEM
1 33
@<TRIPOS>COMMENT
> <Gold.Version>
2022.3.0

> <Gold.Id.Protein>
unknown|5ovf_clean|pdb

> <Gold.Protein.ActiveResidues>
 ILE839  VAL852  ILE856  LEU859  VAL871  LEU872  GLU873  VAL874  VAL875  SER876 
 ALA877  MET878  ASN879  SER880  SER881  PRO882  VAL883  TYR884  ARG885  LEU886 
 ASP887  HIS888  THR889  PHE890  GLU891  GLN892  ILE893  PRO894  SER895  ARG896 
 GLN897  LYS898  LYS899  ILE900  LEU901  GLU902  GLU903  ALA904  HIS905  GLU906 
 LEU907  SER908  GLU909  LYS914  GLU836  ILE839  VAL852  ILE855  ILE856  LEU859 
 GLN863  VAL871  LEU872  VAL874  VAL875  SER876  ALA877  MET878  ASN879  SER880 
 SER881  PRO882  VAL883  TYR884  ARG885  LEU886  ASP887  HIS888  THR889  PHE890 
 GLU891  GLN892  ILE893  PRO894  SER895  ARG896  GLN897  LYS898  LYS899  ILE900 
 LEU901  GLU902  GLU903  ALA904  HIS905  GLU906  LEU907  SER908  GLU909  ASP910 
 LYS914 

> <Gold.Score>
     Fitness  S(hb_ext) S(vdw_ext)  S(hb_int)    S(int)      intcor
     58.54       0.00      46.08       0.00      -4.82      -7.16

> <Gold.Goldscore.Fitness>
58.5399

> <Gold.Goldscore.Internal.Vdw>
-4.0257

> <Gold.Goldscore.Internal.Torsion>
-7.9544

> <Gold.Goldscore.External.Vdw>
46.0827

> <Gold.Goldscore.Internal.HBond>
0.0000

> <Gold.Goldscore.External.HBond>
0.0000

> <Gold.Goldscore.Internal.Correction>
-7.1563

> <Gold.Goldscore.Reference.RMSD>
8.0398

> <Gold.Goldscore.Internal.Vdw.Weighted>
-4.0257

> <Gold.Goldscore.Internal.Torsion.Weighted>
-7.9544

> <Gold.Goldscore.External.Vdw.Weighted>
63.3636

> <Gold.Goldscore.Internal.HBond.Weighted>
0.0000

> <Gold.Goldscore.External.HBond.Weighted>
0.0000

> <Gold.Goldscore.Internal.Correction.Weighted>
-7.1563

> <Gold.Rescore>
     Score         DG    S(hbond)    S(metal)    S(lipo)     H(rot)  DE(clash)    DE(int)     intcor
     24.05     -30.54       0.00        0.00     248.20       1.56       4.85       1.64       ----

> <Gold.Chemscore.Fitness>
24.0520

> <Gold.Chemscore.DG>
-30.5361

> <Gold.Chemscore.ZeroCoef>
-5.4800

> <Gold.Chemscore.Hbond>
0.0000

> <Gold.Chemscore.Metal>
0.0000

> <Gold.Chemscore.Lipo>
248.2015

> <Gold.Chemscore.Internal_Hbond>
0.0000

> <Gold.Chemscore.DEClash>
4.8468

> <Gold.Chemscore.DEInternal>
1.6373

> <Gold.Chemscore.Rot>
1.5560

> <Gold.Chemscore.Internal.Correction>
   9.000000E+99

> <Gold.Chemscore.Reference.RMSD>
0.0000

> <Gold.Chemscore.Hbond.Weighted>
-0.0000

> <Gold.Chemscore.Metal.Weighted>
-0.0000

> <Gold.Chemscore.Lipo.Weighted>
-29.0396

> <Gold.Chemscore.Internal_Hbond.Weighted>
0.0000

> <Gold.Chemscore.DEClash.Weighted>
4.8468

> <Gold.Chemscore.DEInternal.Weighted>
1.6373

> <Gold.Chemscore.Rot.Weighted>
3.9834

> <Gold.Chemscore.Internal.Correction.Weighted>
   9.000000E+99

> <Gold.Reference.RMSD>
8.0398

#       Name:                example_2
#       Creating user name   hitesit
#       Creation time:       Mon Nov  6 23:23:06 2023


#       File generated by GOLD software.
#

@<TRIPOS>MOLECULE
example_2|example_2_prep|mol2|1|dock8
    42    44     1
SMALL
NO_CHARGES


@<TRIPOS>ATOM
      1 O1          20.3159 -39.8449  48.1819 O.3            1 RES1               0.0000
      2 C2          21.0713 -39.2320  47.2131 C.ar           1 RES1               0.0000
      3 C3          20.9956 -40.6275  49.1535 C.3            1 RES1               0.0000
      4 C4          20.3597 -38.5384  46.2216 C.ar           1 RES1               0.0000
      5 C5          22.4700 -39.2685  47.1582 C.ar           1 RES1               0.0000
      6 O6          18.9926 -38.5573  46.3260 O.3            1 RES1               0.0000
      7 C7          21.0680 -37.8901  45.2099 C.ar           1 RES1               0.0000
      8 C8          23.1850 -38.6268  46.1548 C.ar           1 RES1               0.0000
      9 C9          18.2764 -37.4385  45.8221 C.3            1 RES1               0.0000
     10 C10         22.4834 -37.9067  45.1827 C.ar           1 RES1               0.0000
     11 N11         24.5180 -38.7312  46.1511 N.ar           1 RES1               0.0000
     12 C12         23.2767 -37.2749  44.2128 C.ar           1 RES1               0.0000
     13 C13         25.1655 -38.1274  45.1480 C.ar           1 RES1               0.0000
     14 N14         24.6114 -37.4042  44.1701 N.ar           1 RES1               0.0000
     15 N15         22.7371 -36.4615  43.2122 N.pl3          1 RES1               0.0000
     16 C16         22.7912 -35.0128  43.4709 C.3            1 RES1               0.0000
     17 C17         21.7678 -34.3278  42.5721 C.ar           1 RES1               0.0000
     18 C18         22.5246 -34.6535  44.9321 C.3            1 RES1               0.0000
     19 C19         20.3949 -34.6065  42.6849 C.ar           1 RES1               0.0000
     20 C20         22.1876 -33.4006  41.6054 C.ar           1 RES1               0.0000
     21 C21         19.4683 -33.9710  41.8569 C.ar           1 RES1               0.0000
     22 C22         21.2585 -32.7658  40.7785 C.ar           1 RES1               0.0000
     23 C23         19.9003 -33.0502  40.9052 C.ar           1 RES1               0.0000
     24 H1          20.2728 -41.0480  49.8512 H              1 RES1               0.0000
     25 H2          21.7012 -40.0001  49.6961 H              1 RES1               0.0000
     26 H3          21.5336 -41.4343  48.6581 H              1 RES1               0.0000
     27 H4          23.0140 -39.8168  47.9258 H              1 RES1               0.0000
     28 H5          20.5234 -37.3627  44.4281 H              1 RES1               0.0000
     29 H6          17.2090 -37.5930  45.9728 H              1 RES1               0.0000
     30 H7          18.4804 -37.3262  44.7583 H              1 RES1               0.0000
     31 H8          18.5909 -36.5389  46.3490 H              1 RES1               0.0000
     32 H9          26.2488 -38.2357  45.1261 H              1 RES1               0.0000
     33 H10         22.3344 -36.8444  42.3628 H              1 RES1               0.0000
     34 H11         23.7827 -34.6513  43.2024 H              1 RES1               0.0000
     35 H12         23.2593 -35.1464  45.5670 H              1 RES1               0.0000
     36 H13         21.5248 -34.9833  45.2104 H              1 RES1               0.0000
     37 H14         22.5996 -33.5746  45.0601 H              1 RES1               0.0000
     38 H15         20.0504 -35.3260  43.4262 H              1 RES1               0.0000
     39 H16         23.2475 -33.1741  41.4995 H              1 RES1               0.0000
     40 H17         18.4071 -34.1951  41.9550 H              1 RES1               0.0000
     41 H18         21.5961 -32.0471  40.0333 H              1 RES1               0.0000
     42 H19         19.1771 -32.5529  40.2606 H              1 RES1               0.0000
@<TRIPOS>BOND
    1    1    2 1     
    2    1    3 1     
    3    2    4 ar    
    4    2    5 ar    
    5    4    6 1     
    6    4    7 ar    
    7    5    8 ar    
    8    6    9 1     
    9    7   10 ar    
   10    8   11 ar    
   11   10   12 ar    
   12   11   13 ar    
   13   12   14 ar    
   14   12   15 1     
   15   15   16 1     
   16   16   17 1     
   17   16   18 1     
   18   17   19 ar    
   19   17   20 ar    
   20   19   21 ar    
   21   20   22 ar    
   22   21   23 ar    
   23    8   10 ar    
   24   13   14 ar    
   25   22   23 ar    
   26    3   24 1     
   27    3   25 1     
   28    3   26 1     
   29    5   27 1     
   30    7   28 1     
   31    9   29 1     
   32    9   30 1     
   33    9   31 1     
   34   13   32 1     
   35   15   33 1     
   36   16   34 1     
   37   18   35 1     
   38   18   36 1     
   39   18   37 1     
   40   19   38 1     
   41   20   39 1     
   42   21   40 1     
   43   22   41 1     
   44   23   42 1     
@<TRIPOS>SUBSTRUCTURE
      1 RES1           1
@<TRIPOS>SET
DONOR_HYDROGENS      STATIC     ATOMS    <user>   **** ""
1 33
ATOM$RED        STATIC     ATOMS    COLORGROUP SYSTEM
1 33
@<TRIPOS>COMMENT
> <Gold.Version>
2022.3.0

> <Gold.Id.Protein>
unknown|5ovf_clean|pdb

> <Gold.Protein.ActiveResidues>
 ILE839  VAL852  ILE856  LEU859  VAL871  LEU872  GLU873  VAL874  VAL875  SER876 
 ALA877  MET878  ASN879  SER880  SER881  PRO882  VAL883  TYR884  ARG885  LEU886 
 ASP887  HIS888  THR889  PHE890  GLU891  GLN892  ILE893  PRO894  SER895  ARG896 
 GLN897  LYS898  LYS899  ILE900  LEU901  GLU902  GLU903  ALA904  HIS905  GLU906 
 LEU907  SER908  GLU909  LYS914  GLU836  ILE839  VAL852  ILE855  ILE856  LEU859 
 GLN863  VAL871  LEU872  VAL874  VAL875  SER876  ALA877  MET878  ASN879  SER880 
 SER881  PRO882  VAL883  TYR884  ARG885  LEU886  ASP887  HIS888  THR889  PHE890 
 GLU891  GLN892  ILE893  PRO894  SER895  ARG896  GLN897  LYS898  LYS899  ILE900 
 LEU901  GLU902  GLU903  ALA904  HIS905  GLU906  LEU907  SER908  GLU909  ASP910 
 LYS914 

> <Gold.Score>
     Fitness  S(hb_ext) S(vdw_ext)  S(hb_int)    S(int)      intcor
     57.65       0.00      45.81       0.00      -5.34      -7.16

> <Gold.Goldscore.Fitness>
57.6492

> <Gold.Goldscore.Internal.Vdw>
-4.0586

> <Gold.Goldscore.Internal.Torsion>
-8.4348

> <Gold.Goldscore.External.Vdw>
45.8082

> <Gold.Goldscore.Internal.HBond>
0.0000

> <Gold.Goldscore.External.HBond>
0.0000

> <Gold.Goldscore.Internal.Correction>
-7.1563

> <Gold.Goldscore.Reference.RMSD>
7.6819

> <Gold.Goldscore.Internal.Vdw.Weighted>
-4.0586

> <Gold.Goldscore.Internal.Torsion.Weighted>
-8.4348

> <Gold.Goldscore.External.Vdw.Weighted>
62.9862

> <Gold.Goldscore.Internal.HBond.Weighted>
0.0000

> <Gold.Goldscore.External.HBond.Weighted>
0.0000

> <Gold.Goldscore.Internal.Correction.Weighted>
-7.1563

> <Gold.Rescore>
     Score         DG    S(hbond)    S(metal)    S(lipo)     H(rot)  DE(clash)    DE(int)     intcor
     21.89     -27.32       0.00        0.00     220.72       1.56       2.97       2.45       ----

> <Gold.Chemscore.Fitness>
21.8946

> <Gold.Chemscore.DG>
-27.3210

> <Gold.Chemscore.ZeroCoef>
-5.4800

> <Gold.Chemscore.Hbond>
0.0000

> <Gold.Chemscore.Metal>
0.0000

> <Gold.Chemscore.Lipo>
220.7216

> <Gold.Chemscore.Internal_Hbond>
0.0000

> <Gold.Chemscore.DEClash>
2.9746

> <Gold.Chemscore.DEInternal>
2.4518

> <Gold.Chemscore.Rot>
1.5560

> <Gold.Chemscore.Internal.Correction>
   9.000000E+99

> <Gold.Chemscore.Reference.RMSD>
0.0000

> <Gold.Chemscore.Hbond.Weighted>
-0.0000

> <Gold.Chemscore.Metal.Weighted>
-0.0000

> <Gold.Chemscore.Lipo.Weighted>
-25.8244

> <Gold.Chemscore.Internal_Hbond.Weighted>
0.0000

> <Gold.Chemscore.DEClash.Weighted>
2.9746

> <Gold.Chemscore.DEInternal.Weighted>
2.4518

> <Gold.Chemscore.Rot.Weighted>
3.9834

> <Gold.Chemscore.Internal.Correction.Weighted>
   9.000000E+99

> <Gold.Reference.RMSD>
7.6819

#       Name:                example_2
#       Creating user name   hitesit
#       Creation time:       Mon Nov  6 23:23:16 2023


#       File generated by GOLD software.
#

@<TRIPOS>MOLECULE
example_2|example_2_prep|mol2|1|dock10
    42    44     1
SMALL
NO_CHARGES


@<TRIPOS>ATOM
      1 O1          24.8778 -27.5579  47.3581 O.3            1 RES1               0.0000
      2 C2          24.2955 -28.6140  46.7019 C.ar           1 RES1               0.0000
      3 C3          24.0202 -26.5700  47.9123 C.3            1 RES1               0.0000
      4 C4          25.1738 -29.5746  46.1762 C.ar           1 RES1               0.0000
      5 C5          22.9155 -28.7741  46.5271 C.ar           1 RES1               0.0000
      6 O6          26.5123 -29.3474  46.3685 O.3            1 RES1               0.0000
      7 C7          24.6460 -30.6751  45.5009 C.ar           1 RES1               0.0000
      8 C8          22.3796 -29.8659  45.8559 C.ar           1 RES1               0.0000
      9 C9          27.4257 -30.3022  45.8464 C.3            1 RES1               0.0000
     10 C10         23.2476 -30.8431  45.3583 C.ar           1 RES1               0.0000
     11 N11         21.0532 -29.9354  45.7021 N.ar           1 RES1               0.0000
     12 C12         22.6293 -31.9212  44.7066 C.ar           1 RES1               0.0000
     13 C13         20.5813 -30.9850  45.0197 C.ar           1 RES1               0.0000
     14 N14         21.3042 -31.9853  44.5068 N.ar           1 RES1               0.0000
     15 N15         23.3473 -33.0137  44.2118 N.pl3          1 RES1               0.0000
     16 C16         22.5367 -34.1592  43.7653 C.3            1 RES1               0.0000
     17 C17         21.6965 -33.7149  42.5732 C.ar           1 RES1               0.0000
     18 C18         23.3771 -35.3776  43.3853 C.3            1 RES1               0.0000
     19 C19         22.2846 -33.1013  41.4540 C.ar           1 RES1               0.0000
     20 C20         20.3067 -33.9119  42.5781 C.ar           1 RES1               0.0000
     21 C21         21.5042 -32.7010  40.3683 C.ar           1 RES1               0.0000
     22 C22         19.5280 -33.5109  41.4906 C.ar           1 RES1               0.0000
     23 C23         20.1267 -32.9070  40.3867 C.ar           1 RES1               0.0000
     24 H1          24.6188 -25.8006  48.3977 H              1 RES1               0.0000
     25 H2          23.3599 -27.0321  48.6447 H              1 RES1               0.0000
     26 H3          23.4246 -26.1201  47.1194 H              1 RES1               0.0000
     27 H4          22.2415 -28.0194  46.9297 H              1 RES1               0.0000
     28 H5          25.3207 -31.4171  45.0764 H              1 RES1               0.0000
     29 H6          28.4445 -29.9920  46.0736 H              1 RES1               0.0000
     30 H7          27.2998 -30.3725  44.7670 H              1 RES1               0.0000
     31 H8          27.2328 -31.2740  46.2984 H              1 RES1               0.0000
     32 H9          19.5039 -31.0285  44.8675 H              1 RES1               0.0000
     33 H10         24.3612 -33.0172  44.1635 H              1 RES1               0.0000
     34 H11         21.8649 -34.4424  44.5743 H              1 RES1               0.0000
     35 H12         23.9738 -35.6884  44.2417 H              1 RES1               0.0000
     36 H13         24.0364 -35.1201  42.5577 H              1 RES1               0.0000
     37 H14         22.7199 -36.1927  43.0858 H              1 RES1               0.0000
     38 H15         23.3609 -32.9364  41.4336 H              1 RES1               0.0000
     39 H16         19.8314 -34.3818  43.4379 H              1 RES1               0.0000
     40 H17         21.9723 -32.2273  39.5067 H              1 RES1               0.0000
     41 H18         18.4509 -33.6703  41.5052 H              1 RES1               0.0000
     42 H19         19.5180 -32.5964  39.5387 H              1 RES1               0.0000
@<TRIPOS>BOND
    1    1    2 1     
    2    1    3 1     
    3    2    4 ar    
    4    2    5 ar    
    5    4    6 1     
    6    4    7 ar    
    7    5    8 ar    
    8    6    9 1     
    9    7   10 ar    
   10    8   11 ar    
   11   10   12 ar    
   12   11   13 ar    
   13   12   14 ar    
   14   12   15 1     
   15   15   16 1     
   16   16   17 1     
   17   16   18 1     
   18   17   19 ar    
   19   17   20 ar    
   20   19   21 ar    
   21   20   22 ar    
   22   21   23 ar    
   23    8   10 ar    
   24   13   14 ar    
   25   22   23 ar    
   26    3   24 1     
   27    3   25 1     
   28    3   26 1     
   29    5   27 1     
   30    7   28 1     
   31    9   29 1     
   32    9   30 1     
   33    9   31 1     
   34   13   32 1     
   35   15   33 1     
   36   16   34 1     
   37   18   35 1     
   38   18   36 1     
   39   18   37 1     
   40   19   38 1     
   41   20   39 1     
   42   21   40 1     
   43   22   41 1     
   44   23   42 1     
@<TRIPOS>SUBSTRUCTURE
      1 RES1           1
@<TRIPOS>SET
DONOR_HYDROGENS      STATIC     ATOMS    <user>   **** ""
1 33
ATOM$RED        STATIC     ATOMS    COLORGROUP SYSTEM
1 33
@<TRIPOS>COMMENT
> <Gold.Version>
2022.3.0

> <Gold.Id.Protein>
unknown|5ovf_clean|pdb

> <Gold.Protein.ActiveResidues>
 ILE839  VAL852  ILE856  LEU859  VAL871  LEU872  GLU873  VAL874  VAL875  SER876 
 ALA877  MET878  ASN879  SER880  SER881  PRO882  VAL883  TYR884  ARG885  LEU886 
 ASP887  HIS888  THR889  PHE890  GLU891  GLN892  ILE893  PRO894  SER895  ARG896 
 GLN897  LYS898  LYS899  ILE900  LEU901  GLU902  GLU903  ALA904  HIS905  GLU906 
 LEU907  SER908  GLU909  LYS914  GLU836  ILE839  VAL852  ILE855  ILE856  LEU859 
 GLN863  VAL871  LEU872  VAL874  VAL875  SER876  ALA877  MET878  ASN879  SER880 
 SER881  PRO882  VAL883  TYR884  ARG885  LEU886  ASP887  HIS888  THR889  PHE890 
 GLU891  GLN892  ILE893  PRO894  SER895  ARG896  GLN897  LYS898  LYS899  ILE900 
 LEU901  GLU902  GLU903  ALA904  HIS905  GLU906  LEU907  SER908  GLU909  ASP910 
 LYS914 

> <Gold.Score>
     Fitness  S(hb_ext) S(vdw_ext)  S(hb_int)    S(int)      intcor
     56.95       0.00      42.58       0.00      -1.60      -7.16

> <Gold.Goldscore.Fitness>
56.9516

> <Gold.Goldscore.Internal.Vdw>
-6.9973

> <Gold.Goldscore.Internal.Torsion>
-1.7574

> <Gold.Goldscore.External.Vdw>
42.5819

> <Gold.Goldscore.Internal.HBond>
0.0000

> <Gold.Goldscore.External.HBond>
0.0000

> <Gold.Goldscore.Internal.Correction>
-7.1563

> <Gold.Goldscore.Reference.RMSD>
6.2832

> <Gold.Goldscore.Internal.Vdw.Weighted>
-6.9973

> <Gold.Goldscore.Internal.Torsion.Weighted>
-1.7574

> <Gold.Goldscore.External.Vdw.Weighted>
58.5500

> <Gold.Goldscore.Internal.HBond.Weighted>
0.0000

> <Gold.Goldscore.External.HBond.Weighted>
0.0000

> <Gold.Goldscore.Internal.Correction.Weighted>
-7.1563

> <Gold.Rescore>
     Score         DG    S(hbond)    S(metal)    S(lipo)     H(rot)  DE(clash)    DE(int)     intcor
     14.81     -23.29       0.00        0.00     186.25       1.56       5.53       2.94       ----

> <Gold.Chemscore.Fitness>
14.8141

> <Gold.Chemscore.DG>
-23.2878

> <Gold.Chemscore.ZeroCoef>
-5.4800

> <Gold.Chemscore.Hbond>
0.0000

> <Gold.Chemscore.Metal>
0.0000

> <Gold.Chemscore.Lipo>
186.2504

> <Gold.Chemscore.Internal_Hbond>
0.0000

> <Gold.Chemscore.DEClash>
5.5295

> <Gold.Chemscore.DEInternal>
2.9442

> <Gold.Chemscore.Rot>
1.5560

> <Gold.Chemscore.Internal.Correction>
   9.000000E+99

> <Gold.Chemscore.Reference.RMSD>
0.0000

> <Gold.Chemscore.Hbond.Weighted>
-0.0000

> <Gold.Chemscore.Metal.Weighted>
-0.0000

> <Gold.Chemscore.Lipo.Weighted>
-21.7913

> <Gold.Chemscore.Internal_Hbond.Weighted>
0.0000

> <Gold.Chemscore.DEClash.Weighted>
5.5295

> <Gold.Chemscore.DEInternal.Weighted>
2.9442

> <Gold.Chemscore.Rot.Weighted>
3.9834

> <Gold.Chemscore.Internal.Correction.Weighted>
   9.000000E+99

> <Gold.Reference.RMSD>
6.2832

