#       Name:                example_2
#       Creating user name   hitesit
#       Creation time:       Mon Nov  6 23:30:15 2023


#       File generated by GOLD software.
#

@<TRIPOS>MOLECULE
example_2|example_2_prep|mol2|1|dock2
    42    44     1
SMALL
NO_CHARGES


@<TRIPOS>ATOM
      1 O1          20.2385 -29.3415  48.5438 O.3            1 RES1               0.0000
      2 C2          20.7532 -29.8945  47.3974 C.ar           1 RES1               0.0000
      3 C3          21.1504 -28.9877  49.5741 C.3            1 RES1               0.0000
      4 C4          19.8185 -30.2752  46.4216 C.ar           1 RES1               0.0000
      5 C5          22.1177 -30.1006  47.1609 C.ar           1 RES1               0.0000
      6 O6          18.4985 -30.0610  46.7249 O.3            1 RES1               0.0000
      7 C7          20.2762 -30.8402  45.2313 C.ar           1 RES1               0.0000
      8 C8          22.5841 -30.6629  45.9793 C.ar           1 RES1               0.0000
      9 C9          17.5408 -30.2847  45.6996 C.3            1 RES1               0.0000
     10 C10         21.6603 -31.0141  44.9898 C.ar           1 RES1               0.0000
     11 N11         23.8995 -30.8564  45.8374 N.ar           1 RES1               0.0000
     12 C12         22.2102 -31.5616  43.8206 C.ar           1 RES1               0.0000
     13 C13         24.3031 -31.4321  44.6992 C.ar           1 RES1               0.0000
     14 N14         23.5226 -31.8013  43.6790 N.ar           1 RES1               0.0000
     15 N15         21.4319 -31.9024  42.7107 N.pl3          1 RES1               0.0000
     16 C16         22.0492 -32.8487  41.7662 C.3            1 RES1               0.0000
     17 C17         21.8094 -34.2636  42.2811 C.ar           1 RES1               0.0000
     18 C18         21.5101 -32.7139  40.3427 C.3            1 RES1               0.0000
     19 C19         20.5137 -34.8025  42.3577 C.ar           1 RES1               0.0000
     20 C20         22.8919 -35.0562  42.6940 C.ar           1 RES1               0.0000
     21 C21         20.3082 -36.0999  42.8294 C.ar           1 RES1               0.0000
     22 C22         22.6837 -36.3540  43.1651 C.ar           1 RES1               0.0000
     23 C23         21.3932 -36.8753  43.2316 C.ar           1 RES1               0.0000
     24 H1          20.6022 -28.5646  50.4145 H              1 RES1               0.0000
     25 H2          21.8586 -28.2522  49.1954 H              1 RES1               0.0000
     26 H3          21.6894 -29.8752  49.9023 H              1 RES1               0.0000
     27 H4          22.8356 -29.8113  47.9270 H              1 RES1               0.0000
     28 H5          19.5572 -31.1527  44.4754 H              1 RES1               0.0000
     29 H6          16.5432 -30.0757  46.0829 H              1 RES1               0.0000
     30 H7          17.5943 -31.3222  45.3730 H              1 RES1               0.0000
     31 H8          17.7508 -29.6275  44.8570 H              1 RES1               0.0000
     32 H9          25.3710 -31.6179  44.5937 H              1 RES1               0.0000
     33 H10         20.5020 -31.5225  42.5653 H              1 RES1               0.0000
     34 H11         23.1226 -32.6660  41.7471 H              1 RES1               0.0000
     35 H12         21.6852 -31.7012  39.9826 H              1 RES1               0.0000
     36 H13         20.4410 -32.9210  40.3383 H              1 RES1               0.0000
     37 H14         22.0199 -33.4236  39.6927 H              1 RES1               0.0000
     38 H15         19.6609 -34.2014  42.0458 H              1 RES1               0.0000
     39 H16         23.9033 -34.6552  42.6464 H              1 RES1               0.0000
     40 H17         19.2992 -36.5062  42.8830 H              1 RES1               0.0000
     41 H18         23.5315 -36.9600  43.4812 H              1 RES1               0.0000
     42 H19         21.2330 -37.8884  43.5977 H              1 RES1               0.0000
@<TRIPOS>BOND
    1    1    2 1     
    2    1    3 1     
    3    2    4 ar    
    4    2    5 ar    
    5    4    6 1     
    6    4    7 ar    
    7    5    8 ar    
    8    6    9 1     
    9    7   10 ar    
   10    8   11 ar    
   11   10   12 ar    
   12   11   13 ar    
   13   12   14 ar    
   14   12   15 1     
   15   15   16 1     
   16   16   17 1     
   17   16   18 1     
   18   17   19 ar    
   19   17   20 ar    
   20   19   21 ar    
   21   20   22 ar    
   22   21   23 ar    
   23    8   10 ar    
   24   13   14 ar    
   25   22   23 ar    
   26    3   24 1     
   27    3   25 1     
   28    3   26 1     
   29    5   27 1     
   30    7   28 1     
   31    9   29 1     
   32    9   30 1     
   33    9   31 1     
   34   13   32 1     
   35   15   33 1     
   36   16   34 1     
   37   18   35 1     
   38   18   36 1     
   39   18   37 1     
   40   19   38 1     
   41   20   39 1     
   42   21   40 1     
   43   22   41 1     
   44   23   42 1     
@<TRIPOS>SUBSTRUCTURE
      1 RES1           1
@<TRIPOS>SET
DONOR_HYDROGENS      STATIC     ATOMS    <user>   **** ""
1 33
ATOM$RED        STATIC     ATOMS    COLORGROUP SYSTEM
1 33
@<TRIPOS>COMMENT
> <Gold.Version>
2022.3.0

> <Gold.Id.Protein>
unknown|5ovf_clean|pdb

> <Gold.Protein.ActiveResidues>
 ILE839  VAL852  ILE856  LEU859  VAL871  LEU872  GLU873  VAL874  VAL875  SER876 
 ALA877  MET878  ASN879  SER880  SER881  PRO882  VAL883  TYR884  ARG885  LEU886 
 ASP887  HIS888  THR889  PHE890  GLU891  GLN892  ILE893  PRO894  SER895  ARG896 
 GLN897  LYS898  LYS899  ILE900  LEU901  GLU902  GLU903  ALA904  HIS905  GLU906 
 LEU907  SER908  GLU909  LYS914  GLU836  ILE839  VAL852  ILE855  ILE856  LEU859 
 GLN863  VAL871  LEU872  VAL874  VAL875  SER876  ALA877  MET878  ASN879  SER880 
 SER881  PRO882  VAL883  TYR884  ARG885  LEU886  ASP887  HIS888  THR889  PHE890 
 GLU891  GLN892  ILE893  PRO894  SER895  ARG896  GLN897  LYS898  LYS899  ILE900 
 LEU901  GLU902  GLU903  ALA904  HIS905  GLU906  LEU907  SER908  GLU909  ASP910 
 LYS914 

> <Gold.Score>
     Fitness  S(hb_ext) S(vdw_ext)  S(hb_int)    S(int)     S(con)      intcor
     65.01       1.48      49.18       0.00      -4.09      -0.00      -7.59

> <Gold.Goldscore.Fitness>
65.0116

> <Gold.Goldscore.Internal.Vdw>
-9.3718

> <Gold.Goldscore.Internal.Torsion>
-2.3097

> <Gold.Goldscore.External.Vdw>
49.1782

> <Gold.Goldscore.Internal.HBond>
0.0000

> <Gold.Goldscore.External.HBond>
1.4848

> <Gold.Goldscore.Internal.Correction>
-7.5883

> <Gold.Goldscore.Constraint.Score>
-0.0000

> <Gold.Goldscore.Reference.RMSD>
5.2534

> <Gold.Goldscore.Hbonds>
donor molecule, donor type, donor heavy atom, donor atom, acceptor molecule, acceptor atom, score
      L1  H    15    33       P1  2553  0.74

> <Gold.Goldscore.Internal.Vdw.Weighted>
-9.3718

> <Gold.Goldscore.Internal.Torsion.Weighted>
-2.3097

> <Gold.Goldscore.External.Vdw.Weighted>
67.6201

> <Gold.Goldscore.Internal.HBond.Weighted>
0.0000

> <Gold.Goldscore.External.HBond.Weighted>
1.4848

> <Gold.Goldscore.Internal.Correction.Weighted>
-7.5883

> <Gold.Rescore>
     Score         DG    S(hbond)    S(metal)    S(lipo)     H(rot)  DE(clash)    DE(int)    DE(con)     intcor
     29.61     -30.54       0.97        0.00     220.47       1.56       0.41       0.52       0.00       ----

> <Gold.Chemscore.Fitness>
29.6116

> <Gold.Chemscore.DG>
-30.5404

> <Gold.Chemscore.ZeroCoef>
-5.4800

> <Gold.Chemscore.Hbond>
0.9729

> <Gold.Chemscore.Metal>
0.0000

> <Gold.Chemscore.Lipo>
220.4661

> <Gold.Chemscore.Internal_Hbond>
0.0000

> <Gold.Chemscore.DEClash>
0.4057

> <Gold.Chemscore.DEInternal>
0.5231

> <Gold.Chemscore.Rot>
1.5560

> <Gold.Chemscore.Internal.Correction>
   9.000000E+99

> <Gold.Chemscore.Constraint>
0.0000

> <Gold.Chemscore.Reference.RMSD>
0.0000

> <Gold.Chemscore.Hbonds>
donor molecule, donor type, donor heavy atom, donor atom, acceptor molecule, acceptor atom, score
      L1  H    15    33       P1  2553  0.95

> <Gold.Chemscore.Hbond.Weighted>
-3.2493

> <Gold.Chemscore.Metal.Weighted>
-0.0000

> <Gold.Chemscore.Lipo.Weighted>
-25.7945

> <Gold.Chemscore.Internal_Hbond.Weighted>
0.0000

> <Gold.Chemscore.DEClash.Weighted>
0.4057

> <Gold.Chemscore.DEInternal.Weighted>
0.5231

> <Gold.Chemscore.Rot.Weighted>
3.9834

> <Gold.Chemscore.Internal.Correction.Weighted>
   9.000000E+99

> <Gold.Reference.RMSD>
5.2534

#       Name:                example_2
#       Creating user name   hitesit
#       Creation time:       Mon Nov  6 23:30:11 2023


#       File generated by GOLD software.
#

@<TRIPOS>MOLECULE
example_2|example_2_prep|mol2|1|dock1
    42    44     1
SMALL
NO_CHARGES


@<TRIPOS>ATOM
      1 O1          20.2144 -29.3299  48.5332 O.3            1 RES1               0.0000
      2 C2          20.7252 -29.8905  47.3889 C.ar           1 RES1               0.0000
      3 C3          21.1256 -29.0030  49.5730 C.3            1 RES1               0.0000
      4 C4          19.7896 -30.2490  46.4057 C.ar           1 RES1               0.0000
      5 C5          22.0868 -30.1246  47.1613 C.ar           1 RES1               0.0000
      6 O6          18.4723 -30.0078  46.7004 O.3            1 RES1               0.0000
      7 C7          20.2436 -30.8203  45.2170 C.ar           1 RES1               0.0000
      8 C8          22.5495 -30.6933  45.9812 C.ar           1 RES1               0.0000
      9 C9          17.5182 -30.2012  45.6657 C.3            1 RES1               0.0000
     10 C10         21.6254 -31.0225  44.9845 C.ar           1 RES1               0.0000
     11 N11         23.8615 -30.9140  45.8479 N.ar           1 RES1               0.0000
     12 C12         22.1719 -31.5783  43.8175 C.ar           1 RES1               0.0000
     13 C13         24.2609 -31.4951  44.7109 C.ar           1 RES1               0.0000
     14 N14         23.4799 -31.8451  43.6843 N.ar           1 RES1               0.0000
     15 N15         21.3943 -31.8998  42.7014 N.pl3          1 RES1               0.0000
     16 C16         21.9993 -32.8542  41.7571 C.3            1 RES1               0.0000
     17 C17         21.7032 -34.2666  42.2490 C.ar           1 RES1               0.0000
     18 C18         21.4936 -32.6845  40.3252 C.3            1 RES1               0.0000
     19 C19         20.3873 -34.7554  42.3156 C.ar           1 RES1               0.0000
     20 C20         22.7530 -35.1077  42.6502 C.ar           1 RES1               0.0000
     21 C21         20.1301 -36.0511  42.7661 C.ar           1 RES1               0.0000
     22 C22         22.4933 -36.4037  43.1002 C.ar           1 RES1               0.0000
     23 C23         21.1832 -36.8749  43.1569 C.ar           1 RES1               0.0000
     24 H1          20.5806 -28.5700  50.4105 H              1 RES1               0.0000
     25 H2          21.8549 -28.2835  49.2036 H              1 RES1               0.0000
     26 H3          21.6399 -29.9048  49.9019 H              1 RES1               0.0000
     27 H4          22.8053 -29.8524  47.9330 H              1 RES1               0.0000
     28 H5          19.5235 -31.1156  44.4553 H              1 RES1               0.0000
     29 H6          16.5224 -29.9733  46.0430 H              1 RES1               0.0000
     30 H7          17.5512 -31.2368  45.3304 H              1 RES1               0.0000
     31 H8          17.7496 -29.5417  44.8307 H              1 RES1               0.0000
     32 H9          25.3253 -31.7029  44.6123 H              1 RES1               0.0000
     33 H10         20.4728 -31.5014  42.5515 H              1 RES1               0.0000
     34 H11         23.0782 -32.7066  41.7615 H              1 RES1               0.0000
     35 H12         21.7088 -31.6737  39.9816 H              1 RES1               0.0000
     36 H13         20.4186 -32.8562  40.2970 H              1 RES1               0.0000
     37 H14         21.9930 -33.4025  39.6763 H              1 RES1               0.0000
     38 H15         19.5593 -34.1163  42.0125 H              1 RES1               0.0000
     39 H16         23.7795 -34.7460  42.6100 H              1 RES1               0.0000
     40 H17         19.1058 -36.4182  42.8122 H              1 RES1               0.0000
     41 H18         23.3161 -37.0475  43.4074 H              1 RES1               0.0000
     42 H19         20.9827 -37.8866  43.5066 H              1 RES1               0.0000
@<TRIPOS>BOND
    1    1    2 1     
    2    1    3 1     
    3    2    4 ar    
    4    2    5 ar    
    5    4    6 1     
    6    4    7 ar    
    7    5    8 ar    
    8    6    9 1     
    9    7   10 ar    
   10    8   11 ar    
   11   10   12 ar    
   12   11   13 ar    
   13   12   14 ar    
   14   12   15 1     
   15   15   16 1     
   16   16   17 1     
   17   16   18 1     
   18   17   19 ar    
   19   17   20 ar    
   20   19   21 ar    
   21   20   22 ar    
   22   21   23 ar    
   23    8   10 ar    
   24   13   14 ar    
   25   22   23 ar    
   26    3   24 1     
   27    3   25 1     
   28    3   26 1     
   29    5   27 1     
   30    7   28 1     
   31    9   29 1     
   32    9   30 1     
   33    9   31 1     
   34   13   32 1     
   35   15   33 1     
   36   16   34 1     
   37   18   35 1     
   38   18   36 1     
   39   18   37 1     
   40   19   38 1     
   41   20   39 1     
   42   21   40 1     
   43   22   41 1     
   44   23   42 1     
@<TRIPOS>SUBSTRUCTURE
      1 RES1           1
@<TRIPOS>SET
DONOR_HYDROGENS      STATIC     ATOMS    <user>   **** ""
1 33
ATOM$RED        STATIC     ATOMS    COLORGROUP SYSTEM
1 33
@<TRIPOS>COMMENT
> <Gold.Version>
2022.3.0

> <Gold.Id.Protein>
unknown|5ovf_clean|pdb

> <Gold.Protein.ActiveResidues>
 ILE839  VAL852  ILE856  LEU859  VAL871  LEU872  GLU873  VAL874  VAL875  SER876 
 ALA877  MET878  ASN879  SER880  SER881  PRO882  VAL883  TYR884  ARG885  LEU886 
 ASP887  HIS888  THR889  PHE890  GLU891  GLN892  ILE893  PRO894  SER895  ARG896 
 GLN897  LYS898  LYS899  ILE900  LEU901  GLU902  GLU903  ALA904  HIS905  GLU906 
 LEU907  SER908  GLU909  LYS914  GLU836  ILE839  VAL852  ILE855  ILE856  LEU859 
 GLN863  VAL871  LEU872  VAL874  VAL875  SER876  ALA877  MET878  ASN879  SER880 
 SER881  PRO882  VAL883  TYR884  ARG885  LEU886  ASP887  HIS888  THR889  PHE890 
 GLU891  GLN892  ILE893  PRO894  SER895  ARG896  GLN897  LYS898  LYS899  ILE900 
 LEU901  GLU902  GLU903  ALA904  HIS905  GLU906  LEU907  SER908  GLU909  ASP910 
 LYS914 

> <Gold.Score>
     Fitness  S(hb_ext) S(vdw_ext)  S(hb_int)    S(int)     S(con)      intcor
     64.98       1.36      49.33       0.00      -4.21      -0.00      -7.59

> <Gold.Goldscore.Fitness>
64.9834

> <Gold.Goldscore.Internal.Vdw>
-9.4904

> <Gold.Goldscore.Internal.Torsion>
-2.3061

> <Gold.Goldscore.External.Vdw>
49.3326

> <Gold.Goldscore.Internal.HBond>
0.0000

> <Gold.Goldscore.External.HBond>
1.3592

> <Gold.Goldscore.Internal.Correction>
-7.5883

> <Gold.Goldscore.Constraint.Score>
-0.0000

> <Gold.Goldscore.Reference.RMSD>
5.2598

> <Gold.Goldscore.Hbonds>
donor molecule, donor type, donor heavy atom, donor atom, acceptor molecule, acceptor atom, score
      L1  H    15    33       P1  2553  0.68

> <Gold.Goldscore.Internal.Vdw.Weighted>
-9.4904

> <Gold.Goldscore.Internal.Torsion.Weighted>
-2.3061

> <Gold.Goldscore.External.Vdw.Weighted>
67.8324

> <Gold.Goldscore.Internal.HBond.Weighted>
0.0000

> <Gold.Goldscore.External.HBond.Weighted>
1.3592

> <Gold.Goldscore.Internal.Correction.Weighted>
-7.5883

> <Gold.Rescore>
     Score         DG    S(hbond)    S(metal)    S(lipo)     H(rot)  DE(clash)    DE(int)    DE(con)     intcor
     29.01     -29.59       0.96        0.00     212.68       1.56       0.10       0.49       0.00       ----

> <Gold.Chemscore.Fitness>
29.0133

> <Gold.Chemscore.DG>
-29.5950

> <Gold.Chemscore.ZeroCoef>
-5.4800

> <Gold.Chemscore.Hbond>
0.9624

> <Gold.Chemscore.Metal>
0.0000

> <Gold.Chemscore.Lipo>
212.6839

> <Gold.Chemscore.Internal_Hbond>
0.0000

> <Gold.Chemscore.DEClash>
0.0956

> <Gold.Chemscore.DEInternal>
0.4861

> <Gold.Chemscore.Rot>
1.5560

> <Gold.Chemscore.Internal.Correction>
   9.000000E+99

> <Gold.Chemscore.Constraint>
0.0000

> <Gold.Chemscore.Reference.RMSD>
0.0000

> <Gold.Chemscore.Hbonds>
donor molecule, donor type, donor heavy atom, donor atom, acceptor molecule, acceptor atom, score
      L1  H    15    33       P1  2553  0.93

> <Gold.Chemscore.Hbond.Weighted>
-3.2144

> <Gold.Chemscore.Metal.Weighted>
-0.0000

> <Gold.Chemscore.Lipo.Weighted>
-24.8840

> <Gold.Chemscore.Internal_Hbond.Weighted>
0.0000

> <Gold.Chemscore.DEClash.Weighted>
0.0956

> <Gold.Chemscore.DEInternal.Weighted>
0.4861

> <Gold.Chemscore.Rot.Weighted>
3.9834

> <Gold.Chemscore.Internal.Correction.Weighted>
   9.000000E+99

> <Gold.Reference.RMSD>
5.2598

#       Name:                example_2
#       Creating user name   hitesit
#       Creation time:       Mon Nov  6 23:30:18 2023


#       File generated by GOLD software.
#

@<TRIPOS>MOLECULE
example_2|example_2_prep|mol2|1|dock3
    42    44     1
SMALL
NO_CHARGES


@<TRIPOS>ATOM
      1 O1          20.1990 -29.2360  48.5290 O.3            1 RES1               0.0000
      2 C2          20.7150 -29.8191  47.3983 C.ar           1 RES1               0.0000
      3 C3          21.1029 -28.9069  49.5744 C.3            1 RES1               0.0000
      4 C4          19.7831 -30.2050  46.4219 C.ar           1 RES1               0.0000
      5 C5          22.0783 -30.0502  47.1781 C.ar           1 RES1               0.0000
      6 O6          18.4640 -29.9651  46.7091 O.3            1 RES1               0.0000
      7 C7          20.2425 -30.8001  45.2470 C.ar           1 RES1               0.0000
      8 C8          22.5464 -30.6425  46.0118 C.ar           1 RES1               0.0000
      9 C9          17.5119 -30.1943  45.6799 C.3            1 RES1               0.0000
     10 C10         21.6259 -30.9994  45.0213 C.ar           1 RES1               0.0000
     11 N11         23.8599 -30.8584  45.8855 N.ar           1 RES1               0.0000
     12 C12         22.1775 -31.5779  43.8679 C.ar           1 RES1               0.0000
     13 C13         24.2645 -31.4624  44.7624 C.ar           1 RES1               0.0000
     14 N14         23.4873 -31.8399  43.7427 N.ar           1 RES1               0.0000
     15 N15         21.4037 -31.9289  42.7580 N.pl3          1 RES1               0.0000
     16 C16         22.0399 -32.8535  41.8046 C.3            1 RES1               0.0000
     17 C17         21.8072 -34.2789  42.2928 C.ar           1 RES1               0.0000
     18 C18         21.5154 -32.6992  40.3777 C.3            1 RES1               0.0000
     19 C19         20.5136 -34.8231  42.3663 C.ar           1 RES1               0.0000
     20 C20         22.8944 -35.0763  42.6835 C.ar           1 RES1               0.0000
     21 C21         20.3145 -36.1302  42.8134 C.ar           1 RES1               0.0000
     22 C22         22.6928 -36.3839  43.1300 C.ar           1 RES1               0.0000
     23 C23         21.4041 -36.9102  43.1937 C.ar           1 RES1               0.0000
     24 H1          20.5544 -28.4552  50.3997 H              1 RES1               0.0000
     25 H2          21.8458 -28.2023  49.2036 H              1 RES1               0.0000
     26 H3          21.6013 -29.8108  49.9214 H              1 RES1               0.0000
     27 H4          22.7939 -29.7566  47.9446 H              1 RES1               0.0000
     28 H5          19.5254 -31.1166  44.4910 H              1 RES1               0.0000
     29 H6          16.5143 -29.9631  46.0501 H              1 RES1               0.0000
     30 H7          17.5525 -31.2387  45.3738 H              1 RES1               0.0000
     31 H8          17.7392 -29.5569  44.8267 H              1 RES1               0.0000
     32 H9          25.3302 -31.6661  44.6701 H              1 RES1               0.0000
     33 H10         20.4646 -31.5699  42.6183 H              1 RES1               0.0000
     34 H11         23.1118 -32.6610  41.8006 H              1 RES1               0.0000
     35 H12         21.6853 -31.6790  40.0367 H              1 RES1               0.0000
     36 H13         20.4483 -32.9156  40.3578 H              1 RES1               0.0000
     37 H14         22.0388 -33.3932  39.7215 H              1 RES1               0.0000
     38 H15         19.6572 -34.2185  42.0714 H              1 RES1               0.0000
     39 H16         23.9043 -34.6715  42.6379 H              1 RES1               0.0000
     40 H17         19.3070 -36.5405  42.8648 H              1 RES1               0.0000
     41 H18         23.5442 -36.9934  43.4290 H              1 RES1               0.0000
     42 H19         21.2490 -37.9308  43.5406 H              1 RES1               0.0000
@<TRIPOS>BOND
    1    1    2 1     
    2    1    3 1     
    3    2    4 ar    
    4    2    5 ar    
    5    4    6 1     
    6    4    7 ar    
    7    5    8 ar    
    8    6    9 1     
    9    7   10 ar    
   10    8   11 ar    
   11   10   12 ar    
   12   11   13 ar    
   13   12   14 ar    
   14   12   15 1     
   15   15   16 1     
   16   16   17 1     
   17   16   18 1     
   18   17   19 ar    
   19   17   20 ar    
   20   19   21 ar    
   21   20   22 ar    
   22   21   23 ar    
   23    8   10 ar    
   24   13   14 ar    
   25   22   23 ar    
   26    3   24 1     
   27    3   25 1     
   28    3   26 1     
   29    5   27 1     
   30    7   28 1     
   31    9   29 1     
   32    9   30 1     
   33    9   31 1     
   34   13   32 1     
   35   15   33 1     
   36   16   34 1     
   37   18   35 1     
   38   18   36 1     
   39   18   37 1     
   40   19   38 1     
   41   20   39 1     
   42   21   40 1     
   43   22   41 1     
   44   23   42 1     
@<TRIPOS>SUBSTRUCTURE
      1 RES1           1
@<TRIPOS>SET
DONOR_HYDROGENS      STATIC     ATOMS    <user>   **** ""
1 33
ATOM$RED        STATIC     ATOMS    COLORGROUP SYSTEM
1 33
@<TRIPOS>COMMENT
> <Gold.Version>
2022.3.0

> <Gold.Id.Protein>
unknown|5ovf_clean|pdb

> <Gold.Protein.ActiveResidues>
 ILE839  VAL852  ILE856  LEU859  VAL871  LEU872  GLU873  VAL874  VAL875  SER876 
 ALA877  MET878  ASN879  SER880  SER881  PRO882  VAL883  TYR884  ARG885  LEU886 
 ASP887  HIS888  THR889  PHE890  GLU891  GLN892  ILE893  PRO894  SER895  ARG896 
 GLN897  LYS898  LYS899  ILE900  LEU901  GLU902  GLU903  ALA904  HIS905  GLU906 
 LEU907  SER908  GLU909  LYS914  GLU836  ILE839  VAL852  ILE855  ILE856  LEU859 
 GLN863  VAL871  LEU872  VAL874  VAL875  SER876  ALA877  MET878  ASN879  SER880 
 SER881  PRO882  VAL883  TYR884  ARG885  LEU886  ASP887  HIS888  THR889  PHE890 
 GLU891  GLN892  ILE893  PRO894  SER895  ARG896  GLN897  LYS898  LYS899  ILE900 
 LEU901  GLU902  GLU903  ALA904  HIS905  GLU906  LEU907  SER908  GLU909  ASP910 
 LYS914 

> <Gold.Score>
     Fitness  S(hb_ext) S(vdw_ext)  S(hb_int)    S(int)     S(con)      intcor
     64.94       1.74      49.15       0.00      -4.39      -0.00      -7.59

> <Gold.Goldscore.Fitness>
64.9408

> <Gold.Goldscore.Internal.Vdw>
-9.8405

> <Gold.Goldscore.Internal.Torsion>
-2.1336

> <Gold.Goldscore.External.Vdw>
49.1507

> <Gold.Goldscore.Internal.HBond>
0.0000

> <Gold.Goldscore.External.HBond>
1.7444

> <Gold.Goldscore.Internal.Correction>
-7.5883

> <Gold.Goldscore.Constraint.Score>
-0.0000

> <Gold.Goldscore.Reference.RMSD>
5.2693

> <Gold.Goldscore.Hbonds>
donor molecule, donor type, donor heavy atom, donor atom, acceptor molecule, acceptor atom, score
      L1  H    15    33       P1  2553  0.87

> <Gold.Goldscore.Internal.Vdw.Weighted>
-9.8405

> <Gold.Goldscore.Internal.Torsion.Weighted>
-2.1336

> <Gold.Goldscore.External.Vdw.Weighted>
67.5822

> <Gold.Goldscore.Internal.HBond.Weighted>
0.0000

> <Gold.Goldscore.External.HBond.Weighted>
1.7444

> <Gold.Goldscore.Internal.Correction.Weighted>
-7.5883

> <Gold.Rescore>
     Score         DG    S(hbond)    S(metal)    S(lipo)     H(rot)  DE(clash)    DE(int)    DE(con)     intcor
     29.73     -30.28       0.96        0.00     218.54       1.56       0.11       0.44       0.00       ----

> <Gold.Chemscore.Fitness>
29.7303

> <Gold.Chemscore.DG>
-30.2837

> <Gold.Chemscore.ZeroCoef>
-5.4800

> <Gold.Chemscore.Hbond>
0.9636

> <Gold.Chemscore.Metal>
0.0000

> <Gold.Chemscore.Lipo>
218.5367

> <Gold.Chemscore.Internal_Hbond>
0.0000

> <Gold.Chemscore.DEClash>
0.1093

> <Gold.Chemscore.DEInternal>
0.4441

> <Gold.Chemscore.Rot>
1.5560

> <Gold.Chemscore.Internal.Correction>
   9.000000E+99

> <Gold.Chemscore.Constraint>
0.0000

> <Gold.Chemscore.Reference.RMSD>
0.0000

> <Gold.Chemscore.Hbonds>
donor molecule, donor type, donor heavy atom, donor atom, acceptor molecule, acceptor atom, score
      L1  H    15    33       P1  2553  0.97

> <Gold.Chemscore.Hbond.Weighted>
-3.2184

> <Gold.Chemscore.Metal.Weighted>
-0.0000

> <Gold.Chemscore.Lipo.Weighted>
-25.5688

> <Gold.Chemscore.Internal_Hbond.Weighted>
0.0000

> <Gold.Chemscore.DEClash.Weighted>
0.1093

> <Gold.Chemscore.DEInternal.Weighted>
0.4441

> <Gold.Chemscore.Rot.Weighted>
3.9834

> <Gold.Chemscore.Internal.Correction.Weighted>
   9.000000E+99

> <Gold.Reference.RMSD>
5.2693

#       Name:                example_2
#       Creating user name   hitesit
#       Creation time:       Mon Nov  6 23:30:28 2023


#       File generated by GOLD software.
#

@<TRIPOS>MOLECULE
example_2|example_2_prep|mol2|1|dock6
    42    44     1
SMALL
NO_CHARGES


@<TRIPOS>ATOM
      1 O1          20.2733 -29.2779  48.5413 O.3            1 RES1               0.0000
      2 C2          20.7762 -29.8525  47.4003 C.ar           1 RES1               0.0000
      3 C3          21.1905 -28.9482  49.5749 C.3            1 RES1               0.0000
      4 C4          19.8368 -30.1915  46.4138 C.ar           1 RES1               0.0000
      5 C5          22.1331 -30.1180  47.1791 C.ar           1 RES1               0.0000
      6 O6          18.5242 -29.9198  46.7023 O.3            1 RES1               0.0000
      7 C7          20.2829 -30.7756  45.2282 C.ar           1 RES1               0.0000
      8 C8          22.5877 -30.6997  46.0023 C.ar           1 RES1               0.0000
      9 C9          17.5600 -30.1706  45.6895 C.3            1 RES1               0.0000
     10 C10         21.6606 -31.0098  45.0022 C.ar           1 RES1               0.0000
     11 N11         23.8949 -30.9506  45.8752 N.ar           1 RES1               0.0000
     12 C12         22.1993 -31.5804  43.8387 C.ar           1 RES1               0.0000
     13 C13         24.2858 -31.5431  44.7410 C.ar           1 RES1               0.0000
     14 N14         23.5014 -31.8774  43.7118 N.ar           1 RES1               0.0000
     15 N15         21.4194 -31.8864  42.7198 N.pl3          1 RES1               0.0000
     16 C16         22.0166 -32.8385  41.7682 C.3            1 RES1               0.0000
     17 C17         21.7185 -34.2522  42.2552 C.ar           1 RES1               0.0000
     18 C18         21.5042 -32.6606  40.3396 C.3            1 RES1               0.0000
     19 C19         20.4015 -34.7377  42.3246 C.ar           1 RES1               0.0000
     20 C20         22.7675 -35.0977  42.6488 C.ar           1 RES1               0.0000
     21 C21         20.1425 -36.0346  42.7705 C.ar           1 RES1               0.0000
     22 C22         22.5060 -36.3950  43.0943 C.ar           1 RES1               0.0000
     23 C23         21.1948 -36.8629  43.1539 C.ar           1 RES1               0.0000
     24 H1          20.6516 -28.5038  50.4104 H              1 RES1               0.0000
     25 H2          21.9237 -28.2374  49.1966 H              1 RES1               0.0000
     26 H3          21.6994 -29.8508  49.9102 H              1 RES1               0.0000
     27 H4          22.8542 -29.8607  47.9534 H              1 RES1               0.0000
     28 H5          19.5595 -31.0560  44.4640 H              1 RES1               0.0000
     29 H6          16.5693 -29.9097  46.0588 H              1 RES1               0.0000
     30 H7          17.5812 -31.2259  45.4215 H              1 RES1               0.0000
     31 H8          17.7903 -29.5685  44.8119 H              1 RES1               0.0000
     32 H9          25.3455 -31.7753  44.6475 H              1 RES1               0.0000
     33 H10         20.5013 -31.4791  42.5729 H              1 RES1               0.0000
     34 H11         23.0960 -32.6943  41.7678 H              1 RES1               0.0000
     35 H12         21.7208 -31.6490  39.9996 H              1 RES1               0.0000
     36 H13         20.4285 -32.8289  40.3162 H              1 RES1               0.0000
     37 H14         21.9980 -33.3772  39.6850 H              1 RES1               0.0000
     38 H15         19.5741 -34.0951  42.0273 H              1 RES1               0.0000
     39 H16         23.7948 -34.7387  42.6064 H              1 RES1               0.0000
     40 H17         19.1174 -36.3991  42.8188 H              1 RES1               0.0000
     41 H18         23.3282 -37.0423  43.3956 H              1 RES1               0.0000
     42 H19         20.9929 -37.8755  43.5000 H              1 RES1               0.0000
@<TRIPOS>BOND
    1    1    2 1     
    2    1    3 1     
    3    2    4 ar    
    4    2    5 ar    
    5    4    6 1     
    6    4    7 ar    
    7    5    8 ar    
    8    6    9 1     
    9    7   10 ar    
   10    8   11 ar    
   11   10   12 ar    
   12   11   13 ar    
   13   12   14 ar    
   14   12   15 1     
   15   15   16 1     
   16   16   17 1     
   17   16   18 1     
   18   17   19 ar    
   19   17   20 ar    
   20   19   21 ar    
   21   20   22 ar    
   22   21   23 ar    
   23    8   10 ar    
   24   13   14 ar    
   25   22   23 ar    
   26    3   24 1     
   27    3   25 1     
   28    3   26 1     
   29    5   27 1     
   30    7   28 1     
   31    9   29 1     
   32    9   30 1     
   33    9   31 1     
   34   13   32 1     
   35   15   33 1     
   36   16   34 1     
   37   18   35 1     
   38   18   36 1     
   39   18   37 1     
   40   19   38 1     
   41   20   39 1     
   42   21   40 1     
   43   22   41 1     
   44   23   42 1     
@<TRIPOS>SUBSTRUCTURE
      1 RES1           1
@<TRIPOS>SET
DONOR_HYDROGENS      STATIC     ATOMS    <user>   **** ""
1 33
ATOM$RED        STATIC     ATOMS    COLORGROUP SYSTEM
1 33
@<TRIPOS>COMMENT
> <Gold.Version>
2022.3.0

> <Gold.Id.Protein>
unknown|5ovf_clean|pdb

> <Gold.Protein.ActiveResidues>
 ILE839  VAL852  ILE856  LEU859  VAL871  LEU872  GLU873  VAL874  VAL875  SER876 
 ALA877  MET878  ASN879  SER880  SER881  PRO882  VAL883  TYR884  ARG885  LEU886 
 ASP887  HIS888  THR889  PHE890  GLU891  GLN892  ILE893  PRO894  SER895  ARG896 
 GLN897  LYS898  LYS899  ILE900  LEU901  GLU902  GLU903  ALA904  HIS905  GLU906 
 LEU907  SER908  GLU909  LYS914  GLU836  ILE839  VAL852  ILE855  ILE856  LEU859 
 GLN863  VAL871  LEU872  VAL874  VAL875  SER876  ALA877  MET878  ASN879  SER880 
 SER881  PRO882  VAL883  TYR884  ARG885  LEU886  ASP887  HIS888  THR889  PHE890 
 GLU891  GLN892  ILE893  PRO894  SER895  ARG896  GLN897  LYS898  LYS899  ILE900 
 LEU901  GLU902  GLU903  ALA904  HIS905  GLU906  LEU907  SER908  GLU909  ASP910 
 LYS914 

> <Gold.Score>
     Fitness  S(hb_ext) S(vdw_ext)  S(hb_int)    S(int)     S(con)      intcor
     64.80       1.31      49.22       0.00      -4.19      -0.00      -7.37

> <Gold.Goldscore.Fitness>
64.7982

> <Gold.Goldscore.Internal.Vdw>
-9.3667

> <Gold.Goldscore.Internal.Torsion>
-2.2009

> <Gold.Goldscore.External.Vdw>
49.2194

> <Gold.Goldscore.Internal.HBond>
0.0000

> <Gold.Goldscore.External.HBond>
1.3149

> <Gold.Goldscore.Internal.Correction>
-7.3743

> <Gold.Goldscore.Constraint.Score>
-0.0000

> <Gold.Goldscore.Reference.RMSD>
5.2716

> <Gold.Goldscore.Hbonds>
donor molecule, donor type, donor heavy atom, donor atom, acceptor molecule, acceptor atom, score
      L1  H    15    33       P1  2553  0.66

> <Gold.Goldscore.Internal.Vdw.Weighted>
-9.3667

> <Gold.Goldscore.Internal.Torsion.Weighted>
-2.2009

> <Gold.Goldscore.External.Vdw.Weighted>
67.6767

> <Gold.Goldscore.Internal.HBond.Weighted>
0.0000

> <Gold.Goldscore.External.HBond.Weighted>
1.3149

> <Gold.Goldscore.Internal.Correction.Weighted>
-7.3743

> <Gold.Rescore>
     Score         DG    S(hbond)    S(metal)    S(lipo)     H(rot)  DE(clash)    DE(int)    DE(con)     intcor
     29.88     -30.42       0.99        0.00     218.96       1.56       0.11       0.43       0.00       ----

> <Gold.Chemscore.Fitness>
29.8764

> <Gold.Chemscore.DG>
-30.4153

> <Gold.Chemscore.ZeroCoef>
-5.4800

> <Gold.Chemscore.Hbond>
0.9881

> <Gold.Chemscore.Metal>
0.0000

> <Gold.Chemscore.Lipo>
218.9621

> <Gold.Chemscore.Internal_Hbond>
0.0000

> <Gold.Chemscore.DEClash>
0.1067

> <Gold.Chemscore.DEInternal>
0.4322

> <Gold.Chemscore.Rot>
1.5560

> <Gold.Chemscore.Internal.Correction>
   9.000000E+99

> <Gold.Chemscore.Constraint>
0.0000

> <Gold.Chemscore.Reference.RMSD>
0.0000

> <Gold.Chemscore.Hbonds>
donor molecule, donor type, donor heavy atom, donor atom, acceptor molecule, acceptor atom, score
      L1  H    15    33       P1  2553  0.93

> <Gold.Chemscore.Hbond.Weighted>
-3.3002

> <Gold.Chemscore.Metal.Weighted>
-0.0000

> <Gold.Chemscore.Lipo.Weighted>
-25.6186

> <Gold.Chemscore.Internal_Hbond.Weighted>
0.0000

> <Gold.Chemscore.DEClash.Weighted>
0.1067

> <Gold.Chemscore.DEInternal.Weighted>
0.4322

> <Gold.Chemscore.Rot.Weighted>
3.9834

> <Gold.Chemscore.Internal.Correction.Weighted>
   9.000000E+99

> <Gold.Reference.RMSD>
5.2716

#       Name:                example_2
#       Creating user name   hitesit
#       Creation time:       Mon Nov  6 23:30:25 2023


#       File generated by GOLD software.
#

@<TRIPOS>MOLECULE
example_2|example_2_prep|mol2|1|dock5
    42    44     1
SMALL
NO_CHARGES


@<TRIPOS>ATOM
      1 O1          20.2223 -29.2824  48.5237 O.3            1 RES1               0.0000
      2 C2          20.7359 -29.8520  47.3849 C.ar           1 RES1               0.0000
      3 C3          21.1379 -28.8832  49.5339 C.3            1 RES1               0.0000
      4 C4          19.7997 -30.2574  46.4207 C.ar           1 RES1               0.0000
      5 C5          22.1009 -30.0520  47.1458 C.ar           1 RES1               0.0000
      6 O6          18.4795 -30.0477  46.7263 O.3            1 RES1               0.0000
      7 C7          20.2563 -30.8402  45.2385 C.ar           1 RES1               0.0000
      8 C8          22.5662 -30.6318  45.9722 C.ar           1 RES1               0.0000
      9 C9          17.5203 -30.2803  45.7044 C.3            1 RES1               0.0000
     10 C10         21.6405 -31.0078  44.9936 C.ar           1 RES1               0.0000
     11 N11         23.8824 -30.8178  45.8276 N.ar           1 RES1               0.0000
     12 C12         22.1893 -31.5720  43.8318 C.ar           1 RES1               0.0000
     13 C13         24.2852 -31.4109  44.6980 C.ar           1 RES1               0.0000
     14 N14         23.5028 -31.8043  43.6883 N.ar           1 RES1               0.0000
     15 N15         21.4085 -31.9387  42.7319 N.pl3          1 RES1               0.0000
     16 C16         22.0411 -32.8717  41.7843 C.3            1 RES1               0.0000
     17 C17         21.8173 -34.2924  42.2902 C.ar           1 RES1               0.0000
     18 C18         21.5056 -32.7355  40.3596 C.3            1 RES1               0.0000
     19 C19         22.8942 -35.1054  42.6829 C.ar           1 RES1               0.0000
     20 C20         20.5172 -34.8158  42.3687 C.ar           1 RES1               0.0000
     21 C21         22.6753 -36.4038  43.1460 C.ar           1 RES1               0.0000
     22 C22         20.3007 -36.1149  42.8327 C.ar           1 RES1               0.0000
     23 C23         21.3788 -36.9073  43.2218 C.ar           1 RES1               0.0000
     24 H1          20.5901 -28.4517  50.3704 H              1 RES1               0.0000
     25 H2          21.8250 -28.1418  49.1288 H              1 RES1               0.0000
     26 H3          21.7005 -29.7502  49.8771 H              1 RES1               0.0000
     27 H4          22.8201 -29.7434  47.9031 H              1 RES1               0.0000
     28 H5          19.5362 -31.1716  44.4918 H              1 RES1               0.0000
     29 H6          16.5227 -30.0742  46.0893 H              1 RES1               0.0000
     30 H7          17.5777 -31.3190  45.3823 H              1 RES1               0.0000
     31 H8          17.7252 -29.6260  44.8584 H              1 RES1               0.0000
     32 H9          25.3539 -31.5904  44.5908 H              1 RES1               0.0000
     33 H10         20.4669 -31.5850  42.5953 H              1 RES1               0.0000
     34 H11         23.1122 -32.6754  41.7703 H              1 RES1               0.0000
     35 H12         21.6693 -31.7185  40.0060 H              1 RES1               0.0000
     36 H13         20.4392 -32.9559  40.3500 H              1 RES1               0.0000
     37 H14         22.0267 -33.4349  39.7075 H              1 RES1               0.0000
     38 H15         23.9105 -34.7183  42.6252 H              1 RES1               0.0000
     39 H16         19.6696 -34.2031  42.0651 H              1 RES1               0.0000
     40 H17         23.5184 -37.0234  43.4480 H              1 RES1               0.0000
     41 H18         19.2874 -36.5095  42.8906 H              1 RES1               0.0000
     42 H19         21.2079 -37.9196  43.5850 H              1 RES1               0.0000
@<TRIPOS>BOND
    1    1    2 1     
    2    1    3 1     
    3    2    4 ar    
    4    2    5 ar    
    5    4    6 1     
    6    4    7 ar    
    7    5    8 ar    
    8    6    9 1     
    9    7   10 ar    
   10    8   11 ar    
   11   10   12 ar    
   12   11   13 ar    
   13   12   14 ar    
   14   12   15 1     
   15   15   16 1     
   16   16   17 1     
   17   16   18 1     
   18   17   19 ar    
   19   17   20 ar    
   20   19   21 ar    
   21   20   22 ar    
   22   21   23 ar    
   23    8   10 ar    
   24   13   14 ar    
   25   22   23 ar    
   26    3   24 1     
   27    3   25 1     
   28    3   26 1     
   29    5   27 1     
   30    7   28 1     
   31    9   29 1     
   32    9   30 1     
   33    9   31 1     
   34   13   32 1     
   35   15   33 1     
   36   16   34 1     
   37   18   35 1     
   38   18   36 1     
   39   18   37 1     
   40   19   38 1     
   41   20   39 1     
   42   21   40 1     
   43   22   41 1     
   44   23   42 1     
@<TRIPOS>SUBSTRUCTURE
      1 RES1           1
@<TRIPOS>SET
DONOR_HYDROGENS      STATIC     ATOMS    <user>   **** ""
1 33
ATOM$RED        STATIC     ATOMS    COLORGROUP SYSTEM
1 33
@<TRIPOS>COMMENT
> <Gold.Version>
2022.3.0

> <Gold.Id.Protein>
unknown|5ovf_clean|pdb

> <Gold.Protein.ActiveResidues>
 ILE839  VAL852  ILE856  LEU859  VAL871  LEU872  GLU873  VAL874  VAL875  SER876 
 ALA877  MET878  ASN879  SER880  SER881  PRO882  VAL883  TYR884  ARG885  LEU886 
 ASP887  HIS888  THR889  PHE890  GLU891  GLN892  ILE893  PRO894  SER895  ARG896 
 GLN897  LYS898  LYS899  ILE900  LEU901  GLU902  GLU903  ALA904  HIS905  GLU906 
 LEU907  SER908  GLU909  LYS914  GLU836  ILE839  VAL852  ILE855  ILE856  LEU859 
 GLN863  VAL871  LEU872  VAL874  VAL875  SER876  ALA877  MET878  ASN879  SER880 
 SER881  PRO882  VAL883  TYR884  ARG885  LEU886  ASP887  HIS888  THR889  PHE890 
 GLU891  GLN892  ILE893  PRO894  SER895  ARG896  GLN897  LYS898  LYS899  ILE900 
 LEU901  GLU902  GLU903  ALA904  HIS905  GLU906  LEU907  SER908  GLU909  ASP910 
 LYS914 

> <Gold.Score>
     Fitness  S(hb_ext) S(vdw_ext)  S(hb_int)    S(int)     S(con)      intcor
     64.79       1.80      49.18       0.00      -4.62      -0.00      -7.37

> <Gold.Goldscore.Fitness>
64.7917

> <Gold.Goldscore.Internal.Vdw>
-9.7745

> <Gold.Goldscore.Internal.Torsion>
-2.2192

> <Gold.Goldscore.External.Vdw>
49.1751

> <Gold.Goldscore.Internal.HBond>
0.0000

> <Gold.Goldscore.External.HBond>
1.7954

> <Gold.Goldscore.Internal.Correction>
-7.3743

> <Gold.Goldscore.Constraint.Score>
-0.0000

> <Gold.Goldscore.Reference.RMSD>
5.2618

> <Gold.Goldscore.Hbonds>
donor molecule, donor type, donor heavy atom, donor atom, acceptor molecule, acceptor atom, score
      L1  H    15    33       P1  2553  0.90

> <Gold.Goldscore.Internal.Vdw.Weighted>
-9.7745

> <Gold.Goldscore.Internal.Torsion.Weighted>
-2.2192

> <Gold.Goldscore.External.Vdw.Weighted>
67.6158

> <Gold.Goldscore.Internal.HBond.Weighted>
0.0000

> <Gold.Goldscore.External.HBond.Weighted>
1.7954

> <Gold.Goldscore.Internal.Correction.Weighted>
-7.3743

> <Gold.Rescore>
     Score         DG    S(hbond)    S(metal)    S(lipo)     H(rot)  DE(clash)    DE(int)    DE(con)     intcor
     29.79     -30.27       0.99        0.00     217.70       1.56       0.02       0.45       0.00       ----

> <Gold.Chemscore.Fitness>
29.7938

> <Gold.Chemscore.DG>
-30.2655

> <Gold.Chemscore.ZeroCoef>
-5.4800

> <Gold.Chemscore.Hbond>
0.9875

> <Gold.Chemscore.Metal>
0.0000

> <Gold.Chemscore.Lipo>
217.6992

> <Gold.Chemscore.Internal_Hbond>
0.0000

> <Gold.Chemscore.DEClash>
0.0170

> <Gold.Chemscore.DEInternal>
0.4546

> <Gold.Chemscore.Rot>
1.5560

> <Gold.Chemscore.Internal.Correction>
   9.000000E+99

> <Gold.Chemscore.Constraint>
0.0000

> <Gold.Chemscore.Reference.RMSD>
0.0000

> <Gold.Chemscore.Hbonds>
donor molecule, donor type, donor heavy atom, donor atom, acceptor molecule, acceptor atom, score
      L1  H    15    33       P1  2553  0.98

> <Gold.Chemscore.Hbond.Weighted>
-3.2981

> <Gold.Chemscore.Metal.Weighted>
-0.0000

> <Gold.Chemscore.Lipo.Weighted>
-25.4708

> <Gold.Chemscore.Internal_Hbond.Weighted>
0.0000

> <Gold.Chemscore.DEClash.Weighted>
0.0170

> <Gold.Chemscore.DEInternal.Weighted>
0.4546

> <Gold.Chemscore.Rot.Weighted>
3.9834

> <Gold.Chemscore.Internal.Correction.Weighted>
   9.000000E+99

> <Gold.Reference.RMSD>
5.2618

#       Name:                example_2
#       Creating user name   hitesit
#       Creation time:       Mon Nov  6 23:30:22 2023


#       File generated by GOLD software.
#

@<TRIPOS>MOLECULE
example_2|example_2_prep|mol2|1|dock4
    42    44     1
SMALL
NO_CHARGES


@<TRIPOS>ATOM
      1 O1          20.2559 -29.2688  48.5280 O.3            1 RES1               0.0000
      2 C2          20.7583 -29.8521  47.3912 C.ar           1 RES1               0.0000
      3 C3          21.1767 -28.9070  49.5476 C.3            1 RES1               0.0000
      4 C4          19.8178 -30.2049  46.4106 C.ar           1 RES1               0.0000
      5 C5          22.1157 -30.1137  47.1688 C.ar           1 RES1               0.0000
      6 O6          18.5047 -29.9363  46.7001 O.3            1 RES1               0.0000
      7 C7          20.2632 -30.7984  45.2295 C.ar           1 RES1               0.0000
      8 C8          22.5698 -30.7046  45.9964 C.ar           1 RES1               0.0000
      9 C9          17.5450 -30.1527  45.6751 C.3            1 RES1               0.0000
     10 C10         21.6414 -31.0286  45.0019 C.ar           1 RES1               0.0000
     11 N11         23.8778 -30.9508  45.8680 N.ar           1 RES1               0.0000
     12 C12         22.1795 -31.6079  43.8425 C.ar           1 RES1               0.0000
     13 C13         24.2682 -31.5524  44.7386 C.ar           1 RES1               0.0000
     14 N14         23.4826 -31.9002  43.7148 N.ar           1 RES1               0.0000
     15 N15         21.3979 -31.9282  42.7288 N.pl3          1 RES1               0.0000
     16 C16         22.0080 -32.8656  41.7708 C.3            1 RES1               0.0000
     17 C17         21.7397 -34.2863  42.2546 C.ar           1 RES1               0.0000
     18 C18         21.4846 -32.6929  40.3456 C.3            1 RES1               0.0000
     19 C19         22.7900 -35.1360  42.6419 C.ar           1 RES1               0.0000
     20 C20         20.4244 -34.7726  42.3177 C.ar           1 RES1               0.0000
     21 C21         22.5304 -36.4339  43.0847 C.ar           1 RES1               0.0000
     22 C22         20.1672 -36.0713  42.7615 C.ar           1 RES1               0.0000
     23 C23         21.2193 -36.9004  43.1454 C.ar           1 RES1               0.0000
     24 H1          20.6378 -28.4593  50.3812 H              1 RES1               0.0000
     25 H2          21.8936 -28.1894  49.1514 H              1 RES1               0.0000
     26 H3          21.7046 -29.7951  49.8918 H              1 RES1               0.0000
     27 H4          22.8378 -29.8456  47.9386 H              1 RES1               0.0000
     28 H5          19.5390 -31.0894  44.4700 H              1 RES1               0.0000
     29 H6          16.5534 -29.8987  46.0468 H              1 RES1               0.0000
     30 H7          17.5634 -31.1996  45.3758 H              1 RES1               0.0000
     31 H8          17.7826 -29.5256  44.8171 H              1 RES1               0.0000
     32 H9          25.3288 -31.7808  44.6443 H              1 RES1               0.0000
     33 H10         20.4704 -31.5401  42.5895 H              1 RES1               0.0000
     34 H11         23.0845 -32.7008  41.7651 H              1 RES1               0.0000
     35 H12         21.6800 -31.6762  40.0077 H              1 RES1               0.0000
     36 H13         20.4122 -32.8817  40.3273 H              1 RES1               0.0000
     37 H14         21.9885 -33.3978  39.6859 H              1 RES1               0.0000
     38 H15         23.8174 -34.7779  42.5959 H              1 RES1               0.0000
     39 H16         19.5970 -34.1311  42.0180 H              1 RES1               0.0000
     40 H17         23.3532 -37.0821  43.3828 H              1 RES1               0.0000
     41 H18         19.1425 -36.4370  42.8075 H              1 RES1               0.0000
     42 H19         21.0167 -37.9124  43.4928 H              1 RES1               0.0000
@<TRIPOS>BOND
    1    1    2 1     
    2    1    3 1     
    3    2    4 ar    
    4    2    5 ar    
    5    4    6 1     
    6    4    7 ar    
    7    5    8 ar    
    8    6    9 1     
    9    7   10 ar    
   10    8   11 ar    
   11   10   12 ar    
   12   11   13 ar    
   13   12   14 ar    
   14   12   15 1     
   15   15   16 1     
   16   16   17 1     
   17   16   18 1     
   18   17   19 ar    
   19   17   20 ar    
   20   19   21 ar    
   21   20   22 ar    
   22   21   23 ar    
   23    8   10 ar    
   24   13   14 ar    
   25   22   23 ar    
   26    3   24 1     
   27    3   25 1     
   28    3   26 1     
   29    5   27 1     
   30    7   28 1     
   31    9   29 1     
   32    9   30 1     
   33    9   31 1     
   34   13   32 1     
   35   15   33 1     
   36   16   34 1     
   37   18   35 1     
   38   18   36 1     
   39   18   37 1     
   40   19   38 1     
   41   20   39 1     
   42   21   40 1     
   43   22   41 1     
   44   23   42 1     
@<TRIPOS>SUBSTRUCTURE
      1 RES1           1
@<TRIPOS>SET
DONOR_HYDROGENS      STATIC     ATOMS    <user>   **** ""
1 33
ATOM$RED        STATIC     ATOMS    COLORGROUP SYSTEM
1 33
@<TRIPOS>COMMENT
> <Gold.Version>
2022.3.0

> <Gold.Id.Protein>
unknown|5ovf_clean|pdb

> <Gold.Protein.ActiveResidues>
 ILE839  VAL852  ILE856  LEU859  VAL871  LEU872  GLU873  VAL874  VAL875  SER876 
 ALA877  MET878  ASN879  SER880  SER881  PRO882  VAL883  TYR884  ARG885  LEU886 
 ASP887  HIS888  THR889  PHE890  GLU891  GLN892  ILE893  PRO894  SER895  ARG896 
 GLN897  LYS898  LYS899  ILE900  LEU901  GLU902  GLU903  ALA904  HIS905  GLU906 
 LEU907  SER908  GLU909  LYS914  GLU836  ILE839  VAL852  ILE855  ILE856  LEU859 
 GLN863  VAL871  LEU872  VAL874  VAL875  SER876  ALA877  MET878  ASN879  SER880 
 SER881  PRO882  VAL883  TYR884  ARG885  LEU886  ASP887  HIS888  THR889  PHE890 
 GLU891  GLN892  ILE893  PRO894  SER895  ARG896  GLN897  LYS898  LYS899  ILE900 
 LEU901  GLU902  GLU903  ALA904  HIS905  GLU906  LEU907  SER908  GLU909  ASP910 
 LYS914 

> <Gold.Score>
     Fitness  S(hb_ext) S(vdw_ext)  S(hb_int)    S(int)     S(con)      intcor
     64.77       1.55      49.22       0.00      -4.46      -0.00      -7.37

> <Gold.Goldscore.Fitness>
64.7736

> <Gold.Goldscore.Internal.Vdw>
-9.6956

> <Gold.Goldscore.Internal.Torsion>
-2.1409

> <Gold.Goldscore.External.Vdw>
49.2230

> <Gold.Goldscore.Internal.HBond>
0.0000

> <Gold.Goldscore.External.HBond>
1.5542

> <Gold.Goldscore.Internal.Correction>
-7.3743

> <Gold.Goldscore.Constraint.Score>
-0.0000

> <Gold.Goldscore.Reference.RMSD>
5.2699

> <Gold.Goldscore.Hbonds>
donor molecule, donor type, donor heavy atom, donor atom, acceptor molecule, acceptor atom, score
      L1  H    15    33       P1  2553  0.78

> <Gold.Goldscore.Internal.Vdw.Weighted>
-9.6956

> <Gold.Goldscore.Internal.Torsion.Weighted>
-2.1409

> <Gold.Goldscore.External.Vdw.Weighted>
67.6817

> <Gold.Goldscore.Internal.HBond.Weighted>
0.0000

> <Gold.Goldscore.External.HBond.Weighted>
1.5542

> <Gold.Goldscore.Internal.Correction.Weighted>
-7.3743

> <Gold.Rescore>
     Score         DG    S(hbond)    S(metal)    S(lipo)     H(rot)  DE(clash)    DE(int)    DE(con)     intcor
     29.86     -30.27       0.98        0.00     218.10       1.56       0.00       0.42       0.00       ----

> <Gold.Chemscore.Fitness>
29.8569

> <Gold.Chemscore.DG>
-30.2749

> <Gold.Chemscore.ZeroCoef>
-5.4800

> <Gold.Chemscore.Hbond>
0.9764

> <Gold.Chemscore.Metal>
0.0000

> <Gold.Chemscore.Lipo>
218.0956

> <Gold.Chemscore.Internal_Hbond>
0.0000

> <Gold.Chemscore.DEClash>
0.0008

> <Gold.Chemscore.DEInternal>
0.4172

> <Gold.Chemscore.Rot>
1.5560

> <Gold.Chemscore.Internal.Correction>
   9.000000E+99

> <Gold.Chemscore.Constraint>
0.0000

> <Gold.Chemscore.Reference.RMSD>
0.0000

> <Gold.Chemscore.Hbonds>
donor molecule, donor type, donor heavy atom, donor atom, acceptor molecule, acceptor atom, score
      L1  H    15    33       P1  2553  0.96

> <Gold.Chemscore.Hbond.Weighted>
-3.2612

> <Gold.Chemscore.Metal.Weighted>
-0.0000

> <Gold.Chemscore.Lipo.Weighted>
-25.5172

> <Gold.Chemscore.Internal_Hbond.Weighted>
0.0000

> <Gold.Chemscore.DEClash.Weighted>
0.0008

> <Gold.Chemscore.DEInternal.Weighted>
0.4172

> <Gold.Chemscore.Rot.Weighted>
3.9834

> <Gold.Chemscore.Internal.Correction.Weighted>
   9.000000E+99

> <Gold.Reference.RMSD>
5.2699

#       Name:                example_2
#       Creating user name   hitesit
#       Creation time:       Mon Nov  6 23:30:35 2023


#       File generated by GOLD software.
#

@<TRIPOS>MOLECULE
example_2|example_2_prep|mol2|1|dock8
    42    44     1
SMALL
NO_CHARGES


@<TRIPOS>ATOM
      1 O1          20.2842 -29.2863  48.5513 O.3            1 RES1               0.0000
      2 C2          20.7826 -29.8645  47.4102 C.ar           1 RES1               0.0000
      3 C3          21.2071 -28.9405  49.5745 C.3            1 RES1               0.0000
      4 C4          19.8385 -30.2145  46.4320 C.ar           1 RES1               0.0000
      5 C5          22.1394 -30.1237  47.1813 C.ar           1 RES1               0.0000
      6 O6          18.5263 -29.9485  46.7278 O.3            1 RES1               0.0000
      7 C7          20.2798 -30.8028  45.2467 C.ar           1 RES1               0.0000
      8 C8          22.5894 -30.7095  46.0047 C.ar           1 RES1               0.0000
      9 C9          17.5561 -30.2160  45.7251 C.3            1 RES1               0.0000
     10 C10         21.6574 -31.0305  45.0127 C.ar           1 RES1               0.0000
     11 N11         23.8971 -30.9537  45.8701 N.ar           1 RES1               0.0000
     12 C12         22.1914 -31.6047  43.8489 C.ar           1 RES1               0.0000
     13 C13         24.2837 -31.5504  44.7368 C.ar           1 RES1               0.0000
     14 N14         23.4943 -31.8949  43.7147 N.ar           1 RES1               0.0000
     15 N15         21.4057 -31.9215  42.7370 N.pl3          1 RES1               0.0000
     16 C16         22.0107 -32.8587  41.7757 C.3            1 RES1               0.0000
     17 C17         21.7336 -34.2797  42.2539 C.ar           1 RES1               0.0000
     18 C18         21.4891 -32.6774  40.3509 C.3            1 RES1               0.0000
     19 C19         20.4243 -34.7866  42.3156 C.ar           1 RES1               0.0000
     20 C20         22.7946 -35.1104  42.6470 C.ar           1 RES1               0.0000
     21 C21         20.1845 -36.0900  42.7536 C.ar           1 RES1               0.0000
     22 C22         22.5523 -36.4141  43.0844 C.ar           1 RES1               0.0000
     23 C23         21.2486 -36.9033  43.1365 C.ar           1 RES1               0.0000
     24 H1          20.6712 -28.4950  50.4114 H              1 RES1               0.0000
     25 H2          21.9303 -28.2257  49.1847 H              1 RES1               0.0000
     26 H3          21.7272 -29.8358  49.9119 H              1 RES1               0.0000
     27 H4          22.8643 -29.8578  47.9492 H              1 RES1               0.0000
     28 H5          19.5529 -31.0916  44.4890 H              1 RES1               0.0000
     29 H6          16.5665 -29.9580  46.0994 H              1 RES1               0.0000
     30 H7          17.5824 -31.2739  45.4676 H              1 RES1               0.0000
     31 H8          17.7757 -29.6214  44.8397 H              1 RES1               0.0000
     32 H9          25.3441 -31.7772  44.6373 H              1 RES1               0.0000
     33 H10         20.4786 -31.5310  42.6012 H              1 RES1               0.0000
     34 H11         23.0881 -32.7003  41.7713 H              1 RES1               0.0000
     35 H12         21.6908 -31.6606  40.0172 H              1 RES1               0.0000
     36 H13         20.4157 -32.8596  40.3314 H              1 RES1               0.0000
     37 H14         21.9891 -33.3828  39.6888 H              1 RES1               0.0000
     38 H15         19.5878 -34.1558  42.0186 H              1 RES1               0.0000
     39 H16         23.8161 -34.7347  42.6105 H              1 RES1               0.0000
     40 H17         19.1653 -36.4712  42.7959 H              1 RES1               0.0000
     41 H18         23.3836 -37.0498  43.3855 H              1 RES1               0.0000
     42 H19         21.0616 -37.9210  43.4763 H              1 RES1               0.0000
@<TRIPOS>BOND
    1    1    2 1     
    2    1    3 1     
    3    2    4 ar    
    4    2    5 ar    
    5    4    6 1     
    6    4    7 ar    
    7    5    8 ar    
    8    6    9 1     
    9    7   10 ar    
   10    8   11 ar    
   11   10   12 ar    
   12   11   13 ar    
   13   12   14 ar    
   14   12   15 1     
   15   15   16 1     
   16   16   17 1     
   17   16   18 1     
   18   17   19 ar    
   19   17   20 ar    
   20   19   21 ar    
   21   20   22 ar    
   22   21   23 ar    
   23    8   10 ar    
   24   13   14 ar    
   25   22   23 ar    
   26    3   24 1     
   27    3   25 1     
   28    3   26 1     
   29    5   27 1     
   30    7   28 1     
   31    9   29 1     
   32    9   30 1     
   33    9   31 1     
   34   13   32 1     
   35   15   33 1     
   36   16   34 1     
   37   18   35 1     
   38   18   36 1     
   39   18   37 1     
   40   19   38 1     
   41   20   39 1     
   42   21   40 1     
   43   22   41 1     
   44   23   42 1     
@<TRIPOS>SUBSTRUCTURE
      1 RES1           1
@<TRIPOS>SET
DONOR_HYDROGENS      STATIC     ATOMS    <user>   **** ""
1 33
ATOM$RED        STATIC     ATOMS    COLORGROUP SYSTEM
1 33
@<TRIPOS>COMMENT
> <Gold.Version>
2022.3.0

> <Gold.Id.Protein>
unknown|5ovf_clean|pdb

> <Gold.Protein.ActiveResidues>
 ILE839  VAL852  ILE856  LEU859  VAL871  LEU872  GLU873  VAL874  VAL875  SER876 
 ALA877  MET878  ASN879  SER880  SER881  PRO882  VAL883  TYR884  ARG885  LEU886 
 ASP887  HIS888  THR889  PHE890  GLU891  GLN892  ILE893  PRO894  SER895  ARG896 
 GLN897  LYS898  LYS899  ILE900  LEU901  GLU902  GLU903  ALA904  HIS905  GLU906 
 LEU907  SER908  GLU909  LYS914  GLU836  ILE839  VAL852  ILE855  ILE856  LEU859 
 GLN863  VAL871  LEU872  VAL874  VAL875  SER876  ALA877  MET878  ASN879  SER880 
 SER881  PRO882  VAL883  TYR884  ARG885  LEU886  ASP887  HIS888  THR889  PHE890 
 GLU891  GLN892  ILE893  PRO894  SER895  ARG896  GLN897  LYS898  LYS899  ILE900 
 LEU901  GLU902  GLU903  ALA904  HIS905  GLU906  LEU907  SER908  GLU909  ASP910 
 LYS914 

> <Gold.Score>
     Fitness  S(hb_ext) S(vdw_ext)  S(hb_int)    S(int)     S(con)      intcor
     64.35       1.55      49.23       0.00      -4.91      -0.00      -6.85

> <Gold.Goldscore.Fitness>
64.3466

> <Gold.Goldscore.Internal.Vdw>
-9.6146

> <Gold.Goldscore.Internal.Torsion>
-2.1375

> <Gold.Goldscore.External.Vdw>
49.2346

> <Gold.Goldscore.Internal.HBond>
0.0000

> <Gold.Goldscore.External.HBond>
1.5543

> <Gold.Goldscore.Internal.Correction>
-6.8469

> <Gold.Goldscore.Constraint.Score>
-0.0000

> <Gold.Goldscore.Reference.RMSD>
5.2729

> <Gold.Goldscore.Hbonds>
donor molecule, donor type, donor heavy atom, donor atom, acceptor molecule, acceptor atom, score
      L1  H    15    33       P1  2553  0.78

> <Gold.Goldscore.Internal.Vdw.Weighted>
-9.6146

> <Gold.Goldscore.Internal.Torsion.Weighted>
-2.1375

> <Gold.Goldscore.External.Vdw.Weighted>
67.6976

> <Gold.Goldscore.Internal.HBond.Weighted>
0.0000

> <Gold.Goldscore.External.HBond.Weighted>
1.5543

> <Gold.Goldscore.Internal.Correction.Weighted>
-6.8469

> <Gold.Rescore>
     Score         DG    S(hbond)    S(metal)    S(lipo)     H(rot)  DE(clash)    DE(int)    DE(con)     intcor
     29.88     -30.35       0.97        0.00     218.93       1.56       0.05       0.43       0.00       ----

> <Gold.Chemscore.Fitness>
29.8763

> <Gold.Chemscore.DG>
-30.3541

> <Gold.Chemscore.ZeroCoef>
-5.4800

> <Gold.Chemscore.Hbond>
0.9710

> <Gold.Chemscore.Metal>
0.0000

> <Gold.Chemscore.Lipo>
218.9271

> <Gold.Chemscore.Internal_Hbond>
0.0000

> <Gold.Chemscore.DEClash>
0.0467

> <Gold.Chemscore.DEInternal>
0.4312

> <Gold.Chemscore.Rot>
1.5560

> <Gold.Chemscore.Internal.Correction>
   9.000000E+99

> <Gold.Chemscore.Constraint>
0.0000

> <Gold.Chemscore.Reference.RMSD>
0.0000

> <Gold.Chemscore.Hbonds>
donor molecule, donor type, donor heavy atom, donor atom, acceptor molecule, acceptor atom, score
      L1  H    15    33       P1  2553  0.96

> <Gold.Chemscore.Hbond.Weighted>
-3.2431

> <Gold.Chemscore.Metal.Weighted>
-0.0000

> <Gold.Chemscore.Lipo.Weighted>
-25.6145

> <Gold.Chemscore.Internal_Hbond.Weighted>
0.0000

> <Gold.Chemscore.DEClash.Weighted>
0.0467

> <Gold.Chemscore.DEInternal.Weighted>
0.4312

> <Gold.Chemscore.Rot.Weighted>
3.9834

> <Gold.Chemscore.Internal.Correction.Weighted>
   9.000000E+99

> <Gold.Reference.RMSD>
5.2729

#       Name:                example_2
#       Creating user name   hitesit
#       Creation time:       Mon Nov  6 23:30:32 2023


#       File generated by GOLD software.
#

@<TRIPOS>MOLECULE
example_2|example_2_prep|mol2|1|dock7
    42    44     1
SMALL
NO_CHARGES


@<TRIPOS>ATOM
      1 O1          20.2302 -29.3258  48.5258 O.3            1 RES1               0.0000
      2 C2          20.7383 -29.8902  47.3820 C.ar           1 RES1               0.0000
      3 C3          21.1425 -29.0062  49.5669 C.3            1 RES1               0.0000
      4 C4          19.8013 -30.2401  46.3970 C.ar           1 RES1               0.0000
      5 C5          22.0982 -30.1358  47.1567 C.ar           1 RES1               0.0000
      6 O6          18.4857 -29.9878  46.6895 O.3            1 RES1               0.0000
      7 C7          20.2526 -30.8147  45.2088 C.ar           1 RES1               0.0000
      8 C8          22.5581 -30.7078  45.9772 C.ar           1 RES1               0.0000
      9 C9          17.5256 -30.2231  45.6691 C.3            1 RES1               0.0000
     10 C10         21.6330 -31.0286  44.9787 C.ar           1 RES1               0.0000
     11 N11         23.8684 -30.9397  45.8462 N.ar           1 RES1               0.0000
     12 C12         22.1767 -31.5884  43.8124 C.ar           1 RES1               0.0000
     13 C13         24.2648 -31.5236  44.7095 C.ar           1 RES1               0.0000
     14 N14         23.4826 -31.8664  43.6813 N.ar           1 RES1               0.0000
     15 N15         21.3984 -31.9027  42.6947 N.pl3          1 RES1               0.0000
     16 C16         21.9942 -32.8667  41.7542 C.3            1 RES1               0.0000
     17 C17         21.6822 -34.2742  42.2503 C.ar           1 RES1               0.0000
     18 C18         21.4921 -32.6960  40.3211 C.3            1 RES1               0.0000
     19 C19         20.3606 -34.7467  42.3215 C.ar           1 RES1               0.0000
     20 C20         22.7228 -35.1270  42.6507 C.ar           1 RES1               0.0000
     21 C21         20.0889 -36.0381  42.7758 C.ar           1 RES1               0.0000
     22 C22         22.4485 -36.4188  43.1044 C.ar           1 RES1               0.0000
     23 C23         21.1328 -36.8738  43.1657 C.ar           1 RES1               0.0000
     24 H1          20.5997 -28.5691  50.4037 H              1 RES1               0.0000
     25 H2          21.8779 -28.2924  49.1987 H              1 RES1               0.0000
     26 H3          21.6492 -29.9121  49.8963 H              1 RES1               0.0000
     27 H4          22.8176 -29.8701  47.9299 H              1 RES1               0.0000
     28 H5          19.5313 -31.1034  44.4457 H              1 RES1               0.0000
     29 H6          16.5318 -29.9807  46.0427 H              1 RES1               0.0000
     30 H7          17.5573 -31.2714  45.3756 H              1 RES1               0.0000
     31 H8          17.7516 -29.5977  44.8068 H              1 RES1               0.0000
     32 H9          25.3275 -31.7404  44.6127 H              1 RES1               0.0000
     33 H10         20.4824 -31.4932  42.5413 H              1 RES1               0.0000
     34 H11         23.0747 -32.7307  41.7595 H              1 RES1               0.0000
     35 H12         21.7187 -31.6887  39.9746 H              1 RES1               0.0000
     36 H13         20.4154 -32.8562  40.2922 H              1 RES1               0.0000
     37 H14         21.9845 -33.4215  39.6752 H              1 RES1               0.0000
     38 H15         19.5397 -34.0982  42.0190 H              1 RES1               0.0000
     39 H16         23.7535 -34.7781  42.6070 H              1 RES1               0.0000
     40 H17         19.0603 -36.3926  42.8254 H              1 RES1               0.0000
     41 H18         23.2642 -37.0718  43.4110 H              1 RES1               0.0000
     42 H19         20.9209 -37.8821  43.5183 H              1 RES1               0.0000
@<TRIPOS>BOND
    1    1    2 1     
    2    1    3 1     
    3    2    4 ar    
    4    2    5 ar    
    5    4    6 1     
    6    4    7 ar    
    7    5    8 ar    
    8    6    9 1     
    9    7   10 ar    
   10    8   11 ar    
   11   10   12 ar    
   12   11   13 ar    
   13   12   14 ar    
   14   12   15 1     
   15   15   16 1     
   16   16   17 1     
   17   16   18 1     
   18   17   19 ar    
   19   17   20 ar    
   20   19   21 ar    
   21   20   22 ar    
   22   21   23 ar    
   23    8   10 ar    
   24   13   14 ar    
   25   22   23 ar    
   26    3   24 1     
   27    3   25 1     
   28    3   26 1     
   29    5   27 1     
   30    7   28 1     
   31    9   29 1     
   32    9   30 1     
   33    9   31 1     
   34   13   32 1     
   35   15   33 1     
   36   16   34 1     
   37   18   35 1     
   38   18   36 1     
   39   18   37 1     
   40   19   38 1     
   41   20   39 1     
   42   21   40 1     
   43   22   41 1     
   44   23   42 1     
@<TRIPOS>SUBSTRUCTURE
      1 RES1           1
@<TRIPOS>SET
DONOR_HYDROGENS      STATIC     ATOMS    <user>   **** ""
1 33
ATOM$RED        STATIC     ATOMS    COLORGROUP SYSTEM
1 33
@<TRIPOS>COMMENT
> <Gold.Version>
2022.3.0

> <Gold.Id.Protein>
unknown|5ovf_clean|pdb

> <Gold.Protein.ActiveResidues>
 ILE839  VAL852  ILE856  LEU859  VAL871  LEU872  GLU873  VAL874  VAL875  SER876 
 ALA877  MET878  ASN879  SER880  SER881  PRO882  VAL883  TYR884  ARG885  LEU886 
 ASP887  HIS888  THR889  PHE890  GLU891  GLN892  ILE893  PRO894  SER895  ARG896 
 GLN897  LYS898  LYS899  ILE900  LEU901  GLU902  GLU903  ALA904  HIS905  GLU906 
 LEU907  SER908  GLU909  LYS914  GLU836  ILE839  VAL852  ILE855  ILE856  LEU859 
 GLN863  VAL871  LEU872  VAL874  VAL875  SER876  ALA877  MET878  ASN879  SER880 
 SER881  PRO882  VAL883  TYR884  ARG885  LEU886  ASP887  HIS888  THR889  PHE890 
 GLU891  GLN892  ILE893  PRO894  SER895  ARG896  GLN897  LYS898  LYS899  ILE900 
 LEU901  GLU902  GLU903  ALA904  HIS905  GLU906  LEU907  SER908  GLU909  ASP910 
 LYS914 

> <Gold.Score>
     Fitness  S(hb_ext) S(vdw_ext)  S(hb_int)    S(int)     S(con)      intcor
     64.30       1.29      49.28       0.00      -4.74      -0.00      -6.85

> <Gold.Goldscore.Fitness>
64.3033

> <Gold.Goldscore.Internal.Vdw>
-9.2835

> <Gold.Goldscore.Internal.Torsion>
-2.3019

> <Gold.Goldscore.External.Vdw>
49.2775

> <Gold.Goldscore.Internal.HBond>
0.0000

> <Gold.Goldscore.External.HBond>
1.2852

> <Gold.Goldscore.Internal.Correction>
-6.8469

> <Gold.Goldscore.Constraint.Score>
-0.0000

> <Gold.Goldscore.Reference.RMSD>
5.2588

> <Gold.Goldscore.Hbonds>
donor molecule, donor type, donor heavy atom, donor atom, acceptor molecule, acceptor atom, score
      L1  H    15    33       P1  2553  0.64

> <Gold.Goldscore.Internal.Vdw.Weighted>
-9.2835

> <Gold.Goldscore.Internal.Torsion.Weighted>
-2.3019

> <Gold.Goldscore.External.Vdw.Weighted>
67.7565

> <Gold.Goldscore.Internal.HBond.Weighted>
0.0000

> <Gold.Goldscore.External.HBond.Weighted>
1.2852

> <Gold.Goldscore.Internal.Correction.Weighted>
-6.8469

> <Gold.Rescore>
     Score         DG    S(hbond)    S(metal)    S(lipo)     H(rot)  DE(clash)    DE(int)    DE(con)     intcor
     29.52     -30.34       0.96        0.00     219.17       1.56       0.34       0.49       0.00       ----

> <Gold.Chemscore.Fitness>
29.5164

> <Gold.Chemscore.DG>
-30.3443

> <Gold.Chemscore.ZeroCoef>
-5.4800

> <Gold.Chemscore.Hbond>
0.9597

> <Gold.Chemscore.Metal>
0.0000

> <Gold.Chemscore.Lipo>
219.1659

> <Gold.Chemscore.Internal_Hbond>
0.0000

> <Gold.Chemscore.DEClash>
0.3364

> <Gold.Chemscore.DEInternal>
0.4915

> <Gold.Chemscore.Rot>
1.5560

> <Gold.Chemscore.Internal.Correction>
   9.000000E+99

> <Gold.Chemscore.Constraint>
0.0000

> <Gold.Chemscore.Reference.RMSD>
0.0000

> <Gold.Chemscore.Hbonds>
donor molecule, donor type, donor heavy atom, donor atom, acceptor molecule, acceptor atom, score
      L1  H    15    33       P1  2553  0.92

> <Gold.Chemscore.Hbond.Weighted>
-3.2054

> <Gold.Chemscore.Metal.Weighted>
-0.0000

> <Gold.Chemscore.Lipo.Weighted>
-25.6424

> <Gold.Chemscore.Internal_Hbond.Weighted>
0.0000

> <Gold.Chemscore.DEClash.Weighted>
0.3364

> <Gold.Chemscore.DEInternal.Weighted>
0.4915

> <Gold.Chemscore.Rot.Weighted>
3.9834

> <Gold.Chemscore.Internal.Correction.Weighted>
   9.000000E+99

> <Gold.Reference.RMSD>
5.2588

#       Name:                example_2
#       Creating user name   hitesit
#       Creation time:       Mon Nov  6 23:30:43 2023


#       File generated by GOLD software.
#

@<TRIPOS>MOLECULE
example_2|example_2_prep|mol2|1|dock10
    42    44     1
SMALL
NO_CHARGES


@<TRIPOS>ATOM
      1 O1          20.2303 -29.2615  48.5333 O.3            1 RES1               0.0000
      2 C2          20.7436 -29.8405  47.3991 C.ar           1 RES1               0.0000
      3 C3          21.1428 -28.8891  49.5564 C.3            1 RES1               0.0000
      4 C4          19.8101 -30.2142  46.4196 C.ar           1 RES1               0.0000
      5 C5          22.1056 -30.0786  47.1784 C.ar           1 RES1               0.0000
      6 O6          18.4922 -29.9679  46.7074 O.3            1 RES1               0.0000
      7 C7          20.2667 -30.8045  45.2412 C.ar           1 RES1               0.0000
      8 C8          22.5708 -30.6662  46.0087 C.ar           1 RES1               0.0000
      9 C9          17.5385 -30.1936  45.6789 C.3            1 RES1               0.0000
     10 C10         21.6489 -31.0109  45.0152 C.ar           1 RES1               0.0000
     11 N11         23.8831 -30.8895  45.8820 N.ar           1 RES1               0.0000
     12 C12         22.1978 -31.5853  43.8585 C.ar           1 RES1               0.0000
     13 C13         24.2848 -31.4887  44.7552 C.ar           1 RES1               0.0000
     14 N14         23.5060 -31.8547  43.7325 N.ar           1 RES1               0.0000
     15 N15         21.4227 -31.9242  42.7457 N.pl3          1 RES1               0.0000
     16 C16         22.0502 -32.8542  41.7917 C.3            1 RES1               0.0000
     17 C17         21.8116 -34.2774  42.2837 C.ar           1 RES1               0.0000
     18 C18         21.5210 -32.7000  40.3665 C.3            1 RES1               0.0000
     19 C19         20.5156 -34.8153  42.3611 C.ar           1 RES1               0.0000
     20 C20         22.8958 -35.0791  42.6740 C.ar           1 RES1               0.0000
     21 C21         20.3112 -36.1204  42.8115 C.ar           1 RES1               0.0000
     22 C22         22.6888 -36.3846  43.1240 C.ar           1 RES1               0.0000
     23 C23         21.3978 -36.9046  43.1915 C.ar           1 RES1               0.0000
     24 H1          20.5957 -28.4463  50.3873 H              1 RES1               0.0000
     25 H2          21.8538 -28.1643  49.1626 H              1 RES1               0.0000
     26 H3          21.6787 -29.7713  49.9037 H              1 RES1               0.0000
     27 H4          22.8224 -29.7944  47.9474 H              1 RES1               0.0000
     28 H5          19.5482 -31.1116  44.4826 H              1 RES1               0.0000
     29 H6          16.5421 -29.9574  46.0495 H              1 RES1               0.0000
     30 H7          17.5741 -31.2384  45.3738 H              1 RES1               0.0000
     31 H8          17.7682 -29.5580  44.8250 H              1 RES1               0.0000
     32 H9          25.3493 -31.6984  44.6624 H              1 RES1               0.0000
     33 H10         20.4884 -31.5536  42.6045 H              1 RES1               0.0000
     34 H11         23.1231 -32.6675  41.7832 H              1 RES1               0.0000
     35 H12         21.6951 -31.6813  40.0229 H              1 RES1               0.0000
     36 H13         20.4526 -32.9106  40.3512 H              1 RES1               0.0000
     37 H14         22.0380 -33.3981  39.7098 H              1 RES1               0.0000
     38 H15         19.6615 -34.2072  42.0664 H              1 RES1               0.0000
     39 H16         23.9076 -34.6792  42.6255 H              1 RES1               0.0000
     40 H17         19.3018 -36.5256  42.8660 H              1 RES1               0.0000
     41 H18         23.5379 -36.9976  43.4228 H              1 RES1               0.0000
     42 H19         21.2385 -37.9237  43.5411 H              1 RES1               0.0000
@<TRIPOS>BOND
    1    1    2 1     
    2    1    3 1     
    3    2    4 ar    
    4    2    5 ar    
    5    4    6 1     
    6    4    7 ar    
    7    5    8 ar    
    8    6    9 1     
    9    7   10 ar    
   10    8   11 ar    
   11   10   12 ar    
   12   11   13 ar    
   13   12   14 ar    
   14   12   15 1     
   15   15   16 1     
   16   16   17 1     
   17   16   18 1     
   18   17   19 ar    
   19   17   20 ar    
   20   19   21 ar    
   21   20   22 ar    
   22   21   23 ar    
   23    8   10 ar    
   24   13   14 ar    
   25   22   23 ar    
   26    3   24 1     
   27    3   25 1     
   28    3   26 1     
   29    5   27 1     
   30    7   28 1     
   31    9   29 1     
   32    9   30 1     
   33    9   31 1     
   34   13   32 1     
   35   15   33 1     
   36   16   34 1     
   37   18   35 1     
   38   18   36 1     
   39   18   37 1     
   40   19   38 1     
   41   20   39 1     
   42   21   40 1     
   43   22   41 1     
   44   23   42 1     
@<TRIPOS>SUBSTRUCTURE
      1 RES1           1
@<TRIPOS>SET
DONOR_HYDROGENS      STATIC     ATOMS    <user>   **** ""
1 33
ATOM$RED        STATIC     ATOMS    COLORGROUP SYSTEM
1 33
@<TRIPOS>COMMENT
> <Gold.Version>
2022.3.0

> <Gold.Id.Protein>
unknown|5ovf_clean|pdb

> <Gold.Protein.ActiveResidues>
 ILE839  VAL852  ILE856  LEU859  VAL871  LEU872  GLU873  VAL874  VAL875  SER876 
 ALA877  MET878  ASN879  SER880  SER881  PRO882  VAL883  TYR884  ARG885  LEU886 
 ASP887  HIS888  THR889  PHE890  GLU891  GLN892  ILE893  PRO894  SER895  ARG896 
 GLN897  LYS898  LYS899  ILE900  LEU901  GLU902  GLU903  ALA904  HIS905  GLU906 
 LEU907  SER908  GLU909  LYS914  GLU836  ILE839  VAL852  ILE855  ILE856  LEU859 
 GLN863  VAL871  LEU872  VAL874  VAL875  SER876  ALA877  MET878  ASN879  SER880 
 SER881  PRO882  VAL883  TYR884  ARG885  LEU886  ASP887  HIS888  THR889  PHE890 
 GLU891  GLN892  ILE893  PRO894  SER895  ARG896  GLN897  LYS898  LYS899  ILE900 
 LEU901  GLU902  GLU903  ALA904  HIS905  GLU906  LEU907  SER908  GLU909  ASP910 
 LYS914 

> <Gold.Score>
     Fitness  S(hb_ext) S(vdw_ext)  S(hb_int)    S(int)     S(con)      intcor
     64.30       1.66      49.14       0.00      -4.93      -0.00      -6.85

> <Gold.Goldscore.Fitness>
64.3005

> <Gold.Goldscore.Internal.Vdw>
-9.6282

> <Gold.Goldscore.Internal.Torsion>
-2.1462

> <Gold.Goldscore.External.Vdw>
49.1422

> <Gold.Goldscore.Internal.HBond>
0.0000

> <Gold.Goldscore.External.HBond>
1.6576

> <Gold.Goldscore.Internal.Correction>
-6.8469

> <Gold.Goldscore.Constraint.Score>
-0.0000

> <Gold.Goldscore.Reference.RMSD>
5.2720

> <Gold.Goldscore.Hbonds>
donor molecule, donor type, donor heavy atom, donor atom, acceptor molecule, acceptor atom, score
      L1  H    15    33       P1  2553  0.83

> <Gold.Goldscore.Internal.Vdw.Weighted>
-9.6282

> <Gold.Goldscore.Internal.Torsion.Weighted>
-2.1462

> <Gold.Goldscore.External.Vdw.Weighted>
67.5705

> <Gold.Goldscore.Internal.HBond.Weighted>
0.0000

> <Gold.Goldscore.External.HBond.Weighted>
1.6576

> <Gold.Goldscore.Internal.Correction.Weighted>
-6.8469

> <Gold.Rescore>
     Score         DG    S(hbond)    S(metal)    S(lipo)     H(rot)  DE(clash)    DE(int)    DE(con)     intcor
     29.77     -30.31       0.98        0.00     218.45       1.56       0.10       0.45       0.00       ----

> <Gold.Chemscore.Fitness>
29.7675

> <Gold.Chemscore.DG>
-30.3131

> <Gold.Chemscore.ZeroCoef>
-5.4800

> <Gold.Chemscore.Hbond>
0.9755

> <Gold.Chemscore.Metal>
0.0000

> <Gold.Chemscore.Lipo>
218.4467

> <Gold.Chemscore.Internal_Hbond>
0.0000

> <Gold.Chemscore.DEClash>
0.0978

> <Gold.Chemscore.DEInternal>
0.4478

> <Gold.Chemscore.Rot>
1.5560

> <Gold.Chemscore.Internal.Correction>
   9.000000E+99

> <Gold.Chemscore.Constraint>
0.0000

> <Gold.Chemscore.Reference.RMSD>
0.0000

> <Gold.Chemscore.Hbonds>
donor molecule, donor type, donor heavy atom, donor atom, acceptor molecule, acceptor atom, score
      L1  H    15    33       P1  2553  0.97

> <Gold.Chemscore.Hbond.Weighted>
-3.2583

> <Gold.Chemscore.Metal.Weighted>
-0.0000

> <Gold.Chemscore.Lipo.Weighted>
-25.5583

> <Gold.Chemscore.Internal_Hbond.Weighted>
0.0000

> <Gold.Chemscore.DEClash.Weighted>
0.0978

> <Gold.Chemscore.DEInternal.Weighted>
0.4478

> <Gold.Chemscore.Rot.Weighted>
3.9834

> <Gold.Chemscore.Internal.Correction.Weighted>
   9.000000E+99

> <Gold.Reference.RMSD>
5.2720

#       Name:                example_2
#       Creating user name   hitesit
#       Creation time:       Mon Nov  6 23:30:39 2023


#       File generated by GOLD software.
#

@<TRIPOS>MOLECULE
example_2|example_2_prep|mol2|1|dock9
    42    44     1
SMALL
NO_CHARGES


@<TRIPOS>ATOM
      1 O1          20.2344 -29.2442  48.5227 O.3            1 RES1               0.0000
      2 C2          20.7430 -29.8267  47.3882 C.ar           1 RES1               0.0000
      3 C3          21.1515 -28.8664  49.5398 C.3            1 RES1               0.0000
      4 C4          19.8052 -30.2057  46.4148 C.ar           1 RES1               0.0000
      5 C5          22.1043 -30.0636  47.1617 C.ar           1 RES1               0.0000
      6 O6          18.4884 -29.9604  46.7082 O.3            1 RES1               0.0000
      7 C7          20.2568 -30.7998  45.2364 C.ar           1 RES1               0.0000
      8 C8          22.5646 -30.6550  45.9919 C.ar           1 RES1               0.0000
      9 C9          17.5311 -30.1805  45.6818 C.3            1 RES1               0.0000
     10 C10         21.6382 -31.0049  45.0043 C.ar           1 RES1               0.0000
     11 N11         23.8765 -30.8767  45.8595 N.ar           1 RES1               0.0000
     12 C12         22.1823 -31.5830  43.8471 C.ar           1 RES1               0.0000
     13 C13         24.2736 -31.4796  44.7331 C.ar           1 RES1               0.0000
     14 N14         23.4903 -31.8508  43.7157 N.ar           1 RES1               0.0000
     15 N15         21.4022 -31.9274  42.7395 N.pl3          1 RES1               0.0000
     16 C16         22.0253 -32.8622  41.7874 C.3            1 RES1               0.0000
     17 C17         21.7887 -34.2829  42.2875 C.ar           1 RES1               0.0000
     18 C18         21.4898 -32.7150  40.3638 C.3            1 RES1               0.0000
     19 C19         20.4931 -34.8206  42.3720 C.ar           1 RES1               0.0000
     20 C20         22.8744 -35.0823  42.6783 C.ar           1 RES1               0.0000
     21 C21         20.2905 -36.1234  42.8299 C.ar           1 RES1               0.0000
     22 C22         22.6692 -36.3856  43.1357 C.ar           1 RES1               0.0000
     23 C23         21.3785 -36.9055  43.2103 C.ar           1 RES1               0.0000
     24 H1          20.6077 -28.4213  50.3717 H              1 RES1               0.0000
     25 H2          21.8592 -28.1419  49.1396 H              1 RES1               0.0000
     26 H3          21.6905 -29.7463  49.8877 H              1 RES1               0.0000
     27 H4          22.8244 -29.7754  47.9260 H              1 RES1               0.0000
     28 H5          19.5351 -31.1110  44.4826 H              1 RES1               0.0000
     29 H6          16.5361 -29.9458  46.0569 H              1 RES1               0.0000
     30 H7          17.5653 -31.2238  45.3713 H              1 RES1               0.0000
     31 H8          17.7582 -29.5408  44.8303 H              1 RES1               0.0000
     32 H9          25.3379 -31.6881  44.6357 H              1 RES1               0.0000
     33 H10         20.4673 -31.5574  42.6007 H              1 RES1               0.0000
     34 H11         23.0982 -32.6757  41.7732 H              1 RES1               0.0000
     35 H12         21.6626 -31.6981  40.0143 H              1 RES1               0.0000
     36 H13         20.4214 -32.9255  40.3543 H              1 RES1               0.0000
     37 H14         22.0038 -33.4164  39.7083 H              1 RES1               0.0000
     38 H15         19.6379 -34.2142  42.0772 H              1 RES1               0.0000
     39 H16         23.8859 -34.6825  42.6243 H              1 RES1               0.0000
     40 H17         19.2814 -36.5286  42.8899 H              1 RES1               0.0000
     41 H18         23.5194 -36.9968  43.4347 H              1 RES1               0.0000
     42 H19         21.2206 -37.9227  43.5656 H              1 RES1               0.0000
@<TRIPOS>BOND
    1    1    2 1     
    2    1    3 1     
    3    2    4 ar    
    4    2    5 ar    
    5    4    6 1     
    6    4    7 ar    
    7    5    8 ar    
    8    6    9 1     
    9    7   10 ar    
   10    8   11 ar    
   11   10   12 ar    
   12   11   13 ar    
   13   12   14 ar    
   14   12   15 1     
   15   15   16 1     
   16   16   17 1     
   17   16   18 1     
   18   17   19 ar    
   19   17   20 ar    
   20   19   21 ar    
   21   20   22 ar    
   22   21   23 ar    
   23    8   10 ar    
   24   13   14 ar    
   25   22   23 ar    
   26    3   24 1     
   27    3   25 1     
   28    3   26 1     
   29    5   27 1     
   30    7   28 1     
   31    9   29 1     
   32    9   30 1     
   33    9   31 1     
   34   13   32 1     
   35   15   33 1     
   36   16   34 1     
   37   18   35 1     
   38   18   36 1     
   39   18   37 1     
   40   19   38 1     
   41   20   39 1     
   42   21   40 1     
   43   22   41 1     
   44   23   42 1     
@<TRIPOS>SUBSTRUCTURE
      1 RES1           1
@<TRIPOS>SET
DONOR_HYDROGENS      STATIC     ATOMS    <user>   **** ""
1 33
ATOM$RED        STATIC     ATOMS    COLORGROUP SYSTEM
1 33
@<TRIPOS>COMMENT
> <Gold.Version>
2022.3.0

> <Gold.Id.Protein>
unknown|5ovf_clean|pdb

> <Gold.Protein.ActiveResidues>
 ILE839  VAL852  ILE856  LEU859  VAL871  LEU872  GLU873  VAL874  VAL875  SER876 
 ALA877  MET878  ASN879  SER880  SER881  PRO882  VAL883  TYR884  ARG885  LEU886 
 ASP887  HIS888  THR889  PHE890  GLU891  GLN892  ILE893  PRO894  SER895  ARG896 
 GLN897  LYS898  LYS899  ILE900  LEU901  GLU902  GLU903  ALA904  HIS905  GLU906 
 LEU907  SER908  GLU909  LYS914  GLU836  ILE839  VAL852  ILE855  ILE856  LEU859 
 GLN863  VAL871  LEU872  VAL874  VAL875  SER876  ALA877  MET878  ASN879  SER880 
 SER881  PRO882  VAL883  TYR884  ARG885  LEU886  ASP887  HIS888  THR889  PHE890 
 GLU891  GLN892  ILE893  PRO894  SER895  ARG896  GLN897  LYS898  LYS899  ILE900 
 LEU901  GLU902  GLU903  ALA904  HIS905  GLU906  LEU907  SER908  GLU909  ASP910 
 LYS914 

> <Gold.Score>
     Fitness  S(hb_ext) S(vdw_ext)  S(hb_int)    S(int)     S(con)      intcor
     64.19       1.67      49.08       0.00      -4.96      -0.00      -6.85

> <Gold.Goldscore.Fitness>
64.1862

> <Gold.Goldscore.Internal.Vdw>
-9.6502

> <Gold.Goldscore.Internal.Torsion>
-2.1594

> <Gold.Goldscore.External.Vdw>
49.0776

> <Gold.Goldscore.Internal.HBond>
0.0000

> <Gold.Goldscore.External.HBond>
1.6671

> <Gold.Goldscore.Internal.Correction>
-6.8469

> <Gold.Goldscore.Constraint.Score>
-0.0000

> <Gold.Goldscore.Reference.RMSD>
5.2756

> <Gold.Goldscore.Hbonds>
donor molecule, donor type, donor heavy atom, donor atom, acceptor molecule, acceptor atom, score
      L1  H    15    33       P1  2553  0.83

> <Gold.Goldscore.Internal.Vdw.Weighted>
-9.6502

> <Gold.Goldscore.Internal.Torsion.Weighted>
-2.1594

> <Gold.Goldscore.External.Vdw.Weighted>
67.4817

> <Gold.Goldscore.Internal.HBond.Weighted>
0.0000

> <Gold.Goldscore.External.HBond.Weighted>
1.6671

> <Gold.Goldscore.Internal.Correction.Weighted>
-6.8469

> <Gold.Rescore>
     Score         DG    S(hbond)    S(metal)    S(lipo)     H(rot)  DE(clash)    DE(int)    DE(con)     intcor
     29.76     -30.28       0.98        0.00     218.15       1.56       0.10       0.42       0.00       ----

> <Gold.Chemscore.Fitness>
29.7566

> <Gold.Chemscore.DG>
-30.2784

> <Gold.Chemscore.ZeroCoef>
-5.4800

> <Gold.Chemscore.Hbond>
0.9757

> <Gold.Chemscore.Metal>
0.0000

> <Gold.Chemscore.Lipo>
218.1465

> <Gold.Chemscore.Internal_Hbond>
0.0000

> <Gold.Chemscore.DEClash>
0.1021

> <Gold.Chemscore.DEInternal>
0.4197

> <Gold.Chemscore.Rot>
1.5560

> <Gold.Chemscore.Internal.Correction>
   9.000000E+99

> <Gold.Chemscore.Constraint>
0.0000

> <Gold.Chemscore.Reference.RMSD>
0.0000

> <Gold.Chemscore.Hbonds>
donor molecule, donor type, donor heavy atom, donor atom, acceptor molecule, acceptor atom, score
      L1  H    15    33       P1  2553  0.97

> <Gold.Chemscore.Hbond.Weighted>
-3.2587

> <Gold.Chemscore.Metal.Weighted>
-0.0000

> <Gold.Chemscore.Lipo.Weighted>
-25.5231

> <Gold.Chemscore.Internal_Hbond.Weighted>
0.0000

> <Gold.Chemscore.DEClash.Weighted>
0.1021

> <Gold.Chemscore.DEInternal.Weighted>
0.4197

> <Gold.Chemscore.Rot.Weighted>
3.9834

> <Gold.Chemscore.Internal.Correction.Weighted>
   9.000000E+99

> <Gold.Reference.RMSD>
5.2756

