#       Name:                example_2
#       Creating user name   hitesit
#       Creation time:       Mon Nov  6 23:30:43 2023


#       File generated by GOLD software.
#

@<TRIPOS>MOLECULE
example_2|example_2_prep|mol2|1|dock10
    42    44     1
SMALL
NO_CHARGES


@<TRIPOS>ATOM
      1 O1          20.2303 -29.2615  48.5333 O.3            1 RES1               0.0000
      2 C2          20.7436 -29.8405  47.3991 C.ar           1 RES1               0.0000
      3 C3          21.1428 -28.8891  49.5564 C.3            1 RES1               0.0000
      4 C4          19.8101 -30.2142  46.4196 C.ar           1 RES1               0.0000
      5 C5          22.1056 -30.0786  47.1784 C.ar           1 RES1               0.0000
      6 O6          18.4922 -29.9679  46.7074 O.3            1 RES1               0.0000
      7 C7          20.2667 -30.8045  45.2412 C.ar           1 RES1               0.0000
      8 C8          22.5708 -30.6662  46.0087 C.ar           1 RES1               0.0000
      9 C9          17.5385 -30.1936  45.6789 C.3            1 RES1               0.0000
     10 C10         21.6489 -31.0109  45.0152 C.ar           1 RES1               0.0000
     11 N11         23.8831 -30.8895  45.8820 N.ar           1 RES1               0.0000
     12 C12         22.1978 -31.5853  43.8585 C.ar           1 RES1               0.0000
     13 C13         24.2848 -31.4887  44.7552 C.ar           1 RES1               0.0000
     14 N14         23.5060 -31.8547  43.7325 N.ar           1 RES1               0.0000
     15 N15         21.4227 -31.9242  42.7457 N.pl3          1 RES1               0.0000
     16 C16         22.0502 -32.8542  41.7917 C.3            1 RES1               0.0000
     17 C17         21.8116 -34.2774  42.2837 C.ar           1 RES1               0.0000
     18 C18         21.5210 -32.7000  40.3665 C.3            1 RES1               0.0000
     19 C19         20.5156 -34.8153  42.3611 C.ar           1 RES1               0.0000
     20 C20         22.8958 -35.0791  42.6740 C.ar           1 RES1               0.0000
     21 C21         20.3112 -36.1204  42.8115 C.ar           1 RES1               0.0000
     22 C22         22.6888 -36.3846  43.1240 C.ar           1 RES1               0.0000
     23 C23         21.3978 -36.9046  43.1915 C.ar           1 RES1               0.0000
     24 H1          20.5957 -28.4463  50.3873 H              1 RES1               0.0000
     25 H2          21.8538 -28.1643  49.1626 H              1 RES1               0.0000
     26 H3          21.6787 -29.7713  49.9037 H              1 RES1               0.0000
     27 H4          22.8224 -29.7944  47.9474 H              1 RES1               0.0000
     28 H5          19.5482 -31.1116  44.4826 H              1 RES1               0.0000
     29 H6          16.5421 -29.9574  46.0495 H              1 RES1               0.0000
     30 H7          17.5741 -31.2384  45.3738 H              1 RES1               0.0000
     31 H8          17.7682 -29.5580  44.8250 H              1 RES1               0.0000
     32 H9          25.3493 -31.6984  44.6624 H              1 RES1               0.0000
     33 H10         20.4884 -31.5536  42.6045 H              1 RES1               0.0000
     34 H11         23.1231 -32.6675  41.7832 H              1 RES1               0.0000
     35 H12         21.6951 -31.6813  40.0229 H              1 RES1               0.0000
     36 H13         20.4526 -32.9106  40.3512 H              1 RES1               0.0000
     37 H14         22.0380 -33.3981  39.7098 H              1 RES1               0.0000
     38 H15         19.6615 -34.2072  42.0664 H              1 RES1               0.0000
     39 H16         23.9076 -34.6792  42.6255 H              1 RES1               0.0000
     40 H17         19.3018 -36.5256  42.8660 H              1 RES1               0.0000
     41 H18         23.5379 -36.9976  43.4228 H              1 RES1               0.0000
     42 H19         21.2385 -37.9237  43.5411 H              1 RES1               0.0000
@<TRIPOS>BOND
    1    1    2 1     
    2    1    3 1     
    3    2    4 ar    
    4    2    5 ar    
    5    4    6 1     
    6    4    7 ar    
    7    5    8 ar    
    8    6    9 1     
    9    7   10 ar    
   10    8   11 ar    
   11   10   12 ar    
   12   11   13 ar    
   13   12   14 ar    
   14   12   15 1     
   15   15   16 1     
   16   16   17 1     
   17   16   18 1     
   18   17   19 ar    
   19   17   20 ar    
   20   19   21 ar    
   21   20   22 ar    
   22   21   23 ar    
   23    8   10 ar    
   24   13   14 ar    
   25   22   23 ar    
   26    3   24 1     
   27    3   25 1     
   28    3   26 1     
   29    5   27 1     
   30    7   28 1     
   31    9   29 1     
   32    9   30 1     
   33    9   31 1     
   34   13   32 1     
   35   15   33 1     
   36   16   34 1     
   37   18   35 1     
   38   18   36 1     
   39   18   37 1     
   40   19   38 1     
   41   20   39 1     
   42   21   40 1     
   43   22   41 1     
   44   23   42 1     
@<TRIPOS>SUBSTRUCTURE
      1 RES1           1
@<TRIPOS>SET
DONOR_HYDROGENS      STATIC     ATOMS    <user>   **** ""
1 33
ATOM$RED        STATIC     ATOMS    COLORGROUP SYSTEM
1 33
@<TRIPOS>COMMENT
> <Gold.Version>
2022.3.0

> <Gold.Id.Protein>
unknown|5ovf_clean|pdb

> <Gold.Protein.ActiveResidues>
 ILE839  VAL852  ILE856  LEU859  VAL871  LEU872  GLU873  VAL874  VAL875  SER876 
 ALA877  MET878  ASN879  SER880  SER881  PRO882  VAL883  TYR884  ARG885  LEU886 
 ASP887  HIS888  THR889  PHE890  GLU891  GLN892  ILE893  PRO894  SER895  ARG896 
 GLN897  LYS898  LYS899  ILE900  LEU901  GLU902  GLU903  ALA904  HIS905  GLU906 
 LEU907  SER908  GLU909  LYS914  GLU836  ILE839  VAL852  ILE855  ILE856  LEU859 
 GLN863  VAL871  LEU872  VAL874  VAL875  SER876  ALA877  MET878  ASN879  SER880 
 SER881  PRO882  VAL883  TYR884  ARG885  LEU886  ASP887  HIS888  THR889  PHE890 
 GLU891  GLN892  ILE893  PRO894  SER895  ARG896  GLN897  LYS898  LYS899  ILE900 
 LEU901  GLU902  GLU903  ALA904  HIS905  GLU906  LEU907  SER908  GLU909  ASP910 
 LYS914 

> <Gold.Score>
     Fitness  S(hb_ext) S(vdw_ext)  S(hb_int)    S(int)     S(con)      intcor
     64.30       1.66      49.14       0.00      -4.93      -0.00      -6.85

> <Gold.Goldscore.Fitness>
64.3005

> <Gold.Goldscore.Internal.Vdw>
-9.6282

> <Gold.Goldscore.Internal.Torsion>
-2.1462

> <Gold.Goldscore.External.Vdw>
49.1422

> <Gold.Goldscore.Internal.HBond>
0.0000

> <Gold.Goldscore.External.HBond>
1.6576

> <Gold.Goldscore.Internal.Correction>
-6.8469

> <Gold.Goldscore.Constraint.Score>
-0.0000

> <Gold.Goldscore.Reference.RMSD>
5.2720

> <Gold.Goldscore.Hbonds>
donor molecule, donor type, donor heavy atom, donor atom, acceptor molecule, acceptor atom, score
      L1  H    15    33       P1  2553  0.83

> <Gold.Goldscore.Internal.Vdw.Weighted>
-9.6282

> <Gold.Goldscore.Internal.Torsion.Weighted>
-2.1462

> <Gold.Goldscore.External.Vdw.Weighted>
67.5705

> <Gold.Goldscore.Internal.HBond.Weighted>
0.0000

> <Gold.Goldscore.External.HBond.Weighted>
1.6576

> <Gold.Goldscore.Internal.Correction.Weighted>
-6.8469

> <Gold.Rescore>
     Score         DG    S(hbond)    S(metal)    S(lipo)     H(rot)  DE(clash)    DE(int)    DE(con)     intcor
     29.77     -30.31       0.98        0.00     218.45       1.56       0.10       0.45       0.00       ----

> <Gold.Chemscore.Fitness>
29.7675

> <Gold.Chemscore.DG>
-30.3131

> <Gold.Chemscore.ZeroCoef>
-5.4800

> <Gold.Chemscore.Hbond>
0.9755

> <Gold.Chemscore.Metal>
0.0000

> <Gold.Chemscore.Lipo>
218.4467

> <Gold.Chemscore.Internal_Hbond>
0.0000

> <Gold.Chemscore.DEClash>
0.0978

> <Gold.Chemscore.DEInternal>
0.4478

> <Gold.Chemscore.Rot>
1.5560

> <Gold.Chemscore.Internal.Correction>
   9.000000E+99

> <Gold.Chemscore.Constraint>
0.0000

> <Gold.Chemscore.Reference.RMSD>
0.0000

> <Gold.Chemscore.Hbonds>
donor molecule, donor type, donor heavy atom, donor atom, acceptor molecule, acceptor atom, score
      L1  H    15    33       P1  2553  0.97

> <Gold.Chemscore.Hbond.Weighted>
-3.2583

> <Gold.Chemscore.Metal.Weighted>
-0.0000

> <Gold.Chemscore.Lipo.Weighted>
-25.5583

> <Gold.Chemscore.Internal_Hbond.Weighted>
0.0000

> <Gold.Chemscore.DEClash.Weighted>
0.0978

> <Gold.Chemscore.DEInternal.Weighted>
0.4478

> <Gold.Chemscore.Rot.Weighted>
3.9834

> <Gold.Chemscore.Internal.Correction.Weighted>
   9.000000E+99

> <Gold.Reference.RMSD>
5.2720

