#       Name:                example_2
#       Creating user name   hitesit
#       Creation time:       Mon Nov  6 23:30:15 2023


#       File generated by GOLD software.
#

@<TRIPOS>MOLECULE
example_2|example_2_prep|mol2|1|dock2
    42    44     1
SMALL
NO_CHARGES


@<TRIPOS>ATOM
      1 O1          20.2385 -29.3415  48.5438 O.3            1 RES1               0.0000
      2 C2          20.7532 -29.8945  47.3974 C.ar           1 RES1               0.0000
      3 C3          21.1504 -28.9877  49.5741 C.3            1 RES1               0.0000
      4 C4          19.8185 -30.2752  46.4216 C.ar           1 RES1               0.0000
      5 C5          22.1177 -30.1006  47.1609 C.ar           1 RES1               0.0000
      6 O6          18.4985 -30.0610  46.7249 O.3            1 RES1               0.0000
      7 C7          20.2762 -30.8402  45.2313 C.ar           1 RES1               0.0000
      8 C8          22.5841 -30.6629  45.9793 C.ar           1 RES1               0.0000
      9 C9          17.5408 -30.2847  45.6996 C.3            1 RES1               0.0000
     10 C10         21.6603 -31.0141  44.9898 C.ar           1 RES1               0.0000
     11 N11         23.8995 -30.8564  45.8374 N.ar           1 RES1               0.0000
     12 C12         22.2102 -31.5616  43.8206 C.ar           1 RES1               0.0000
     13 C13         24.3031 -31.4321  44.6992 C.ar           1 RES1               0.0000
     14 N14         23.5226 -31.8013  43.6790 N.ar           1 RES1               0.0000
     15 N15         21.4319 -31.9024  42.7107 N.pl3          1 RES1               0.0000
     16 C16         22.0492 -32.8487  41.7662 C.3            1 RES1               0.0000
     17 C17         21.8094 -34.2636  42.2811 C.ar           1 RES1               0.0000
     18 C18         21.5101 -32.7139  40.3427 C.3            1 RES1               0.0000
     19 C19         20.5137 -34.8025  42.3577 C.ar           1 RES1               0.0000
     20 C20         22.8919 -35.0562  42.6940 C.ar           1 RES1               0.0000
     21 C21         20.3082 -36.0999  42.8294 C.ar           1 RES1               0.0000
     22 C22         22.6837 -36.3540  43.1651 C.ar           1 RES1               0.0000
     23 C23         21.3932 -36.8753  43.2316 C.ar           1 RES1               0.0000
     24 H1          20.6022 -28.5646  50.4145 H              1 RES1               0.0000
     25 H2          21.8586 -28.2522  49.1954 H              1 RES1               0.0000
     26 H3          21.6894 -29.8752  49.9023 H              1 RES1               0.0000
     27 H4          22.8356 -29.8113  47.9270 H              1 RES1               0.0000
     28 H5          19.5572 -31.1527  44.4754 H              1 RES1               0.0000
     29 H6          16.5432 -30.0757  46.0829 H              1 RES1               0.0000
     30 H7          17.5943 -31.3222  45.3730 H              1 RES1               0.0000
     31 H8          17.7508 -29.6275  44.8570 H              1 RES1               0.0000
     32 H9          25.3710 -31.6179  44.5937 H              1 RES1               0.0000
     33 H10         20.5020 -31.5225  42.5653 H              1 RES1               0.0000
     34 H11         23.1226 -32.6660  41.7471 H              1 RES1               0.0000
     35 H12         21.6852 -31.7012  39.9826 H              1 RES1               0.0000
     36 H13         20.4410 -32.9210  40.3383 H              1 RES1               0.0000
     37 H14         22.0199 -33.4236  39.6927 H              1 RES1               0.0000
     38 H15         19.6609 -34.2014  42.0458 H              1 RES1               0.0000
     39 H16         23.9033 -34.6552  42.6464 H              1 RES1               0.0000
     40 H17         19.2992 -36.5062  42.8830 H              1 RES1               0.0000
     41 H18         23.5315 -36.9600  43.4812 H              1 RES1               0.0000
     42 H19         21.2330 -37.8884  43.5977 H              1 RES1               0.0000
@<TRIPOS>BOND
    1    1    2 1     
    2    1    3 1     
    3    2    4 ar    
    4    2    5 ar    
    5    4    6 1     
    6    4    7 ar    
    7    5    8 ar    
    8    6    9 1     
    9    7   10 ar    
   10    8   11 ar    
   11   10   12 ar    
   12   11   13 ar    
   13   12   14 ar    
   14   12   15 1     
   15   15   16 1     
   16   16   17 1     
   17   16   18 1     
   18   17   19 ar    
   19   17   20 ar    
   20   19   21 ar    
   21   20   22 ar    
   22   21   23 ar    
   23    8   10 ar    
   24   13   14 ar    
   25   22   23 ar    
   26    3   24 1     
   27    3   25 1     
   28    3   26 1     
   29    5   27 1     
   30    7   28 1     
   31    9   29 1     
   32    9   30 1     
   33    9   31 1     
   34   13   32 1     
   35   15   33 1     
   36   16   34 1     
   37   18   35 1     
   38   18   36 1     
   39   18   37 1     
   40   19   38 1     
   41   20   39 1     
   42   21   40 1     
   43   22   41 1     
   44   23   42 1     
@<TRIPOS>SUBSTRUCTURE
      1 RES1           1
@<TRIPOS>SET
DONOR_HYDROGENS      STATIC     ATOMS    <user>   **** ""
1 33
ATOM$RED        STATIC     ATOMS    COLORGROUP SYSTEM
1 33
@<TRIPOS>COMMENT
> <Gold.Version>
2022.3.0

> <Gold.Id.Protein>
unknown|5ovf_clean|pdb

> <Gold.Protein.ActiveResidues>
 ILE839  VAL852  ILE856  LEU859  VAL871  LEU872  GLU873  VAL874  VAL875  SER876 
 ALA877  MET878  ASN879  SER880  SER881  PRO882  VAL883  TYR884  ARG885  LEU886 
 ASP887  HIS888  THR889  PHE890  GLU891  GLN892  ILE893  PRO894  SER895  ARG896 
 GLN897  LYS898  LYS899  ILE900  LEU901  GLU902  GLU903  ALA904  HIS905  GLU906 
 LEU907  SER908  GLU909  LYS914  GLU836  ILE839  VAL852  ILE855  ILE856  LEU859 
 GLN863  VAL871  LEU872  VAL874  VAL875  SER876  ALA877  MET878  ASN879  SER880 
 SER881  PRO882  VAL883  TYR884  ARG885  LEU886  ASP887  HIS888  THR889  PHE890 
 GLU891  GLN892  ILE893  PRO894  SER895  ARG896  GLN897  LYS898  LYS899  ILE900 
 LEU901  GLU902  GLU903  ALA904  HIS905  GLU906  LEU907  SER908  GLU909  ASP910 
 LYS914 

> <Gold.Score>
     Fitness  S(hb_ext) S(vdw_ext)  S(hb_int)    S(int)     S(con)      intcor
     65.01       1.48      49.18       0.00      -4.09      -0.00      -7.59

> <Gold.Goldscore.Fitness>
65.0116

> <Gold.Goldscore.Internal.Vdw>
-9.3718

> <Gold.Goldscore.Internal.Torsion>
-2.3097

> <Gold.Goldscore.External.Vdw>
49.1782

> <Gold.Goldscore.Internal.HBond>
0.0000

> <Gold.Goldscore.External.HBond>
1.4848

> <Gold.Goldscore.Internal.Correction>
-7.5883

> <Gold.Goldscore.Constraint.Score>
-0.0000

> <Gold.Goldscore.Reference.RMSD>
5.2534

> <Gold.Goldscore.Hbonds>
donor molecule, donor type, donor heavy atom, donor atom, acceptor molecule, acceptor atom, score
      L1  H    15    33       P1  2553  0.74

> <Gold.Goldscore.Internal.Vdw.Weighted>
-9.3718

> <Gold.Goldscore.Internal.Torsion.Weighted>
-2.3097

> <Gold.Goldscore.External.Vdw.Weighted>
67.6201

> <Gold.Goldscore.Internal.HBond.Weighted>
0.0000

> <Gold.Goldscore.External.HBond.Weighted>
1.4848

> <Gold.Goldscore.Internal.Correction.Weighted>
-7.5883

> <Gold.Rescore>
     Score         DG    S(hbond)    S(metal)    S(lipo)     H(rot)  DE(clash)    DE(int)    DE(con)     intcor
     29.61     -30.54       0.97        0.00     220.47       1.56       0.41       0.52       0.00       ----

> <Gold.Chemscore.Fitness>
29.6116

> <Gold.Chemscore.DG>
-30.5404

> <Gold.Chemscore.ZeroCoef>
-5.4800

> <Gold.Chemscore.Hbond>
0.9729

> <Gold.Chemscore.Metal>
0.0000

> <Gold.Chemscore.Lipo>
220.4661

> <Gold.Chemscore.Internal_Hbond>
0.0000

> <Gold.Chemscore.DEClash>
0.4057

> <Gold.Chemscore.DEInternal>
0.5231

> <Gold.Chemscore.Rot>
1.5560

> <Gold.Chemscore.Internal.Correction>
   9.000000E+99

> <Gold.Chemscore.Constraint>
0.0000

> <Gold.Chemscore.Reference.RMSD>
0.0000

> <Gold.Chemscore.Hbonds>
donor molecule, donor type, donor heavy atom, donor atom, acceptor molecule, acceptor atom, score
      L1  H    15    33       P1  2553  0.95

> <Gold.Chemscore.Hbond.Weighted>
-3.2493

> <Gold.Chemscore.Metal.Weighted>
-0.0000

> <Gold.Chemscore.Lipo.Weighted>
-25.7945

> <Gold.Chemscore.Internal_Hbond.Weighted>
0.0000

> <Gold.Chemscore.DEClash.Weighted>
0.4057

> <Gold.Chemscore.DEInternal.Weighted>
0.5231

> <Gold.Chemscore.Rot.Weighted>
3.9834

> <Gold.Chemscore.Internal.Correction.Weighted>
   9.000000E+99

> <Gold.Reference.RMSD>
5.2534

