#       Name:                example_2
#       Creating user name   hitesit
#       Creation time:       Mon Nov  6 23:30:18 2023


#       File generated by GOLD software.
#

@<TRIPOS>MOLECULE
example_2|example_2_prep|mol2|1|dock3
    42    44     1
SMALL
NO_CHARGES


@<TRIPOS>ATOM
      1 O1          20.1990 -29.2360  48.5290 O.3            1 RES1               0.0000
      2 C2          20.7150 -29.8191  47.3983 C.ar           1 RES1               0.0000
      3 C3          21.1029 -28.9069  49.5744 C.3            1 RES1               0.0000
      4 C4          19.7831 -30.2050  46.4219 C.ar           1 RES1               0.0000
      5 C5          22.0783 -30.0502  47.1781 C.ar           1 RES1               0.0000
      6 O6          18.4640 -29.9651  46.7091 O.3            1 RES1               0.0000
      7 C7          20.2425 -30.8001  45.2470 C.ar           1 RES1               0.0000
      8 C8          22.5464 -30.6425  46.0118 C.ar           1 RES1               0.0000
      9 C9          17.5119 -30.1943  45.6799 C.3            1 RES1               0.0000
     10 C10         21.6259 -30.9994  45.0213 C.ar           1 RES1               0.0000
     11 N11         23.8599 -30.8584  45.8855 N.ar           1 RES1               0.0000
     12 C12         22.1775 -31.5779  43.8679 C.ar           1 RES1               0.0000
     13 C13         24.2645 -31.4624  44.7624 C.ar           1 RES1               0.0000
     14 N14         23.4873 -31.8399  43.7427 N.ar           1 RES1               0.0000
     15 N15         21.4037 -31.9289  42.7580 N.pl3          1 RES1               0.0000
     16 C16         22.0399 -32.8535  41.8046 C.3            1 RES1               0.0000
     17 C17         21.8072 -34.2789  42.2928 C.ar           1 RES1               0.0000
     18 C18         21.5154 -32.6992  40.3777 C.3            1 RES1               0.0000
     19 C19         20.5136 -34.8231  42.3663 C.ar           1 RES1               0.0000
     20 C20         22.8944 -35.0763  42.6835 C.ar           1 RES1               0.0000
     21 C21         20.3145 -36.1302  42.8134 C.ar           1 RES1               0.0000
     22 C22         22.6928 -36.3839  43.1300 C.ar           1 RES1               0.0000
     23 C23         21.4041 -36.9102  43.1937 C.ar           1 RES1               0.0000
     24 H1          20.5544 -28.4552  50.3997 H              1 RES1               0.0000
     25 H2          21.8458 -28.2023  49.2036 H              1 RES1               0.0000
     26 H3          21.6013 -29.8108  49.9214 H              1 RES1               0.0000
     27 H4          22.7939 -29.7566  47.9446 H              1 RES1               0.0000
     28 H5          19.5254 -31.1166  44.4910 H              1 RES1               0.0000
     29 H6          16.5143 -29.9631  46.0501 H              1 RES1               0.0000
     30 H7          17.5525 -31.2387  45.3738 H              1 RES1               0.0000
     31 H8          17.7392 -29.5569  44.8267 H              1 RES1               0.0000
     32 H9          25.3302 -31.6661  44.6701 H              1 RES1               0.0000
     33 H10         20.4646 -31.5699  42.6183 H              1 RES1               0.0000
     34 H11         23.1118 -32.6610  41.8006 H              1 RES1               0.0000
     35 H12         21.6853 -31.6790  40.0367 H              1 RES1               0.0000
     36 H13         20.4483 -32.9156  40.3578 H              1 RES1               0.0000
     37 H14         22.0388 -33.3932  39.7215 H              1 RES1               0.0000
     38 H15         19.6572 -34.2185  42.0714 H              1 RES1               0.0000
     39 H16         23.9043 -34.6715  42.6379 H              1 RES1               0.0000
     40 H17         19.3070 -36.5405  42.8648 H              1 RES1               0.0000
     41 H18         23.5442 -36.9934  43.4290 H              1 RES1               0.0000
     42 H19         21.2490 -37.9308  43.5406 H              1 RES1               0.0000
@<TRIPOS>BOND
    1    1    2 1     
    2    1    3 1     
    3    2    4 ar    
    4    2    5 ar    
    5    4    6 1     
    6    4    7 ar    
    7    5    8 ar    
    8    6    9 1     
    9    7   10 ar    
   10    8   11 ar    
   11   10   12 ar    
   12   11   13 ar    
   13   12   14 ar    
   14   12   15 1     
   15   15   16 1     
   16   16   17 1     
   17   16   18 1     
   18   17   19 ar    
   19   17   20 ar    
   20   19   21 ar    
   21   20   22 ar    
   22   21   23 ar    
   23    8   10 ar    
   24   13   14 ar    
   25   22   23 ar    
   26    3   24 1     
   27    3   25 1     
   28    3   26 1     
   29    5   27 1     
   30    7   28 1     
   31    9   29 1     
   32    9   30 1     
   33    9   31 1     
   34   13   32 1     
   35   15   33 1     
   36   16   34 1     
   37   18   35 1     
   38   18   36 1     
   39   18   37 1     
   40   19   38 1     
   41   20   39 1     
   42   21   40 1     
   43   22   41 1     
   44   23   42 1     
@<TRIPOS>SUBSTRUCTURE
      1 RES1           1
@<TRIPOS>SET
DONOR_HYDROGENS      STATIC     ATOMS    <user>   **** ""
1 33
ATOM$RED        STATIC     ATOMS    COLORGROUP SYSTEM
1 33
@<TRIPOS>COMMENT
> <Gold.Version>
2022.3.0

> <Gold.Id.Protein>
unknown|5ovf_clean|pdb

> <Gold.Protein.ActiveResidues>
 ILE839  VAL852  ILE856  LEU859  VAL871  LEU872  GLU873  VAL874  VAL875  SER876 
 ALA877  MET878  ASN879  SER880  SER881  PRO882  VAL883  TYR884  ARG885  LEU886 
 ASP887  HIS888  THR889  PHE890  GLU891  GLN892  ILE893  PRO894  SER895  ARG896 
 GLN897  LYS898  LYS899  ILE900  LEU901  GLU902  GLU903  ALA904  HIS905  GLU906 
 LEU907  SER908  GLU909  LYS914  GLU836  ILE839  VAL852  ILE855  ILE856  LEU859 
 GLN863  VAL871  LEU872  VAL874  VAL875  SER876  ALA877  MET878  ASN879  SER880 
 SER881  PRO882  VAL883  TYR884  ARG885  LEU886  ASP887  HIS888  THR889  PHE890 
 GLU891  GLN892  ILE893  PRO894  SER895  ARG896  GLN897  LYS898  LYS899  ILE900 
 LEU901  GLU902  GLU903  ALA904  HIS905  GLU906  LEU907  SER908  GLU909  ASP910 
 LYS914 

> <Gold.Score>
     Fitness  S(hb_ext) S(vdw_ext)  S(hb_int)    S(int)     S(con)      intcor
     64.94       1.74      49.15       0.00      -4.39      -0.00      -7.59

> <Gold.Goldscore.Fitness>
64.9408

> <Gold.Goldscore.Internal.Vdw>
-9.8405

> <Gold.Goldscore.Internal.Torsion>
-2.1336

> <Gold.Goldscore.External.Vdw>
49.1507

> <Gold.Goldscore.Internal.HBond>
0.0000

> <Gold.Goldscore.External.HBond>
1.7444

> <Gold.Goldscore.Internal.Correction>
-7.5883

> <Gold.Goldscore.Constraint.Score>
-0.0000

> <Gold.Goldscore.Reference.RMSD>
5.2693

> <Gold.Goldscore.Hbonds>
donor molecule, donor type, donor heavy atom, donor atom, acceptor molecule, acceptor atom, score
      L1  H    15    33       P1  2553  0.87

> <Gold.Goldscore.Internal.Vdw.Weighted>
-9.8405

> <Gold.Goldscore.Internal.Torsion.Weighted>
-2.1336

> <Gold.Goldscore.External.Vdw.Weighted>
67.5822

> <Gold.Goldscore.Internal.HBond.Weighted>
0.0000

> <Gold.Goldscore.External.HBond.Weighted>
1.7444

> <Gold.Goldscore.Internal.Correction.Weighted>
-7.5883

> <Gold.Rescore>
     Score         DG    S(hbond)    S(metal)    S(lipo)     H(rot)  DE(clash)    DE(int)    DE(con)     intcor
     29.73     -30.28       0.96        0.00     218.54       1.56       0.11       0.44       0.00       ----

> <Gold.Chemscore.Fitness>
29.7303

> <Gold.Chemscore.DG>
-30.2837

> <Gold.Chemscore.ZeroCoef>
-5.4800

> <Gold.Chemscore.Hbond>
0.9636

> <Gold.Chemscore.Metal>
0.0000

> <Gold.Chemscore.Lipo>
218.5367

> <Gold.Chemscore.Internal_Hbond>
0.0000

> <Gold.Chemscore.DEClash>
0.1093

> <Gold.Chemscore.DEInternal>
0.4441

> <Gold.Chemscore.Rot>
1.5560

> <Gold.Chemscore.Internal.Correction>
   9.000000E+99

> <Gold.Chemscore.Constraint>
0.0000

> <Gold.Chemscore.Reference.RMSD>
0.0000

> <Gold.Chemscore.Hbonds>
donor molecule, donor type, donor heavy atom, donor atom, acceptor molecule, acceptor atom, score
      L1  H    15    33       P1  2553  0.97

> <Gold.Chemscore.Hbond.Weighted>
-3.2184

> <Gold.Chemscore.Metal.Weighted>
-0.0000

> <Gold.Chemscore.Lipo.Weighted>
-25.5688

> <Gold.Chemscore.Internal_Hbond.Weighted>
0.0000

> <Gold.Chemscore.DEClash.Weighted>
0.1093

> <Gold.Chemscore.DEInternal.Weighted>
0.4441

> <Gold.Chemscore.Rot.Weighted>
3.9834

> <Gold.Chemscore.Internal.Correction.Weighted>
   9.000000E+99

> <Gold.Reference.RMSD>
5.2693

