#       Name:                example_2
#       Creating user name   hitesit
#       Creation time:       Mon Nov  6 23:30:35 2023


#       File generated by GOLD software.
#

@<TRIPOS>MOLECULE
example_2|example_2_prep|mol2|1|dock8
    42    44     1
SMALL
NO_CHARGES


@<TRIPOS>ATOM
      1 O1          20.2842 -29.2863  48.5513 O.3            1 RES1               0.0000
      2 C2          20.7826 -29.8645  47.4102 C.ar           1 RES1               0.0000
      3 C3          21.2071 -28.9405  49.5745 C.3            1 RES1               0.0000
      4 C4          19.8385 -30.2145  46.4320 C.ar           1 RES1               0.0000
      5 C5          22.1394 -30.1237  47.1813 C.ar           1 RES1               0.0000
      6 O6          18.5263 -29.9485  46.7278 O.3            1 RES1               0.0000
      7 C7          20.2798 -30.8028  45.2467 C.ar           1 RES1               0.0000
      8 C8          22.5894 -30.7095  46.0047 C.ar           1 RES1               0.0000
      9 C9          17.5561 -30.2160  45.7251 C.3            1 RES1               0.0000
     10 C10         21.6574 -31.0305  45.0127 C.ar           1 RES1               0.0000
     11 N11         23.8971 -30.9537  45.8701 N.ar           1 RES1               0.0000
     12 C12         22.1914 -31.6047  43.8489 C.ar           1 RES1               0.0000
     13 C13         24.2837 -31.5504  44.7368 C.ar           1 RES1               0.0000
     14 N14         23.4943 -31.8949  43.7147 N.ar           1 RES1               0.0000
     15 N15         21.4057 -31.9215  42.7370 N.pl3          1 RES1               0.0000
     16 C16         22.0107 -32.8587  41.7757 C.3            1 RES1               0.0000
     17 C17         21.7336 -34.2797  42.2539 C.ar           1 RES1               0.0000
     18 C18         21.4891 -32.6774  40.3509 C.3            1 RES1               0.0000
     19 C19         20.4243 -34.7866  42.3156 C.ar           1 RES1               0.0000
     20 C20         22.7946 -35.1104  42.6470 C.ar           1 RES1               0.0000
     21 C21         20.1845 -36.0900  42.7536 C.ar           1 RES1               0.0000
     22 C22         22.5523 -36.4141  43.0844 C.ar           1 RES1               0.0000
     23 C23         21.2486 -36.9033  43.1365 C.ar           1 RES1               0.0000
     24 H1          20.6712 -28.4950  50.4114 H              1 RES1               0.0000
     25 H2          21.9303 -28.2257  49.1847 H              1 RES1               0.0000
     26 H3          21.7272 -29.8358  49.9119 H              1 RES1               0.0000
     27 H4          22.8643 -29.8578  47.9492 H              1 RES1               0.0000
     28 H5          19.5529 -31.0916  44.4890 H              1 RES1               0.0000
     29 H6          16.5665 -29.9580  46.0994 H              1 RES1               0.0000
     30 H7          17.5824 -31.2739  45.4676 H              1 RES1               0.0000
     31 H8          17.7757 -29.6214  44.8397 H              1 RES1               0.0000
     32 H9          25.3441 -31.7772  44.6373 H              1 RES1               0.0000
     33 H10         20.4786 -31.5310  42.6012 H              1 RES1               0.0000
     34 H11         23.0881 -32.7003  41.7713 H              1 RES1               0.0000
     35 H12         21.6908 -31.6606  40.0172 H              1 RES1               0.0000
     36 H13         20.4157 -32.8596  40.3314 H              1 RES1               0.0000
     37 H14         21.9891 -33.3828  39.6888 H              1 RES1               0.0000
     38 H15         19.5878 -34.1558  42.0186 H              1 RES1               0.0000
     39 H16         23.8161 -34.7347  42.6105 H              1 RES1               0.0000
     40 H17         19.1653 -36.4712  42.7959 H              1 RES1               0.0000
     41 H18         23.3836 -37.0498  43.3855 H              1 RES1               0.0000
     42 H19         21.0616 -37.9210  43.4763 H              1 RES1               0.0000
@<TRIPOS>BOND
    1    1    2 1     
    2    1    3 1     
    3    2    4 ar    
    4    2    5 ar    
    5    4    6 1     
    6    4    7 ar    
    7    5    8 ar    
    8    6    9 1     
    9    7   10 ar    
   10    8   11 ar    
   11   10   12 ar    
   12   11   13 ar    
   13   12   14 ar    
   14   12   15 1     
   15   15   16 1     
   16   16   17 1     
   17   16   18 1     
   18   17   19 ar    
   19   17   20 ar    
   20   19   21 ar    
   21   20   22 ar    
   22   21   23 ar    
   23    8   10 ar    
   24   13   14 ar    
   25   22   23 ar    
   26    3   24 1     
   27    3   25 1     
   28    3   26 1     
   29    5   27 1     
   30    7   28 1     
   31    9   29 1     
   32    9   30 1     
   33    9   31 1     
   34   13   32 1     
   35   15   33 1     
   36   16   34 1     
   37   18   35 1     
   38   18   36 1     
   39   18   37 1     
   40   19   38 1     
   41   20   39 1     
   42   21   40 1     
   43   22   41 1     
   44   23   42 1     
@<TRIPOS>SUBSTRUCTURE
      1 RES1           1
@<TRIPOS>SET
DONOR_HYDROGENS      STATIC     ATOMS    <user>   **** ""
1 33
ATOM$RED        STATIC     ATOMS    COLORGROUP SYSTEM
1 33
@<TRIPOS>COMMENT
> <Gold.Version>
2022.3.0

> <Gold.Id.Protein>
unknown|5ovf_clean|pdb

> <Gold.Protein.ActiveResidues>
 ILE839  VAL852  ILE856  LEU859  VAL871  LEU872  GLU873  VAL874  VAL875  SER876 
 ALA877  MET878  ASN879  SER880  SER881  PRO882  VAL883  TYR884  ARG885  LEU886 
 ASP887  HIS888  THR889  PHE890  GLU891  GLN892  ILE893  PRO894  SER895  ARG896 
 GLN897  LYS898  LYS899  ILE900  LEU901  GLU902  GLU903  ALA904  HIS905  GLU906 
 LEU907  SER908  GLU909  LYS914  GLU836  ILE839  VAL852  ILE855  ILE856  LEU859 
 GLN863  VAL871  LEU872  VAL874  VAL875  SER876  ALA877  MET878  ASN879  SER880 
 SER881  PRO882  VAL883  TYR884  ARG885  LEU886  ASP887  HIS888  THR889  PHE890 
 GLU891  GLN892  ILE893  PRO894  SER895  ARG896  GLN897  LYS898  LYS899  ILE900 
 LEU901  GLU902  GLU903  ALA904  HIS905  GLU906  LEU907  SER908  GLU909  ASP910 
 LYS914 

> <Gold.Score>
     Fitness  S(hb_ext) S(vdw_ext)  S(hb_int)    S(int)     S(con)      intcor
     64.35       1.55      49.23       0.00      -4.91      -0.00      -6.85

> <Gold.Goldscore.Fitness>
64.3466

> <Gold.Goldscore.Internal.Vdw>
-9.6146

> <Gold.Goldscore.Internal.Torsion>
-2.1375

> <Gold.Goldscore.External.Vdw>
49.2346

> <Gold.Goldscore.Internal.HBond>
0.0000

> <Gold.Goldscore.External.HBond>
1.5543

> <Gold.Goldscore.Internal.Correction>
-6.8469

> <Gold.Goldscore.Constraint.Score>
-0.0000

> <Gold.Goldscore.Reference.RMSD>
5.2729

> <Gold.Goldscore.Hbonds>
donor molecule, donor type, donor heavy atom, donor atom, acceptor molecule, acceptor atom, score
      L1  H    15    33       P1  2553  0.78

> <Gold.Goldscore.Internal.Vdw.Weighted>
-9.6146

> <Gold.Goldscore.Internal.Torsion.Weighted>
-2.1375

> <Gold.Goldscore.External.Vdw.Weighted>
67.6976

> <Gold.Goldscore.Internal.HBond.Weighted>
0.0000

> <Gold.Goldscore.External.HBond.Weighted>
1.5543

> <Gold.Goldscore.Internal.Correction.Weighted>
-6.8469

> <Gold.Rescore>
     Score         DG    S(hbond)    S(metal)    S(lipo)     H(rot)  DE(clash)    DE(int)    DE(con)     intcor
     29.88     -30.35       0.97        0.00     218.93       1.56       0.05       0.43       0.00       ----

> <Gold.Chemscore.Fitness>
29.8763

> <Gold.Chemscore.DG>
-30.3541

> <Gold.Chemscore.ZeroCoef>
-5.4800

> <Gold.Chemscore.Hbond>
0.9710

> <Gold.Chemscore.Metal>
0.0000

> <Gold.Chemscore.Lipo>
218.9271

> <Gold.Chemscore.Internal_Hbond>
0.0000

> <Gold.Chemscore.DEClash>
0.0467

> <Gold.Chemscore.DEInternal>
0.4312

> <Gold.Chemscore.Rot>
1.5560

> <Gold.Chemscore.Internal.Correction>
   9.000000E+99

> <Gold.Chemscore.Constraint>
0.0000

> <Gold.Chemscore.Reference.RMSD>
0.0000

> <Gold.Chemscore.Hbonds>
donor molecule, donor type, donor heavy atom, donor atom, acceptor molecule, acceptor atom, score
      L1  H    15    33       P1  2553  0.96

> <Gold.Chemscore.Hbond.Weighted>
-3.2431

> <Gold.Chemscore.Metal.Weighted>
-0.0000

> <Gold.Chemscore.Lipo.Weighted>
-25.6145

> <Gold.Chemscore.Internal_Hbond.Weighted>
0.0000

> <Gold.Chemscore.DEClash.Weighted>
0.0467

> <Gold.Chemscore.DEInternal.Weighted>
0.4312

> <Gold.Chemscore.Rot.Weighted>
3.9834

> <Gold.Chemscore.Internal.Correction.Weighted>
   9.000000E+99

> <Gold.Reference.RMSD>
5.2729

