#       Name:                example_2
#       Creating user name   hitesit
#       Creation time:       Mon Nov  6 23:30:32 2023


#       File generated by GOLD software.
#

@<TRIPOS>MOLECULE
example_2|example_2_prep|mol2|1|dock7
    42    44     1
SMALL
NO_CHARGES


@<TRIPOS>ATOM
      1 O1          20.2302 -29.3258  48.5258 O.3            1 RES1               0.0000
      2 C2          20.7383 -29.8902  47.3820 C.ar           1 RES1               0.0000
      3 C3          21.1425 -29.0062  49.5669 C.3            1 RES1               0.0000
      4 C4          19.8013 -30.2401  46.3970 C.ar           1 RES1               0.0000
      5 C5          22.0982 -30.1358  47.1567 C.ar           1 RES1               0.0000
      6 O6          18.4857 -29.9878  46.6895 O.3            1 RES1               0.0000
      7 C7          20.2526 -30.8147  45.2088 C.ar           1 RES1               0.0000
      8 C8          22.5581 -30.7078  45.9772 C.ar           1 RES1               0.0000
      9 C9          17.5256 -30.2231  45.6691 C.3            1 RES1               0.0000
     10 C10         21.6330 -31.0286  44.9787 C.ar           1 RES1               0.0000
     11 N11         23.8684 -30.9397  45.8462 N.ar           1 RES1               0.0000
     12 C12         22.1767 -31.5884  43.8124 C.ar           1 RES1               0.0000
     13 C13         24.2648 -31.5236  44.7095 C.ar           1 RES1               0.0000
     14 N14         23.4826 -31.8664  43.6813 N.ar           1 RES1               0.0000
     15 N15         21.3984 -31.9027  42.6947 N.pl3          1 RES1               0.0000
     16 C16         21.9942 -32.8667  41.7542 C.3            1 RES1               0.0000
     17 C17         21.6822 -34.2742  42.2503 C.ar           1 RES1               0.0000
     18 C18         21.4921 -32.6960  40.3211 C.3            1 RES1               0.0000
     19 C19         20.3606 -34.7467  42.3215 C.ar           1 RES1               0.0000
     20 C20         22.7228 -35.1270  42.6507 C.ar           1 RES1               0.0000
     21 C21         20.0889 -36.0381  42.7758 C.ar           1 RES1               0.0000
     22 C22         22.4485 -36.4188  43.1044 C.ar           1 RES1               0.0000
     23 C23         21.1328 -36.8738  43.1657 C.ar           1 RES1               0.0000
     24 H1          20.5997 -28.5691  50.4037 H              1 RES1               0.0000
     25 H2          21.8779 -28.2924  49.1987 H              1 RES1               0.0000
     26 H3          21.6492 -29.9121  49.8963 H              1 RES1               0.0000
     27 H4          22.8176 -29.8701  47.9299 H              1 RES1               0.0000
     28 H5          19.5313 -31.1034  44.4457 H              1 RES1               0.0000
     29 H6          16.5318 -29.9807  46.0427 H              1 RES1               0.0000
     30 H7          17.5573 -31.2714  45.3756 H              1 RES1               0.0000
     31 H8          17.7516 -29.5977  44.8068 H              1 RES1               0.0000
     32 H9          25.3275 -31.7404  44.6127 H              1 RES1               0.0000
     33 H10         20.4824 -31.4932  42.5413 H              1 RES1               0.0000
     34 H11         23.0747 -32.7307  41.7595 H              1 RES1               0.0000
     35 H12         21.7187 -31.6887  39.9746 H              1 RES1               0.0000
     36 H13         20.4154 -32.8562  40.2922 H              1 RES1               0.0000
     37 H14         21.9845 -33.4215  39.6752 H              1 RES1               0.0000
     38 H15         19.5397 -34.0982  42.0190 H              1 RES1               0.0000
     39 H16         23.7535 -34.7781  42.6070 H              1 RES1               0.0000
     40 H17         19.0603 -36.3926  42.8254 H              1 RES1               0.0000
     41 H18         23.2642 -37.0718  43.4110 H              1 RES1               0.0000
     42 H19         20.9209 -37.8821  43.5183 H              1 RES1               0.0000
@<TRIPOS>BOND
    1    1    2 1     
    2    1    3 1     
    3    2    4 ar    
    4    2    5 ar    
    5    4    6 1     
    6    4    7 ar    
    7    5    8 ar    
    8    6    9 1     
    9    7   10 ar    
   10    8   11 ar    
   11   10   12 ar    
   12   11   13 ar    
   13   12   14 ar    
   14   12   15 1     
   15   15   16 1     
   16   16   17 1     
   17   16   18 1     
   18   17   19 ar    
   19   17   20 ar    
   20   19   21 ar    
   21   20   22 ar    
   22   21   23 ar    
   23    8   10 ar    
   24   13   14 ar    
   25   22   23 ar    
   26    3   24 1     
   27    3   25 1     
   28    3   26 1     
   29    5   27 1     
   30    7   28 1     
   31    9   29 1     
   32    9   30 1     
   33    9   31 1     
   34   13   32 1     
   35   15   33 1     
   36   16   34 1     
   37   18   35 1     
   38   18   36 1     
   39   18   37 1     
   40   19   38 1     
   41   20   39 1     
   42   21   40 1     
   43   22   41 1     
   44   23   42 1     
@<TRIPOS>SUBSTRUCTURE
      1 RES1           1
@<TRIPOS>SET
DONOR_HYDROGENS      STATIC     ATOMS    <user>   **** ""
1 33
ATOM$RED        STATIC     ATOMS    COLORGROUP SYSTEM
1 33
@<TRIPOS>COMMENT
> <Gold.Version>
2022.3.0

> <Gold.Id.Protein>
unknown|5ovf_clean|pdb

> <Gold.Protein.ActiveResidues>
 ILE839  VAL852  ILE856  LEU859  VAL871  LEU872  GLU873  VAL874  VAL875  SER876 
 ALA877  MET878  ASN879  SER880  SER881  PRO882  VAL883  TYR884  ARG885  LEU886 
 ASP887  HIS888  THR889  PHE890  GLU891  GLN892  ILE893  PRO894  SER895  ARG896 
 GLN897  LYS898  LYS899  ILE900  LEU901  GLU902  GLU903  ALA904  HIS905  GLU906 
 LEU907  SER908  GLU909  LYS914  GLU836  ILE839  VAL852  ILE855  ILE856  LEU859 
 GLN863  VAL871  LEU872  VAL874  VAL875  SER876  ALA877  MET878  ASN879  SER880 
 SER881  PRO882  VAL883  TYR884  ARG885  LEU886  ASP887  HIS888  THR889  PHE890 
 GLU891  GLN892  ILE893  PRO894  SER895  ARG896  GLN897  LYS898  LYS899  ILE900 
 LEU901  GLU902  GLU903  ALA904  HIS905  GLU906  LEU907  SER908  GLU909  ASP910 
 LYS914 

> <Gold.Score>
     Fitness  S(hb_ext) S(vdw_ext)  S(hb_int)    S(int)     S(con)      intcor
     64.30       1.29      49.28       0.00      -4.74      -0.00      -6.85

> <Gold.Goldscore.Fitness>
64.3033

> <Gold.Goldscore.Internal.Vdw>
-9.2835

> <Gold.Goldscore.Internal.Torsion>
-2.3019

> <Gold.Goldscore.External.Vdw>
49.2775

> <Gold.Goldscore.Internal.HBond>
0.0000

> <Gold.Goldscore.External.HBond>
1.2852

> <Gold.Goldscore.Internal.Correction>
-6.8469

> <Gold.Goldscore.Constraint.Score>
-0.0000

> <Gold.Goldscore.Reference.RMSD>
5.2588

> <Gold.Goldscore.Hbonds>
donor molecule, donor type, donor heavy atom, donor atom, acceptor molecule, acceptor atom, score
      L1  H    15    33       P1  2553  0.64

> <Gold.Goldscore.Internal.Vdw.Weighted>
-9.2835

> <Gold.Goldscore.Internal.Torsion.Weighted>
-2.3019

> <Gold.Goldscore.External.Vdw.Weighted>
67.7565

> <Gold.Goldscore.Internal.HBond.Weighted>
0.0000

> <Gold.Goldscore.External.HBond.Weighted>
1.2852

> <Gold.Goldscore.Internal.Correction.Weighted>
-6.8469

> <Gold.Rescore>
     Score         DG    S(hbond)    S(metal)    S(lipo)     H(rot)  DE(clash)    DE(int)    DE(con)     intcor
     29.52     -30.34       0.96        0.00     219.17       1.56       0.34       0.49       0.00       ----

> <Gold.Chemscore.Fitness>
29.5164

> <Gold.Chemscore.DG>
-30.3443

> <Gold.Chemscore.ZeroCoef>
-5.4800

> <Gold.Chemscore.Hbond>
0.9597

> <Gold.Chemscore.Metal>
0.0000

> <Gold.Chemscore.Lipo>
219.1659

> <Gold.Chemscore.Internal_Hbond>
0.0000

> <Gold.Chemscore.DEClash>
0.3364

> <Gold.Chemscore.DEInternal>
0.4915

> <Gold.Chemscore.Rot>
1.5560

> <Gold.Chemscore.Internal.Correction>
   9.000000E+99

> <Gold.Chemscore.Constraint>
0.0000

> <Gold.Chemscore.Reference.RMSD>
0.0000

> <Gold.Chemscore.Hbonds>
donor molecule, donor type, donor heavy atom, donor atom, acceptor molecule, acceptor atom, score
      L1  H    15    33       P1  2553  0.92

> <Gold.Chemscore.Hbond.Weighted>
-3.2054

> <Gold.Chemscore.Metal.Weighted>
-0.0000

> <Gold.Chemscore.Lipo.Weighted>
-25.6424

> <Gold.Chemscore.Internal_Hbond.Weighted>
0.0000

> <Gold.Chemscore.DEClash.Weighted>
0.3364

> <Gold.Chemscore.DEInternal.Weighted>
0.4915

> <Gold.Chemscore.Rot.Weighted>
3.9834

> <Gold.Chemscore.Internal.Correction.Weighted>
   9.000000E+99

> <Gold.Reference.RMSD>
5.2588

