#       Name:                example_2
#       Creating user name   hitesit
#       Creation time:       Mon Nov  6 23:30:25 2023


#       File generated by GOLD software.
#

@<TRIPOS>MOLECULE
example_2|example_2_prep|mol2|1|dock5
    42    44     1
SMALL
NO_CHARGES


@<TRIPOS>ATOM
      1 O1          20.2223 -29.2824  48.5237 O.3            1 RES1               0.0000
      2 C2          20.7359 -29.8520  47.3849 C.ar           1 RES1               0.0000
      3 C3          21.1379 -28.8832  49.5339 C.3            1 RES1               0.0000
      4 C4          19.7997 -30.2574  46.4207 C.ar           1 RES1               0.0000
      5 C5          22.1009 -30.0520  47.1458 C.ar           1 RES1               0.0000
      6 O6          18.4795 -30.0477  46.7263 O.3            1 RES1               0.0000
      7 C7          20.2563 -30.8402  45.2385 C.ar           1 RES1               0.0000
      8 C8          22.5662 -30.6318  45.9722 C.ar           1 RES1               0.0000
      9 C9          17.5203 -30.2803  45.7044 C.3            1 RES1               0.0000
     10 C10         21.6405 -31.0078  44.9936 C.ar           1 RES1               0.0000
     11 N11         23.8824 -30.8178  45.8276 N.ar           1 RES1               0.0000
     12 C12         22.1893 -31.5720  43.8318 C.ar           1 RES1               0.0000
     13 C13         24.2852 -31.4109  44.6980 C.ar           1 RES1               0.0000
     14 N14         23.5028 -31.8043  43.6883 N.ar           1 RES1               0.0000
     15 N15         21.4085 -31.9387  42.7319 N.pl3          1 RES1               0.0000
     16 C16         22.0411 -32.8717  41.7843 C.3            1 RES1               0.0000
     17 C17         21.8173 -34.2924  42.2902 C.ar           1 RES1               0.0000
     18 C18         21.5056 -32.7355  40.3596 C.3            1 RES1               0.0000
     19 C19         22.8942 -35.1054  42.6829 C.ar           1 RES1               0.0000
     20 C20         20.5172 -34.8158  42.3687 C.ar           1 RES1               0.0000
     21 C21         22.6753 -36.4038  43.1460 C.ar           1 RES1               0.0000
     22 C22         20.3007 -36.1149  42.8327 C.ar           1 RES1               0.0000
     23 C23         21.3788 -36.9073  43.2218 C.ar           1 RES1               0.0000
     24 H1          20.5901 -28.4517  50.3704 H              1 RES1               0.0000
     25 H2          21.8250 -28.1418  49.1288 H              1 RES1               0.0000
     26 H3          21.7005 -29.7502  49.8771 H              1 RES1               0.0000
     27 H4          22.8201 -29.7434  47.9031 H              1 RES1               0.0000
     28 H5          19.5362 -31.1716  44.4918 H              1 RES1               0.0000
     29 H6          16.5227 -30.0742  46.0893 H              1 RES1               0.0000
     30 H7          17.5777 -31.3190  45.3823 H              1 RES1               0.0000
     31 H8          17.7252 -29.6260  44.8584 H              1 RES1               0.0000
     32 H9          25.3539 -31.5904  44.5908 H              1 RES1               0.0000
     33 H10         20.4669 -31.5850  42.5953 H              1 RES1               0.0000
     34 H11         23.1122 -32.6754  41.7703 H              1 RES1               0.0000
     35 H12         21.6693 -31.7185  40.0060 H              1 RES1               0.0000
     36 H13         20.4392 -32.9559  40.3500 H              1 RES1               0.0000
     37 H14         22.0267 -33.4349  39.7075 H              1 RES1               0.0000
     38 H15         23.9105 -34.7183  42.6252 H              1 RES1               0.0000
     39 H16         19.6696 -34.2031  42.0651 H              1 RES1               0.0000
     40 H17         23.5184 -37.0234  43.4480 H              1 RES1               0.0000
     41 H18         19.2874 -36.5095  42.8906 H              1 RES1               0.0000
     42 H19         21.2079 -37.9196  43.5850 H              1 RES1               0.0000
@<TRIPOS>BOND
    1    1    2 1     
    2    1    3 1     
    3    2    4 ar    
    4    2    5 ar    
    5    4    6 1     
    6    4    7 ar    
    7    5    8 ar    
    8    6    9 1     
    9    7   10 ar    
   10    8   11 ar    
   11   10   12 ar    
   12   11   13 ar    
   13   12   14 ar    
   14   12   15 1     
   15   15   16 1     
   16   16   17 1     
   17   16   18 1     
   18   17   19 ar    
   19   17   20 ar    
   20   19   21 ar    
   21   20   22 ar    
   22   21   23 ar    
   23    8   10 ar    
   24   13   14 ar    
   25   22   23 ar    
   26    3   24 1     
   27    3   25 1     
   28    3   26 1     
   29    5   27 1     
   30    7   28 1     
   31    9   29 1     
   32    9   30 1     
   33    9   31 1     
   34   13   32 1     
   35   15   33 1     
   36   16   34 1     
   37   18   35 1     
   38   18   36 1     
   39   18   37 1     
   40   19   38 1     
   41   20   39 1     
   42   21   40 1     
   43   22   41 1     
   44   23   42 1     
@<TRIPOS>SUBSTRUCTURE
      1 RES1           1
@<TRIPOS>SET
DONOR_HYDROGENS      STATIC     ATOMS    <user>   **** ""
1 33
ATOM$RED        STATIC     ATOMS    COLORGROUP SYSTEM
1 33
@<TRIPOS>COMMENT
> <Gold.Version>
2022.3.0

> <Gold.Id.Protein>
unknown|5ovf_clean|pdb

> <Gold.Protein.ActiveResidues>
 ILE839  VAL852  ILE856  LEU859  VAL871  LEU872  GLU873  VAL874  VAL875  SER876 
 ALA877  MET878  ASN879  SER880  SER881  PRO882  VAL883  TYR884  ARG885  LEU886 
 ASP887  HIS888  THR889  PHE890  GLU891  GLN892  ILE893  PRO894  SER895  ARG896 
 GLN897  LYS898  LYS899  ILE900  LEU901  GLU902  GLU903  ALA904  HIS905  GLU906 
 LEU907  SER908  GLU909  LYS914  GLU836  ILE839  VAL852  ILE855  ILE856  LEU859 
 GLN863  VAL871  LEU872  VAL874  VAL875  SER876  ALA877  MET878  ASN879  SER880 
 SER881  PRO882  VAL883  TYR884  ARG885  LEU886  ASP887  HIS888  THR889  PHE890 
 GLU891  GLN892  ILE893  PRO894  SER895  ARG896  GLN897  LYS898  LYS899  ILE900 
 LEU901  GLU902  GLU903  ALA904  HIS905  GLU906  LEU907  SER908  GLU909  ASP910 
 LYS914 

> <Gold.Score>
     Fitness  S(hb_ext) S(vdw_ext)  S(hb_int)    S(int)     S(con)      intcor
     64.79       1.80      49.18       0.00      -4.62      -0.00      -7.37

> <Gold.Goldscore.Fitness>
64.7917

> <Gold.Goldscore.Internal.Vdw>
-9.7745

> <Gold.Goldscore.Internal.Torsion>
-2.2192

> <Gold.Goldscore.External.Vdw>
49.1751

> <Gold.Goldscore.Internal.HBond>
0.0000

> <Gold.Goldscore.External.HBond>
1.7954

> <Gold.Goldscore.Internal.Correction>
-7.3743

> <Gold.Goldscore.Constraint.Score>
-0.0000

> <Gold.Goldscore.Reference.RMSD>
5.2618

> <Gold.Goldscore.Hbonds>
donor molecule, donor type, donor heavy atom, donor atom, acceptor molecule, acceptor atom, score
      L1  H    15    33       P1  2553  0.90

> <Gold.Goldscore.Internal.Vdw.Weighted>
-9.7745

> <Gold.Goldscore.Internal.Torsion.Weighted>
-2.2192

> <Gold.Goldscore.External.Vdw.Weighted>
67.6158

> <Gold.Goldscore.Internal.HBond.Weighted>
0.0000

> <Gold.Goldscore.External.HBond.Weighted>
1.7954

> <Gold.Goldscore.Internal.Correction.Weighted>
-7.3743

> <Gold.Rescore>
     Score         DG    S(hbond)    S(metal)    S(lipo)     H(rot)  DE(clash)    DE(int)    DE(con)     intcor
     29.79     -30.27       0.99        0.00     217.70       1.56       0.02       0.45       0.00       ----

> <Gold.Chemscore.Fitness>
29.7938

> <Gold.Chemscore.DG>
-30.2655

> <Gold.Chemscore.ZeroCoef>
-5.4800

> <Gold.Chemscore.Hbond>
0.9875

> <Gold.Chemscore.Metal>
0.0000

> <Gold.Chemscore.Lipo>
217.6992

> <Gold.Chemscore.Internal_Hbond>
0.0000

> <Gold.Chemscore.DEClash>
0.0170

> <Gold.Chemscore.DEInternal>
0.4546

> <Gold.Chemscore.Rot>
1.5560

> <Gold.Chemscore.Internal.Correction>
   9.000000E+99

> <Gold.Chemscore.Constraint>
0.0000

> <Gold.Chemscore.Reference.RMSD>
0.0000

> <Gold.Chemscore.Hbonds>
donor molecule, donor type, donor heavy atom, donor atom, acceptor molecule, acceptor atom, score
      L1  H    15    33       P1  2553  0.98

> <Gold.Chemscore.Hbond.Weighted>
-3.2981

> <Gold.Chemscore.Metal.Weighted>
-0.0000

> <Gold.Chemscore.Lipo.Weighted>
-25.4708

> <Gold.Chemscore.Internal_Hbond.Weighted>
0.0000

> <Gold.Chemscore.DEClash.Weighted>
0.0170

> <Gold.Chemscore.DEInternal.Weighted>
0.4546

> <Gold.Chemscore.Rot.Weighted>
3.9834

> <Gold.Chemscore.Internal.Correction.Weighted>
   9.000000E+99

> <Gold.Reference.RMSD>
5.2618

