#       Name:                example_2
#       Creating user name   hitesit
#       Creation time:       Mon Nov  6 23:30:39 2023


#       File generated by GOLD software.
#

@<TRIPOS>MOLECULE
example_2|example_2_prep|mol2|1|dock9
    42    44     1
SMALL
NO_CHARGES


@<TRIPOS>ATOM
      1 O1          20.2344 -29.2442  48.5227 O.3            1 RES1               0.0000
      2 C2          20.7430 -29.8267  47.3882 C.ar           1 RES1               0.0000
      3 C3          21.1515 -28.8664  49.5398 C.3            1 RES1               0.0000
      4 C4          19.8052 -30.2057  46.4148 C.ar           1 RES1               0.0000
      5 C5          22.1043 -30.0636  47.1617 C.ar           1 RES1               0.0000
      6 O6          18.4884 -29.9604  46.7082 O.3            1 RES1               0.0000
      7 C7          20.2568 -30.7998  45.2364 C.ar           1 RES1               0.0000
      8 C8          22.5646 -30.6550  45.9919 C.ar           1 RES1               0.0000
      9 C9          17.5311 -30.1805  45.6818 C.3            1 RES1               0.0000
     10 C10         21.6382 -31.0049  45.0043 C.ar           1 RES1               0.0000
     11 N11         23.8765 -30.8767  45.8595 N.ar           1 RES1               0.0000
     12 C12         22.1823 -31.5830  43.8471 C.ar           1 RES1               0.0000
     13 C13         24.2736 -31.4796  44.7331 C.ar           1 RES1               0.0000
     14 N14         23.4903 -31.8508  43.7157 N.ar           1 RES1               0.0000
     15 N15         21.4022 -31.9274  42.7395 N.pl3          1 RES1               0.0000
     16 C16         22.0253 -32.8622  41.7874 C.3            1 RES1               0.0000
     17 C17         21.7887 -34.2829  42.2875 C.ar           1 RES1               0.0000
     18 C18         21.4898 -32.7150  40.3638 C.3            1 RES1               0.0000
     19 C19         20.4931 -34.8206  42.3720 C.ar           1 RES1               0.0000
     20 C20         22.8744 -35.0823  42.6783 C.ar           1 RES1               0.0000
     21 C21         20.2905 -36.1234  42.8299 C.ar           1 RES1               0.0000
     22 C22         22.6692 -36.3856  43.1357 C.ar           1 RES1               0.0000
     23 C23         21.3785 -36.9055  43.2103 C.ar           1 RES1               0.0000
     24 H1          20.6077 -28.4213  50.3717 H              1 RES1               0.0000
     25 H2          21.8592 -28.1419  49.1396 H              1 RES1               0.0000
     26 H3          21.6905 -29.7463  49.8877 H              1 RES1               0.0000
     27 H4          22.8244 -29.7754  47.9260 H              1 RES1               0.0000
     28 H5          19.5351 -31.1110  44.4826 H              1 RES1               0.0000
     29 H6          16.5361 -29.9458  46.0569 H              1 RES1               0.0000
     30 H7          17.5653 -31.2238  45.3713 H              1 RES1               0.0000
     31 H8          17.7582 -29.5408  44.8303 H              1 RES1               0.0000
     32 H9          25.3379 -31.6881  44.6357 H              1 RES1               0.0000
     33 H10         20.4673 -31.5574  42.6007 H              1 RES1               0.0000
     34 H11         23.0982 -32.6757  41.7732 H              1 RES1               0.0000
     35 H12         21.6626 -31.6981  40.0143 H              1 RES1               0.0000
     36 H13         20.4214 -32.9255  40.3543 H              1 RES1               0.0000
     37 H14         22.0038 -33.4164  39.7083 H              1 RES1               0.0000
     38 H15         19.6379 -34.2142  42.0772 H              1 RES1               0.0000
     39 H16         23.8859 -34.6825  42.6243 H              1 RES1               0.0000
     40 H17         19.2814 -36.5286  42.8899 H              1 RES1               0.0000
     41 H18         23.5194 -36.9968  43.4347 H              1 RES1               0.0000
     42 H19         21.2206 -37.9227  43.5656 H              1 RES1               0.0000
@<TRIPOS>BOND
    1    1    2 1     
    2    1    3 1     
    3    2    4 ar    
    4    2    5 ar    
    5    4    6 1     
    6    4    7 ar    
    7    5    8 ar    
    8    6    9 1     
    9    7   10 ar    
   10    8   11 ar    
   11   10   12 ar    
   12   11   13 ar    
   13   12   14 ar    
   14   12   15 1     
   15   15   16 1     
   16   16   17 1     
   17   16   18 1     
   18   17   19 ar    
   19   17   20 ar    
   20   19   21 ar    
   21   20   22 ar    
   22   21   23 ar    
   23    8   10 ar    
   24   13   14 ar    
   25   22   23 ar    
   26    3   24 1     
   27    3   25 1     
   28    3   26 1     
   29    5   27 1     
   30    7   28 1     
   31    9   29 1     
   32    9   30 1     
   33    9   31 1     
   34   13   32 1     
   35   15   33 1     
   36   16   34 1     
   37   18   35 1     
   38   18   36 1     
   39   18   37 1     
   40   19   38 1     
   41   20   39 1     
   42   21   40 1     
   43   22   41 1     
   44   23   42 1     
@<TRIPOS>SUBSTRUCTURE
      1 RES1           1
@<TRIPOS>SET
DONOR_HYDROGENS      STATIC     ATOMS    <user>   **** ""
1 33
ATOM$RED        STATIC     ATOMS    COLORGROUP SYSTEM
1 33
@<TRIPOS>COMMENT
> <Gold.Version>
2022.3.0

> <Gold.Id.Protein>
unknown|5ovf_clean|pdb

> <Gold.Protein.ActiveResidues>
 ILE839  VAL852  ILE856  LEU859  VAL871  LEU872  GLU873  VAL874  VAL875  SER876 
 ALA877  MET878  ASN879  SER880  SER881  PRO882  VAL883  TYR884  ARG885  LEU886 
 ASP887  HIS888  THR889  PHE890  GLU891  GLN892  ILE893  PRO894  SER895  ARG896 
 GLN897  LYS898  LYS899  ILE900  LEU901  GLU902  GLU903  ALA904  HIS905  GLU906 
 LEU907  SER908  GLU909  LYS914  GLU836  ILE839  VAL852  ILE855  ILE856  LEU859 
 GLN863  VAL871  LEU872  VAL874  VAL875  SER876  ALA877  MET878  ASN879  SER880 
 SER881  PRO882  VAL883  TYR884  ARG885  LEU886  ASP887  HIS888  THR889  PHE890 
 GLU891  GLN892  ILE893  PRO894  SER895  ARG896  GLN897  LYS898  LYS899  ILE900 
 LEU901  GLU902  GLU903  ALA904  HIS905  GLU906  LEU907  SER908  GLU909  ASP910 
 LYS914 

> <Gold.Score>
     Fitness  S(hb_ext) S(vdw_ext)  S(hb_int)    S(int)     S(con)      intcor
     64.19       1.67      49.08       0.00      -4.96      -0.00      -6.85

> <Gold.Goldscore.Fitness>
64.1862

> <Gold.Goldscore.Internal.Vdw>
-9.6502

> <Gold.Goldscore.Internal.Torsion>
-2.1594

> <Gold.Goldscore.External.Vdw>
49.0776

> <Gold.Goldscore.Internal.HBond>
0.0000

> <Gold.Goldscore.External.HBond>
1.6671

> <Gold.Goldscore.Internal.Correction>
-6.8469

> <Gold.Goldscore.Constraint.Score>
-0.0000

> <Gold.Goldscore.Reference.RMSD>
5.2756

> <Gold.Goldscore.Hbonds>
donor molecule, donor type, donor heavy atom, donor atom, acceptor molecule, acceptor atom, score
      L1  H    15    33       P1  2553  0.83

> <Gold.Goldscore.Internal.Vdw.Weighted>
-9.6502

> <Gold.Goldscore.Internal.Torsion.Weighted>
-2.1594

> <Gold.Goldscore.External.Vdw.Weighted>
67.4817

> <Gold.Goldscore.Internal.HBond.Weighted>
0.0000

> <Gold.Goldscore.External.HBond.Weighted>
1.6671

> <Gold.Goldscore.Internal.Correction.Weighted>
-6.8469

> <Gold.Rescore>
     Score         DG    S(hbond)    S(metal)    S(lipo)     H(rot)  DE(clash)    DE(int)    DE(con)     intcor
     29.76     -30.28       0.98        0.00     218.15       1.56       0.10       0.42       0.00       ----

> <Gold.Chemscore.Fitness>
29.7566

> <Gold.Chemscore.DG>
-30.2784

> <Gold.Chemscore.ZeroCoef>
-5.4800

> <Gold.Chemscore.Hbond>
0.9757

> <Gold.Chemscore.Metal>
0.0000

> <Gold.Chemscore.Lipo>
218.1465

> <Gold.Chemscore.Internal_Hbond>
0.0000

> <Gold.Chemscore.DEClash>
0.1021

> <Gold.Chemscore.DEInternal>
0.4197

> <Gold.Chemscore.Rot>
1.5560

> <Gold.Chemscore.Internal.Correction>
   9.000000E+99

> <Gold.Chemscore.Constraint>
0.0000

> <Gold.Chemscore.Reference.RMSD>
0.0000

> <Gold.Chemscore.Hbonds>
donor molecule, donor type, donor heavy atom, donor atom, acceptor molecule, acceptor atom, score
      L1  H    15    33       P1  2553  0.97

> <Gold.Chemscore.Hbond.Weighted>
-3.2587

> <Gold.Chemscore.Metal.Weighted>
-0.0000

> <Gold.Chemscore.Lipo.Weighted>
-25.5231

> <Gold.Chemscore.Internal_Hbond.Weighted>
0.0000

> <Gold.Chemscore.DEClash.Weighted>
0.1021

> <Gold.Chemscore.DEInternal.Weighted>
0.4197

> <Gold.Chemscore.Rot.Weighted>
3.9834

> <Gold.Chemscore.Internal.Correction.Weighted>
   9.000000E+99

> <Gold.Reference.RMSD>
5.2756

