#       Name:                example_2
#       Creating user name   hitesit
#       Creation time:       Mon Nov  6 23:30:08 2023


#       File generated by GOLD software.
#

@<TRIPOS>MOLECULE
example_2
    42    44     1
SMALL
NO_CHARGES


@<TRIPOS>ATOM
      1 O1           0.7910  -1.7620   4.7682 O.3            1 RES1               0.0000
      2 C2           0.7383  -1.6651   3.3997 C.ar           1 RES1               0.0000
      3 C3           1.7429  -2.6535   5.3316 C.3            1 RES1               0.0000
      4 C4          -0.2173  -0.7780   2.8796 C.ar           1 RES1               0.0000
      5 C5           1.5556  -2.3883   2.5225 C.ar           1 RES1               0.0000
      6 O6          -0.9955  -0.1152   3.7935 O.3            1 RES1               0.0000
      7 C7          -0.3199  -0.6301   1.4964 C.ar           1 RES1               0.0000
      8 C8           1.4613  -2.2488   1.1435 C.ar           1 RES1               0.0000
      9 C9          -1.9574   0.8052   3.2975 C.3            1 RES1               0.0000
     10 C10          0.5338  -1.3424   0.6200 C.ar           1 RES1               0.0000
     11 N11          2.2549  -2.9953   0.3684 N.ar           1 RES1               0.0000
     12 C12          0.5095  -1.2478  -0.7799 C.ar           1 RES1               0.0000
     13 C13          2.1076  -2.8555  -0.9540 C.ar           1 RES1               0.0000
     14 N14          1.2684  -2.0193  -1.5728 N.ar           1 RES1               0.0000
     15 N15         -0.3104  -0.3420  -1.4590 N.pl3          1 RES1               0.0000
     16 C16          0.3047   0.9569  -1.7802 C.3            1 RES1               0.0000
     17 C17         -0.4686   1.5793  -2.9374 C.ar           1 RES1               0.0000
     18 C18          0.3302   1.9190  -0.5933 C.3            1 RES1               0.0000
     19 C19         -1.8522   1.8098  -2.8504 C.ar           1 RES1               0.0000
     20 C20          0.1978   1.9321  -4.1214 C.ar           1 RES1               0.0000
     21 C21         -2.5479   2.3820  -3.9165 C.ar           1 RES1               0.0000
     22 C22         -0.5003   2.5048  -5.1865 C.ar           1 RES1               0.0000
     23 C23         -1.8715   2.7303  -5.0833 C.ar           1 RES1               0.0000
     24 H1           1.6690  -2.6245   6.4177 H              1 RES1               0.0000
     25 H2           2.7449  -2.3541   5.0278 H              1 RES1               0.0000
     26 H3           1.5445  -3.6653   4.9812 H              1 RES1               0.0000
     27 H4           2.2878  -3.0815   2.9339 H              1 RES1               0.0000
     28 H5          -1.0689   0.0443   1.0839 H              1 RES1               0.0000
     29 H6          -2.4964   1.2518   4.1317 H              1 RES1               0.0000
     30 H7          -2.6596   0.2825   2.6497 H              1 RES1               0.0000
     31 H8          -1.4535   1.5868   2.7309 H              1 RES1               0.0000
     32 H9           2.7319  -3.4838  -1.5875 H              1 RES1               0.0000
     33 H10         -1.2672  -0.5650  -1.7141 H              1 RES1               0.0000
     34 H11          1.3295   0.7823  -2.1046 H              1 RES1               0.0000
     35 H12          0.8840   1.4672   0.2284 H              1 RES1               0.0000
     36 H13         -0.6895   2.1271  -0.2727 H              1 RES1               0.0000
     37 H14          0.8143   2.8484  -0.8897 H              1 RES1               0.0000
     38 H15         -2.3873   1.5390  -1.9414 H              1 RES1               0.0000
     39 H16          1.2691   1.7576  -4.2101 H              1 RES1               0.0000
     40 H17         -3.6199   2.5562  -3.8361 H              1 RES1               0.0000
     41 H18          0.0278   2.7757  -6.0995 H              1 RES1               0.0000
     42 H19         -2.4140   3.1786  -5.9144 H              1 RES1               0.0000
@<TRIPOS>BOND
    1    1    2 1     
    2    1    3 1     
    3    2    4 ar    
    4    2    5 ar    
    5    4    6 1     
    6    4    7 ar    
    7    5    8 ar    
    8    6    9 1     
    9    7   10 ar    
   10    8   11 ar    
   11   10   12 ar    
   12   11   13 ar    
   13   12   14 ar    
   14   12   15 1     
   15   15   16 1     
   16   16   17 1     
   17   16   18 1     
   18   17   19 ar    
   19   17   20 ar    
   20   19   21 ar    
   21   20   22 ar    
   22   21   23 ar    
   23    8   10 ar    
   24   13   14 ar    
   25   22   23 ar    
   26    3   24 1     
   27    3   25 1     
   28    3   26 1     
   29    5   27 1     
   30    7   28 1     
   31    9   29 1     
   32    9   30 1     
   33    9   31 1     
   34   13   32 1     
   35   15   33 1     
   36   16   34 1     
   37   18   35 1     
   38   18   36 1     
   39   18   37 1     
   40   19   38 1     
   41   20   39 1     
   42   21   40 1     
   43   22   41 1     
   44   23   42 1     
@<TRIPOS>SUBSTRUCTURE
      1 RES1           1
@<TRIPOS>SET
DONOR_HYDROGENS      STATIC     ATOMS    <user>   **** ""
1 33
ATOM$RED        STATIC     ATOMS    COLORGROUP SYSTEM
1 33
