#       Name:                example_2
#       Creating user name   hitesit
#       Creation time:       Mon Nov  6 23:30:11 2023


#       File generated by GOLD software.
#

@<TRIPOS>MOLECULE
example_2|example_2_prep|mol2|1|dock1
    42    44     1
SMALL
NO_CHARGES


@<TRIPOS>ATOM
      1 O1          20.2144 -29.3299  48.5332 O.3            1 RES1               0.0000
      2 C2          20.7252 -29.8905  47.3889 C.ar           1 RES1               0.0000
      3 C3          21.1256 -29.0030  49.5730 C.3            1 RES1               0.0000
      4 C4          19.7896 -30.2490  46.4057 C.ar           1 RES1               0.0000
      5 C5          22.0868 -30.1246  47.1613 C.ar           1 RES1               0.0000
      6 O6          18.4723 -30.0078  46.7004 O.3            1 RES1               0.0000
      7 C7          20.2436 -30.8203  45.2170 C.ar           1 RES1               0.0000
      8 C8          22.5495 -30.6933  45.9812 C.ar           1 RES1               0.0000
      9 C9          17.5182 -30.2012  45.6657 C.3            1 RES1               0.0000
     10 C10         21.6254 -31.0225  44.9845 C.ar           1 RES1               0.0000
     11 N11         23.8615 -30.9140  45.8479 N.ar           1 RES1               0.0000
     12 C12         22.1719 -31.5783  43.8175 C.ar           1 RES1               0.0000
     13 C13         24.2609 -31.4951  44.7109 C.ar           1 RES1               0.0000
     14 N14         23.4799 -31.8451  43.6843 N.ar           1 RES1               0.0000
     15 N15         21.3943 -31.8998  42.7014 N.pl3          1 RES1               0.0000
     16 C16         21.9993 -32.8542  41.7571 C.3            1 RES1               0.0000
     17 C17         21.7032 -34.2666  42.2490 C.ar           1 RES1               0.0000
     18 C18         21.4936 -32.6845  40.3252 C.3            1 RES1               0.0000
     19 C19         20.3873 -34.7554  42.3156 C.ar           1 RES1               0.0000
     20 C20         22.7530 -35.1077  42.6502 C.ar           1 RES1               0.0000
     21 C21         20.1301 -36.0511  42.7661 C.ar           1 RES1               0.0000
     22 C22         22.4933 -36.4037  43.1002 C.ar           1 RES1               0.0000
     23 C23         21.1832 -36.8749  43.1569 C.ar           1 RES1               0.0000
     24 H1          20.5806 -28.5700  50.4105 H              1 RES1               0.0000
     25 H2          21.8549 -28.2835  49.2036 H              1 RES1               0.0000
     26 H3          21.6399 -29.9048  49.9019 H              1 RES1               0.0000
     27 H4          22.8053 -29.8524  47.9330 H              1 RES1               0.0000
     28 H5          19.5235 -31.1156  44.4553 H              1 RES1               0.0000
     29 H6          16.5224 -29.9733  46.0430 H              1 RES1               0.0000
     30 H7          17.5512 -31.2368  45.3304 H              1 RES1               0.0000
     31 H8          17.7496 -29.5417  44.8307 H              1 RES1               0.0000
     32 H9          25.3253 -31.7029  44.6123 H              1 RES1               0.0000
     33 H10         20.4728 -31.5014  42.5515 H              1 RES1               0.0000
     34 H11         23.0782 -32.7066  41.7615 H              1 RES1               0.0000
     35 H12         21.7088 -31.6737  39.9816 H              1 RES1               0.0000
     36 H13         20.4186 -32.8562  40.2970 H              1 RES1               0.0000
     37 H14         21.9930 -33.4025  39.6763 H              1 RES1               0.0000
     38 H15         19.5593 -34.1163  42.0125 H              1 RES1               0.0000
     39 H16         23.7795 -34.7460  42.6100 H              1 RES1               0.0000
     40 H17         19.1058 -36.4182  42.8122 H              1 RES1               0.0000
     41 H18         23.3161 -37.0475  43.4074 H              1 RES1               0.0000
     42 H19         20.9827 -37.8866  43.5066 H              1 RES1               0.0000
@<TRIPOS>BOND
    1    1    2 1     
    2    1    3 1     
    3    2    4 ar    
    4    2    5 ar    
    5    4    6 1     
    6    4    7 ar    
    7    5    8 ar    
    8    6    9 1     
    9    7   10 ar    
   10    8   11 ar    
   11   10   12 ar    
   12   11   13 ar    
   13   12   14 ar    
   14   12   15 1     
   15   15   16 1     
   16   16   17 1     
   17   16   18 1     
   18   17   19 ar    
   19   17   20 ar    
   20   19   21 ar    
   21   20   22 ar    
   22   21   23 ar    
   23    8   10 ar    
   24   13   14 ar    
   25   22   23 ar    
   26    3   24 1     
   27    3   25 1     
   28    3   26 1     
   29    5   27 1     
   30    7   28 1     
   31    9   29 1     
   32    9   30 1     
   33    9   31 1     
   34   13   32 1     
   35   15   33 1     
   36   16   34 1     
   37   18   35 1     
   38   18   36 1     
   39   18   37 1     
   40   19   38 1     
   41   20   39 1     
   42   21   40 1     
   43   22   41 1     
   44   23   42 1     
@<TRIPOS>SUBSTRUCTURE
      1 RES1           1
@<TRIPOS>SET
DONOR_HYDROGENS      STATIC     ATOMS    <user>   **** ""
1 33
ATOM$RED        STATIC     ATOMS    COLORGROUP SYSTEM
1 33
@<TRIPOS>COMMENT
> <Gold.Version>
2022.3.0

> <Gold.Id.Protein>
unknown|5ovf_clean|pdb

> <Gold.Protein.ActiveResidues>
 ILE839  VAL852  ILE856  LEU859  VAL871  LEU872  GLU873  VAL874  VAL875  SER876 
 ALA877  MET878  ASN879  SER880  SER881  PRO882  VAL883  TYR884  ARG885  LEU886 
 ASP887  HIS888  THR889  PHE890  GLU891  GLN892  ILE893  PRO894  SER895  ARG896 
 GLN897  LYS898  LYS899  ILE900  LEU901  GLU902  GLU903  ALA904  HIS905  GLU906 
 LEU907  SER908  GLU909  LYS914  GLU836  ILE839  VAL852  ILE855  ILE856  LEU859 
 GLN863  VAL871  LEU872  VAL874  VAL875  SER876  ALA877  MET878  ASN879  SER880 
 SER881  PRO882  VAL883  TYR884  ARG885  LEU886  ASP887  HIS888  THR889  PHE890 
 GLU891  GLN892  ILE893  PRO894  SER895  ARG896  GLN897  LYS898  LYS899  ILE900 
 LEU901  GLU902  GLU903  ALA904  HIS905  GLU906  LEU907  SER908  GLU909  ASP910 
 LYS914 

> <Gold.Score>
     Fitness  S(hb_ext) S(vdw_ext)  S(hb_int)    S(int)     S(con)      intcor
     64.98       1.36      49.33       0.00      -4.21      -0.00      -7.59

> <Gold.Goldscore.Fitness>
64.9834

> <Gold.Goldscore.Internal.Vdw>
-9.4904

> <Gold.Goldscore.Internal.Torsion>
-2.3061

> <Gold.Goldscore.External.Vdw>
49.3326

> <Gold.Goldscore.Internal.HBond>
0.0000

> <Gold.Goldscore.External.HBond>
1.3592

> <Gold.Goldscore.Internal.Correction>
-7.5883

> <Gold.Goldscore.Constraint.Score>
-0.0000

> <Gold.Goldscore.Reference.RMSD>
5.2598

> <Gold.Goldscore.Hbonds>
donor molecule, donor type, donor heavy atom, donor atom, acceptor molecule, acceptor atom, score
      L1  H    15    33       P1  2553  0.68

> <Gold.Goldscore.Internal.Vdw.Weighted>
-9.4904

> <Gold.Goldscore.Internal.Torsion.Weighted>
-2.3061

> <Gold.Goldscore.External.Vdw.Weighted>
67.8324

> <Gold.Goldscore.Internal.HBond.Weighted>
0.0000

> <Gold.Goldscore.External.HBond.Weighted>
1.3592

> <Gold.Goldscore.Internal.Correction.Weighted>
-7.5883

> <Gold.Rescore>
     Score         DG    S(hbond)    S(metal)    S(lipo)     H(rot)  DE(clash)    DE(int)    DE(con)     intcor
     29.01     -29.59       0.96        0.00     212.68       1.56       0.10       0.49       0.00       ----

> <Gold.Chemscore.Fitness>
29.0133

> <Gold.Chemscore.DG>
-29.5950

> <Gold.Chemscore.ZeroCoef>
-5.4800

> <Gold.Chemscore.Hbond>
0.9624

> <Gold.Chemscore.Metal>
0.0000

> <Gold.Chemscore.Lipo>
212.6839

> <Gold.Chemscore.Internal_Hbond>
0.0000

> <Gold.Chemscore.DEClash>
0.0956

> <Gold.Chemscore.DEInternal>
0.4861

> <Gold.Chemscore.Rot>
1.5560

> <Gold.Chemscore.Internal.Correction>
   9.000000E+99

> <Gold.Chemscore.Constraint>
0.0000

> <Gold.Chemscore.Reference.RMSD>
0.0000

> <Gold.Chemscore.Hbonds>
donor molecule, donor type, donor heavy atom, donor atom, acceptor molecule, acceptor atom, score
      L1  H    15    33       P1  2553  0.93

> <Gold.Chemscore.Hbond.Weighted>
-3.2144

> <Gold.Chemscore.Metal.Weighted>
-0.0000

> <Gold.Chemscore.Lipo.Weighted>
-24.8840

> <Gold.Chemscore.Internal_Hbond.Weighted>
0.0000

> <Gold.Chemscore.DEClash.Weighted>
0.0956

> <Gold.Chemscore.DEInternal.Weighted>
0.4861

> <Gold.Chemscore.Rot.Weighted>
3.9834

> <Gold.Chemscore.Internal.Correction.Weighted>
   9.000000E+99

> <Gold.Reference.RMSD>
5.2598

