#       Name:                example_2
#       Creating user name   hitesit
#       Creation time:       Mon Nov  6 23:30:22 2023


#       File generated by GOLD software.
#

@<TRIPOS>MOLECULE
example_2|example_2_prep|mol2|1|dock4
    42    44     1
SMALL
NO_CHARGES


@<TRIPOS>ATOM
      1 O1          20.2559 -29.2688  48.5280 O.3            1 RES1               0.0000
      2 C2          20.7583 -29.8521  47.3912 C.ar           1 RES1               0.0000
      3 C3          21.1767 -28.9070  49.5476 C.3            1 RES1               0.0000
      4 C4          19.8178 -30.2049  46.4106 C.ar           1 RES1               0.0000
      5 C5          22.1157 -30.1137  47.1688 C.ar           1 RES1               0.0000
      6 O6          18.5047 -29.9363  46.7001 O.3            1 RES1               0.0000
      7 C7          20.2632 -30.7984  45.2295 C.ar           1 RES1               0.0000
      8 C8          22.5698 -30.7046  45.9964 C.ar           1 RES1               0.0000
      9 C9          17.5450 -30.1527  45.6751 C.3            1 RES1               0.0000
     10 C10         21.6414 -31.0286  45.0019 C.ar           1 RES1               0.0000
     11 N11         23.8778 -30.9508  45.8680 N.ar           1 RES1               0.0000
     12 C12         22.1795 -31.6079  43.8425 C.ar           1 RES1               0.0000
     13 C13         24.2682 -31.5524  44.7386 C.ar           1 RES1               0.0000
     14 N14         23.4826 -31.9002  43.7148 N.ar           1 RES1               0.0000
     15 N15         21.3979 -31.9282  42.7288 N.pl3          1 RES1               0.0000
     16 C16         22.0080 -32.8656  41.7708 C.3            1 RES1               0.0000
     17 C17         21.7397 -34.2863  42.2546 C.ar           1 RES1               0.0000
     18 C18         21.4846 -32.6929  40.3456 C.3            1 RES1               0.0000
     19 C19         22.7900 -35.1360  42.6419 C.ar           1 RES1               0.0000
     20 C20         20.4244 -34.7726  42.3177 C.ar           1 RES1               0.0000
     21 C21         22.5304 -36.4339  43.0847 C.ar           1 RES1               0.0000
     22 C22         20.1672 -36.0713  42.7615 C.ar           1 RES1               0.0000
     23 C23         21.2193 -36.9004  43.1454 C.ar           1 RES1               0.0000
     24 H1          20.6378 -28.4593  50.3812 H              1 RES1               0.0000
     25 H2          21.8936 -28.1894  49.1514 H              1 RES1               0.0000
     26 H3          21.7046 -29.7951  49.8918 H              1 RES1               0.0000
     27 H4          22.8378 -29.8456  47.9386 H              1 RES1               0.0000
     28 H5          19.5390 -31.0894  44.4700 H              1 RES1               0.0000
     29 H6          16.5534 -29.8987  46.0468 H              1 RES1               0.0000
     30 H7          17.5634 -31.1996  45.3758 H              1 RES1               0.0000
     31 H8          17.7826 -29.5256  44.8171 H              1 RES1               0.0000
     32 H9          25.3288 -31.7808  44.6443 H              1 RES1               0.0000
     33 H10         20.4704 -31.5401  42.5895 H              1 RES1               0.0000
     34 H11         23.0845 -32.7008  41.7651 H              1 RES1               0.0000
     35 H12         21.6800 -31.6762  40.0077 H              1 RES1               0.0000
     36 H13         20.4122 -32.8817  40.3273 H              1 RES1               0.0000
     37 H14         21.9885 -33.3978  39.6859 H              1 RES1               0.0000
     38 H15         23.8174 -34.7779  42.5959 H              1 RES1               0.0000
     39 H16         19.5970 -34.1311  42.0180 H              1 RES1               0.0000
     40 H17         23.3532 -37.0821  43.3828 H              1 RES1               0.0000
     41 H18         19.1425 -36.4370  42.8075 H              1 RES1               0.0000
     42 H19         21.0167 -37.9124  43.4928 H              1 RES1               0.0000
@<TRIPOS>BOND
    1    1    2 1     
    2    1    3 1     
    3    2    4 ar    
    4    2    5 ar    
    5    4    6 1     
    6    4    7 ar    
    7    5    8 ar    
    8    6    9 1     
    9    7   10 ar    
   10    8   11 ar    
   11   10   12 ar    
   12   11   13 ar    
   13   12   14 ar    
   14   12   15 1     
   15   15   16 1     
   16   16   17 1     
   17   16   18 1     
   18   17   19 ar    
   19   17   20 ar    
   20   19   21 ar    
   21   20   22 ar    
   22   21   23 ar    
   23    8   10 ar    
   24   13   14 ar    
   25   22   23 ar    
   26    3   24 1     
   27    3   25 1     
   28    3   26 1     
   29    5   27 1     
   30    7   28 1     
   31    9   29 1     
   32    9   30 1     
   33    9   31 1     
   34   13   32 1     
   35   15   33 1     
   36   16   34 1     
   37   18   35 1     
   38   18   36 1     
   39   18   37 1     
   40   19   38 1     
   41   20   39 1     
   42   21   40 1     
   43   22   41 1     
   44   23   42 1     
@<TRIPOS>SUBSTRUCTURE
      1 RES1           1
@<TRIPOS>SET
DONOR_HYDROGENS      STATIC     ATOMS    <user>   **** ""
1 33
ATOM$RED        STATIC     ATOMS    COLORGROUP SYSTEM
1 33
@<TRIPOS>COMMENT
> <Gold.Version>
2022.3.0

> <Gold.Id.Protein>
unknown|5ovf_clean|pdb

> <Gold.Protein.ActiveResidues>
 ILE839  VAL852  ILE856  LEU859  VAL871  LEU872  GLU873  VAL874  VAL875  SER876 
 ALA877  MET878  ASN879  SER880  SER881  PRO882  VAL883  TYR884  ARG885  LEU886 
 ASP887  HIS888  THR889  PHE890  GLU891  GLN892  ILE893  PRO894  SER895  ARG896 
 GLN897  LYS898  LYS899  ILE900  LEU901  GLU902  GLU903  ALA904  HIS905  GLU906 
 LEU907  SER908  GLU909  LYS914  GLU836  ILE839  VAL852  ILE855  ILE856  LEU859 
 GLN863  VAL871  LEU872  VAL874  VAL875  SER876  ALA877  MET878  ASN879  SER880 
 SER881  PRO882  VAL883  TYR884  ARG885  LEU886  ASP887  HIS888  THR889  PHE890 
 GLU891  GLN892  ILE893  PRO894  SER895  ARG896  GLN897  LYS898  LYS899  ILE900 
 LEU901  GLU902  GLU903  ALA904  HIS905  GLU906  LEU907  SER908  GLU909  ASP910 
 LYS914 

> <Gold.Score>
     Fitness  S(hb_ext) S(vdw_ext)  S(hb_int)    S(int)     S(con)      intcor
     64.77       1.55      49.22       0.00      -4.46      -0.00      -7.37

> <Gold.Goldscore.Fitness>
64.7736

> <Gold.Goldscore.Internal.Vdw>
-9.6956

> <Gold.Goldscore.Internal.Torsion>
-2.1409

> <Gold.Goldscore.External.Vdw>
49.2230

> <Gold.Goldscore.Internal.HBond>
0.0000

> <Gold.Goldscore.External.HBond>
1.5542

> <Gold.Goldscore.Internal.Correction>
-7.3743

> <Gold.Goldscore.Constraint.Score>
-0.0000

> <Gold.Goldscore.Reference.RMSD>
5.2699

> <Gold.Goldscore.Hbonds>
donor molecule, donor type, donor heavy atom, donor atom, acceptor molecule, acceptor atom, score
      L1  H    15    33       P1  2553  0.78

> <Gold.Goldscore.Internal.Vdw.Weighted>
-9.6956

> <Gold.Goldscore.Internal.Torsion.Weighted>
-2.1409

> <Gold.Goldscore.External.Vdw.Weighted>
67.6817

> <Gold.Goldscore.Internal.HBond.Weighted>
0.0000

> <Gold.Goldscore.External.HBond.Weighted>
1.5542

> <Gold.Goldscore.Internal.Correction.Weighted>
-7.3743

> <Gold.Rescore>
     Score         DG    S(hbond)    S(metal)    S(lipo)     H(rot)  DE(clash)    DE(int)    DE(con)     intcor
     29.86     -30.27       0.98        0.00     218.10       1.56       0.00       0.42       0.00       ----

> <Gold.Chemscore.Fitness>
29.8569

> <Gold.Chemscore.DG>
-30.2749

> <Gold.Chemscore.ZeroCoef>
-5.4800

> <Gold.Chemscore.Hbond>
0.9764

> <Gold.Chemscore.Metal>
0.0000

> <Gold.Chemscore.Lipo>
218.0956

> <Gold.Chemscore.Internal_Hbond>
0.0000

> <Gold.Chemscore.DEClash>
0.0008

> <Gold.Chemscore.DEInternal>
0.4172

> <Gold.Chemscore.Rot>
1.5560

> <Gold.Chemscore.Internal.Correction>
   9.000000E+99

> <Gold.Chemscore.Constraint>
0.0000

> <Gold.Chemscore.Reference.RMSD>
0.0000

> <Gold.Chemscore.Hbonds>
donor molecule, donor type, donor heavy atom, donor atom, acceptor molecule, acceptor atom, score
      L1  H    15    33       P1  2553  0.96

> <Gold.Chemscore.Hbond.Weighted>
-3.2612

> <Gold.Chemscore.Metal.Weighted>
-0.0000

> <Gold.Chemscore.Lipo.Weighted>
-25.5172

> <Gold.Chemscore.Internal_Hbond.Weighted>
0.0000

> <Gold.Chemscore.DEClash.Weighted>
0.0008

> <Gold.Chemscore.DEInternal.Weighted>
0.4172

> <Gold.Chemscore.Rot.Weighted>
3.9834

> <Gold.Chemscore.Internal.Correction.Weighted>
   9.000000E+99

> <Gold.Reference.RMSD>
5.2699

