#       Name:                crystal
#       Creating user name   hitesit
#       Creation time:       Mon Nov  6 23:22:37 2023


#       File generated by GOLD software.
#

@<TRIPOS>MOLECULE
crystal|crystal_prep|mol2|1|dock1
    52    55     1
SMALL
NO_CHARGES


@<TRIPOS>ATOM
      1 O1          20.1852 -29.3277  48.5674 O.3            1 RES1               0.0000
      2 C2          20.7047 -29.8251  47.3980 C.ar           1 RES1               0.0000
      3 C3          21.0993 -28.8917  49.5637 C.3            1 RES1               0.0000
      4 C4          19.7729 -30.2472  46.4378 C.ar           1 RES1               0.0000
      5 C5          22.0723 -29.9385  47.1239 C.ar           1 RES1               0.0000
      6 O6          18.4505 -30.1187  46.7765 O.3            1 RES1               0.0000
      7 C7          20.2352 -30.7568  45.2230 C.ar           1 RES1               0.0000
      8 C8          22.5438 -30.4498  45.9215 C.ar           1 RES1               0.0000
      9 C9          17.4818 -30.3213  45.7576 C.3            1 RES1               0.0000
     10 C10         21.6244 -30.8535  44.9479 C.ar           1 RES1               0.0000
     11 N11         23.8650 -30.5383  45.7497 N.ar           1 RES1               0.0000
     12 C12         22.1825 -31.3439  43.7528 C.ar           1 RES1               0.0000
     13 C13         24.3013 -31.0463  44.5886 C.ar           1 RES1               0.0000
     14 N14         23.5105 -31.4668  43.5915 N.ar           1 RES1               0.0000
     15 N15         21.3615 -31.7659  42.7159 N.pl3          1 RES1               0.0000
     16 C16         25.7793 -31.1966  44.4096 C.3            1 RES1               0.0000
     17 C17         21.7799 -32.8169  41.8016 C.3            1 RES1               0.0000
     18 C18         21.2597 -34.1349  42.3673 C.ar           1 RES1               0.0000
     19 C19         21.2899 -32.5214  40.3804 C.3            1 RES1               0.0000
     20 C20         22.0996 -35.0929  42.9677 C.ar           1 RES1               0.0000
     21 C21         19.8961 -34.4354  42.2349 C.ar           1 RES1               0.0000
     22 C22         21.6017 -36.3134  43.4581 C.ar           1 RES1               0.0000
     23 C23         19.3841 -35.6386  42.7127 C.ar           1 RES1               0.0000
     24 C24         22.4836 -37.3001  44.0862 C.2            1 RES1               0.0000
     25 C25         20.2299 -36.5671  43.3216 C.ar           1 RES1               0.0000
     26 C26         22.1941 -38.3911  44.7993 C.2            1 RES1               0.0000
     27 C27         23.9712 -37.2764  44.0419 C.3            1 RES1               0.0000
     28 N28         23.3029 -39.0705  45.2244 N.2            1 RES1               0.0000
     29 N29         24.3457 -38.4830  44.8254 N.2            1 RES1               0.0000
     30 H1          20.5468 -28.5257  50.4279 H              1 RES1               0.0000
     31 H2          21.7184 -28.0906  49.1627 H              1 RES1               0.0000
     32 H3          21.7331 -29.7247  49.8643 H              1 RES1               0.0000
     33 H4          22.7895 -29.6156  47.8771 H              1 RES1               0.0000
     34 H5          19.5174 -31.0860  44.4732 H              1 RES1               0.0000
     35 H6          17.5770 -31.3314  45.3619 H              1 RES1               0.0000
     36 H7          16.4842 -30.1868  46.1732 H              1 RES1               0.0000
     37 H8          17.6414 -29.6010  44.9565 H              1 RES1               0.0000
     38 H9          20.4518 -31.3327  42.5935 H              1 RES1               0.0000
     39 H10         25.9849 -31.6183  43.4268 H              1 RES1               0.0000
     40 H11         26.1726 -31.8598  45.1787 H              1 RES1               0.0000
     41 H12         26.2562 -30.2211  44.4929 H              1 RES1               0.0000
     42 H13         22.8683 -32.8517  41.7910 H              1 RES1               0.0000
     43 H14         21.7000 -31.5697  40.0456 H              1 RES1               0.0000
     44 H15         20.2021 -32.4700  40.3747 H              1 RES1               0.0000
     45 H16         21.6194 -33.3143  39.7106 H              1 RES1               0.0000
     46 H17         23.1646 -34.8826  43.0547 H              1 RES1               0.0000
     47 H18         19.2310 -33.7201  41.7534 H              1 RES1               0.0000
     48 H19         18.3218 -35.8558  42.6111 H              1 RES1               0.0000
     49 H20         19.8177 -37.5028  43.6964 H              1 RES1               0.0000
     50 H21         21.1762 -38.7087  45.0205 H              1 RES1               0.0000
     51 H22         24.3626 -36.3717  44.5046 H              1 RES1               0.0000
     52 H23         24.3339 -37.3463  43.0174 H              1 RES1               0.0000
@<TRIPOS>BOND
    1    1    2 1     
    2    1    3 1     
    3    2    4 ar    
    4    2    5 ar    
    5    4    6 1     
    6    4    7 ar    
    7    5    8 ar    
    8    6    9 1     
    9    7   10 ar    
   10    8   11 ar    
   11   10   12 ar    
   12   11   13 ar    
   13   12   14 ar    
   14   12   15 1     
   15   13   16 1     
   16   15   17 1     
   17   17   18 1     
   18   17   19 1     
   19   18   20 ar    
   20   18   21 ar    
   21   20   22 ar    
   22   21   23 ar    
   23   22   24 1     
   24   22   25 ar    
   25   24   26 2     
   26   24   27 1     
   27   26   28 1     
   28   27   29 1     
   29    8   10 ar    
   30   13   14 ar    
   31   23   25 ar    
   32   28   29 2     
   33    3   30 1     
   34    3   31 1     
   35    3   32 1     
   36    5   33 1     
   37    7   34 1     
   38    9   35 1     
   39    9   36 1     
   40    9   37 1     
   41   15   38 1     
   42   16   39 1     
   43   16   40 1     
   44   16   41 1     
   45   17   42 1     
   46   19   43 1     
   47   19   44 1     
   48   19   45 1     
   49   20   46 1     
   50   21   47 1     
   51   23   48 1     
   52   25   49 1     
   53   26   50 1     
   54   27   51 1     
   55   27   52 1     
@<TRIPOS>SUBSTRUCTURE
      1 RES1           1
@<TRIPOS>SET
DONOR_HYDROGENS      STATIC     ATOMS    <user>   **** ""
1 38
ATOM$RED        STATIC     ATOMS    COLORGROUP SYSTEM
1 38
@<TRIPOS>COMMENT
> <Gold.Version>
2022.3.0

> <Gold.Id.Protein>
unknown|5ovf_clean|pdb

> <Gold.Protein.ActiveResidues>
 ILE839  VAL852  ILE856  LEU859  VAL871  LEU872  GLU873  VAL874  VAL875  SER876 
 ALA877  MET878  ASN879  SER880  SER881  PRO882  VAL883  TYR884  ARG885  LEU886 
 ASP887  HIS888  THR889  PHE890  GLU891  GLN892  ILE893  PRO894  SER895  ARG896 
 GLN897  LYS898  LYS899  ILE900  LEU901  GLU902  GLU903  ALA904  HIS905  GLU906 
 LEU907  SER908  GLU909  LYS914  GLU836  ILE839  VAL852  ILE855  ILE856  LEU859 
 GLN863  VAL871  LEU872  VAL874  VAL875  SER876  ALA877  MET878  ASN879  SER880 
 SER881  PRO882  VAL883  TYR884  ARG885  LEU886  ASP887  HIS888  THR889  PHE890 
 GLU891  GLN892  ILE893  PRO894  SER895  ARG896  GLN897  LYS898  LYS899  ILE900 
 LEU901  GLU902  GLU903  ALA904  HIS905  GLU906  LEU907  SER908  GLU909  ASP910 
 LYS914 

> <Gold.Score>
     Fitness  S(hb_ext) S(vdw_ext)  S(hb_int)    S(int)      intcor
     78.38       0.98      58.89       0.00      -3.58      -9.31

> <Gold.Goldscore.Fitness>
78.3764

> <Gold.Goldscore.Internal.Vdw>
-9.4407

> <Gold.Goldscore.Internal.Torsion>
-3.4434

> <Gold.Goldscore.External.Vdw>
58.8925

> <Gold.Goldscore.Internal.HBond>
0.0000

> <Gold.Goldscore.External.HBond>
0.9782

> <Gold.Goldscore.Internal.Correction>
-9.3050

> <Gold.Goldscore.Reference.RMSD>
0.7268

> <Gold.Goldscore.Hbonds>
donor molecule, donor type, donor heavy atom, donor atom, acceptor molecule, acceptor atom, score
      L1  H    15    38       P1  2553  0.49

> <Gold.Goldscore.Internal.Vdw.Weighted>
-9.4407

> <Gold.Goldscore.Internal.Torsion.Weighted>
-3.4434

> <Gold.Goldscore.External.Vdw.Weighted>
80.9772

> <Gold.Goldscore.Internal.HBond.Weighted>
0.0000

> <Gold.Goldscore.External.HBond.Weighted>
0.9782

> <Gold.Goldscore.Internal.Correction.Weighted>
-9.3050

> <Gold.Rescore>
     Score         DG    S(hbond)    S(metal)    S(lipo)     H(rot)  DE(clash)    DE(int)     intcor
     33.85     -35.49       0.98        0.00     262.78       1.56       0.72       0.91       ----

> <Gold.Chemscore.Fitness>
33.8534

> <Gold.Chemscore.DG>
-35.4900

> <Gold.Chemscore.ZeroCoef>
-5.4800

> <Gold.Chemscore.Hbond>
0.9772

> <Gold.Chemscore.Metal>
0.0000

> <Gold.Chemscore.Lipo>
262.7751

> <Gold.Chemscore.Internal_Hbond>
0.0000

> <Gold.Chemscore.DEClash>
0.7228

> <Gold.Chemscore.DEInternal>
0.9138

> <Gold.Chemscore.Rot>
1.5619

> <Gold.Chemscore.Internal.Correction>
   9.000000E+99

> <Gold.Chemscore.Reference.RMSD>
0.0000

> <Gold.Chemscore.Hbonds>
donor molecule, donor type, donor heavy atom, donor atom, acceptor molecule, acceptor atom, score
      L1  H    15    38       P1  2553  0.80

> <Gold.Chemscore.Hbond.Weighted>
-3.2638

> <Gold.Chemscore.Metal.Weighted>
-0.0000

> <Gold.Chemscore.Lipo.Weighted>
-30.7447

> <Gold.Chemscore.Internal_Hbond.Weighted>
0.0000

> <Gold.Chemscore.DEClash.Weighted>
0.7228

> <Gold.Chemscore.DEInternal.Weighted>
0.9138

> <Gold.Chemscore.Rot.Weighted>
3.9985

> <Gold.Chemscore.Internal.Correction.Weighted>
   9.000000E+99

> <Gold.Reference.RMSD>
0.7268

#       Name:                crystal
#       Creating user name   hitesit
#       Creation time:       Mon Nov  6 23:22:44 2023


#       File generated by GOLD software.
#

@<TRIPOS>MOLECULE
crystal|crystal_prep|mol2|1|dock2
    52    55     1
SMALL
NO_CHARGES


@<TRIPOS>ATOM
      1 O1          19.9903 -29.3439  48.5584 O.3            1 RES1               0.0000
      2 C2          20.5339 -29.8458  47.4019 C.ar           1 RES1               0.0000
      3 C3          20.8834 -28.9267  49.5815 C.3            1 RES1               0.0000
      4 C4          19.6222 -30.2527  46.4162 C.ar           1 RES1               0.0000
      5 C5          21.9066 -29.9776  47.1641 C.ar           1 RES1               0.0000
      6 O6          18.2932 -30.1065  46.7198 O.3            1 RES1               0.0000
      7 C7          20.1097 -30.7660  45.2128 C.ar           1 RES1               0.0000
      8 C8          22.4029 -30.4927  45.9733 C.ar           1 RES1               0.0000
      9 C9          17.3487 -30.3052  45.6778 C.3            1 RES1               0.0000
     10 C10         21.5043 -30.8813  44.9745 C.ar           1 RES1               0.0000
     11 N11         23.7268 -30.5991  45.8365 N.ar           1 RES1               0.0000
     12 C12         22.0872 -31.3767  43.7934 C.ar           1 RES1               0.0000
     13 C13         24.1869 -31.1106  44.6861 C.ar           1 RES1               0.0000
     14 N14         23.4172 -31.5177  43.6672 N.ar           1 RES1               0.0000
     15 N15         21.2884 -31.7849  42.7339 N.pl3          1 RES1               0.0000
     16 C16         25.6669 -31.2810  44.5461 C.3            1 RES1               0.0000
     17 C17         21.7053 -32.8565  41.8432 C.3            1 RES1               0.0000
     18 C18         21.1650 -34.1586  42.4266 C.ar           1 RES1               0.0000
     19 C19         21.2339 -32.5814  40.4116 C.3            1 RES1               0.0000
     20 C20         21.9908 -35.1237  43.0350 C.ar           1 RES1               0.0000
     21 C21         19.7959 -34.4371  42.3031 C.ar           1 RES1               0.0000
     22 C22         21.4741 -36.3296  43.5418 C.ar           1 RES1               0.0000
     23 C23         19.2653 -35.6256  42.7972 C.ar           1 RES1               0.0000
     24 C24         22.3415 -37.3238  44.1781 C.2            1 RES1               0.0000
     25 C25         20.0976 -36.5612  43.4138 C.ar           1 RES1               0.0000
     26 C26         22.0360 -38.4243  44.8695 C.2            1 RES1               0.0000
     27 C27         23.8298 -37.2984  44.1702 C.3            1 RES1               0.0000
     28 N28         23.1349 -39.1085  45.3125 N.2            1 RES1               0.0000
     29 N29         24.1864 -38.5149  44.9466 N.2            1 RES1               0.0000
     30 H1          20.3133 -28.5545  50.4314 H              1 RES1               0.0000
     31 H2          21.5267 -28.1346  49.2010 H              1 RES1               0.0000
     32 H3          21.4947 -29.7711  49.8962 H              1 RES1               0.0000
     33 H4          22.6079 -29.6664  47.9369 H              1 RES1               0.0000
     34 H5          19.4076 -31.0834  44.4433 H              1 RES1               0.0000
     35 H6          17.4422 -31.3192  45.2915 H              1 RES1               0.0000
     36 H7          16.3424 -30.1563  46.0667 H              1 RES1               0.0000
     37 H8          17.5372 -29.5925  44.8763 H              1 RES1               0.0000
     38 H9          20.3962 -31.3267  42.5779 H              1 RES1               0.0000
     39 H10         25.8928 -31.7033  43.5681 H              1 RES1               0.0000
     40 H11         26.0304 -31.9514  45.3236 H              1 RES1               0.0000
     41 H12         26.1548 -30.3124  44.6447 H              1 RES1               0.0000
     42 H13         22.7933 -32.9029  41.8452 H              1 RES1               0.0000
     43 H14         21.6577 -31.6403  40.0644 H              1 RES1               0.0000
     44 H15         20.1468 -32.5188  40.3931 H              1 RES1               0.0000
     45 H16         21.5621 -33.3897  39.7598 H              1 RES1               0.0000
     46 H17         23.0596 -34.9307  43.1152 H              1 RES1               0.0000
     47 H18         19.1411 -33.7162  41.8158 H              1 RES1               0.0000
     48 H19         18.1991 -35.8257  42.7025 H              1 RES1               0.0000
     49 H20         19.6710 -37.4853  43.8013 H              1 RES1               0.0000
     50 H21         21.0134 -38.7456  45.0618 H              1 RES1               0.0000
     51 H22         24.2089 -36.3996  44.6542 H              1 RES1               0.0000
     52 H23         24.2173 -37.3545  43.1540 H              1 RES1               0.0000
@<TRIPOS>BOND
    1    1    2 1     
    2    1    3 1     
    3    2    4 ar    
    4    2    5 ar    
    5    4    6 1     
    6    4    7 ar    
    7    5    8 ar    
    8    6    9 1     
    9    7   10 ar    
   10    8   11 ar    
   11   10   12 ar    
   12   11   13 ar    
   13   12   14 ar    
   14   12   15 1     
   15   13   16 1     
   16   15   17 1     
   17   17   18 1     
   18   17   19 1     
   19   18   20 ar    
   20   18   21 ar    
   21   20   22 ar    
   22   21   23 ar    
   23   22   24 1     
   24   22   25 ar    
   25   24   26 2     
   26   24   27 1     
   27   26   28 1     
   28   27   29 1     
   29    8   10 ar    
   30   13   14 ar    
   31   23   25 ar    
   32   28   29 2     
   33    3   30 1     
   34    3   31 1     
   35    3   32 1     
   36    5   33 1     
   37    7   34 1     
   38    9   35 1     
   39    9   36 1     
   40    9   37 1     
   41   15   38 1     
   42   16   39 1     
   43   16   40 1     
   44   16   41 1     
   45   17   42 1     
   46   19   43 1     
   47   19   44 1     
   48   19   45 1     
   49   20   46 1     
   50   21   47 1     
   51   23   48 1     
   52   25   49 1     
   53   26   50 1     
   54   27   51 1     
   55   27   52 1     
@<TRIPOS>SUBSTRUCTURE
      1 RES1           1
@<TRIPOS>SET
DONOR_HYDROGENS      STATIC     ATOMS    <user>   **** ""
1 38
ATOM$RED        STATIC     ATOMS    COLORGROUP SYSTEM
1 38
@<TRIPOS>COMMENT
> <Gold.Version>
2022.3.0

> <Gold.Id.Protein>
unknown|5ovf_clean|pdb

> <Gold.Protein.ActiveResidues>
 ILE839  VAL852  ILE856  LEU859  VAL871  LEU872  GLU873  VAL874  VAL875  SER876 
 ALA877  MET878  ASN879  SER880  SER881  PRO882  VAL883  TYR884  ARG885  LEU886 
 ASP887  HIS888  THR889  PHE890  GLU891  GLN892  ILE893  PRO894  SER895  ARG896 
 GLN897  LYS898  LYS899  ILE900  LEU901  GLU902  GLU903  ALA904  HIS905  GLU906 
 LEU907  SER908  GLU909  LYS914  GLU836  ILE839  VAL852  ILE855  ILE856  LEU859 
 GLN863  VAL871  LEU872  VAL874  VAL875  SER876  ALA877  MET878  ASN879  SER880 
 SER881  PRO882  VAL883  TYR884  ARG885  LEU886  ASP887  HIS888  THR889  PHE890 
 GLU891  GLN892  ILE893  PRO894  SER895  ARG896  GLN897  LYS898  LYS899  ILE900 
 LEU901  GLU902  GLU903  ALA904  HIS905  GLU906  LEU907  SER908  GLU909  ASP910 
 LYS914 

> <Gold.Score>
     Fitness  S(hb_ext) S(vdw_ext)  S(hb_int)    S(int)      intcor
     77.66       0.81      58.83       0.00      -4.03      -8.43

> <Gold.Goldscore.Fitness>
77.6643

> <Gold.Goldscore.Internal.Vdw>
-9.0232

> <Gold.Goldscore.Internal.Torsion>
-3.4415

> <Gold.Goldscore.External.Vdw>
58.8259

> <Gold.Goldscore.Internal.HBond>
0.0000

> <Gold.Goldscore.External.HBond>
0.8090

> <Gold.Goldscore.Internal.Correction>
-8.4343

> <Gold.Goldscore.Reference.RMSD>
0.6897

> <Gold.Goldscore.Hbonds>
donor molecule, donor type, donor heavy atom, donor atom, acceptor molecule, acceptor atom, score
      L1  H    15    38       P1  2553  0.40

> <Gold.Goldscore.Internal.Vdw.Weighted>
-9.0232

> <Gold.Goldscore.Internal.Torsion.Weighted>
-3.4415

> <Gold.Goldscore.External.Vdw.Weighted>
80.8857

> <Gold.Goldscore.Internal.HBond.Weighted>
0.0000

> <Gold.Goldscore.External.HBond.Weighted>
0.8090

> <Gold.Goldscore.Internal.Correction.Weighted>
-8.4343

> <Gold.Rescore>
     Score         DG    S(hbond)    S(metal)    S(lipo)     H(rot)  DE(clash)    DE(int)     intcor
     32.64     -34.38       0.89        0.00     255.62       1.56       0.75       0.98       ----

> <Gold.Chemscore.Fitness>
32.6440

> <Gold.Chemscore.DG>
-34.3777

> <Gold.Chemscore.ZeroCoef>
-5.4800

> <Gold.Chemscore.Hbond>
0.8948

> <Gold.Chemscore.Metal>
0.0000

> <Gold.Chemscore.Lipo>
255.6198

> <Gold.Chemscore.Internal_Hbond>
0.0000

> <Gold.Chemscore.DEClash>
0.7544

> <Gold.Chemscore.DEInternal>
0.9793

> <Gold.Chemscore.Rot>
1.5619

> <Gold.Chemscore.Internal.Correction>
   9.000000E+99

> <Gold.Chemscore.Reference.RMSD>
0.0000

> <Gold.Chemscore.Hbonds>
donor molecule, donor type, donor heavy atom, donor atom, acceptor molecule, acceptor atom, score
      L1  H    15    38       P1  2553  0.74

> <Gold.Chemscore.Hbond.Weighted>
-2.9887

> <Gold.Chemscore.Metal.Weighted>
-0.0000

> <Gold.Chemscore.Lipo.Weighted>
-29.9075

> <Gold.Chemscore.Internal_Hbond.Weighted>
0.0000

> <Gold.Chemscore.DEClash.Weighted>
0.7544

> <Gold.Chemscore.DEInternal.Weighted>
0.9793

> <Gold.Chemscore.Rot.Weighted>
3.9985

> <Gold.Chemscore.Internal.Correction.Weighted>
   9.000000E+99

> <Gold.Reference.RMSD>
0.6897

#       Name:                crystal
#       Creating user name   hitesit
#       Creation time:       Mon Nov  6 23:22:50 2023


#       File generated by GOLD software.
#

@<TRIPOS>MOLECULE
crystal|crystal_prep|mol2|1|dock3
    52    55     1
SMALL
NO_CHARGES


@<TRIPOS>ATOM
      1 O1          20.0615 -29.2749  48.5155 O.3            1 RES1               0.0000
      2 C2          20.5964 -29.7731  47.3534 C.ar           1 RES1               0.0000
      3 C3          20.9605 -28.9095  49.5532 C.3            1 RES1               0.0000
      4 C4          19.6772 -30.1915  46.3794 C.ar           1 RES1               0.0000
      5 C5          21.9674 -29.8908  47.0991 C.ar           1 RES1               0.0000
      6 O6          18.3504 -30.0589  46.6989 O.3            1 RES1               0.0000
      7 C7          20.1555 -30.7017  45.1711 C.ar           1 RES1               0.0000
      8 C8          22.4547 -30.4027  45.9033 C.ar           1 RES1               0.0000
      9 C9          17.3940 -30.3108  45.6796 C.3            1 RES1               0.0000
     10 C10         21.5482 -30.8027  44.9161 C.ar           1 RES1               0.0000
     11 N11         23.7779 -30.4954  45.7506 N.ar           1 RES1               0.0000
     12 C12         22.1220 -31.2940  43.7289 C.ar           1 RES1               0.0000
     13 C13         24.2294 -31.0040  44.5956 C.ar           1 RES1               0.0000
     14 N14         23.4518 -31.4211  43.5868 N.ar           1 RES1               0.0000
     15 N15         21.3148 -31.7126  42.6798 N.pl3          1 RES1               0.0000
     16 C16         25.7094 -31.1589  44.4379 C.3            1 RES1               0.0000
     17 C17         21.7291 -32.7862  41.7903 C.3            1 RES1               0.0000
     18 C18         21.1902 -34.0869  42.3781 C.ar           1 RES1               0.0000
     19 C19         21.2537 -32.5143  40.3594 C.3            1 RES1               0.0000
     20 C20         22.0177 -35.0508  42.9863 C.ar           1 RES1               0.0000
     21 C21         19.8207 -34.3655  42.2592 C.ar           1 RES1               0.0000
     22 C22         21.5021 -36.2556  43.4972 C.ar           1 RES1               0.0000
     23 C23         19.2914 -35.5528  42.7574 C.ar           1 RES1               0.0000
     24 C24         22.3712 -37.2486  44.1332 C.2            1 RES1               0.0000
     25 C25         20.1252 -36.4872  43.3737 C.ar           1 RES1               0.0000
     26 C26         22.0675 -38.3484  44.8264 C.2            1 RES1               0.0000
     27 C27         23.8595 -37.2223  44.1227 C.3            1 RES1               0.0000
     28 N28         23.1676 -39.0314  45.2683 N.2            1 RES1               0.0000
     29 N29         24.2181 -38.4377  44.8999 N.2            1 RES1               0.0000
     30 H1          20.3970 -28.5340  50.4060 H              1 RES1               0.0000
     31 H2          21.6343 -28.1335  49.1931 H              1 RES1               0.0000
     32 H3          21.5391 -29.7811  49.8556 H              1 RES1               0.0000
     33 H4          22.6746 -29.5708  47.8629 H              1 RES1               0.0000
     34 H5          19.4475 -31.0279  44.4107 H              1 RES1               0.0000
     35 H6          17.5004 -31.3358  45.3272 H              1 RES1               0.0000
     36 H7          16.3912 -30.1667  46.0790 H              1 RES1               0.0000
     37 H8          17.5569 -29.6233  44.8509 H              1 RES1               0.0000
     38 H9          20.4183 -31.2607  42.5307 H              1 RES1               0.0000
     39 H10         25.9279 -31.5806  43.4579 H              1 RES1               0.0000
     40 H11         26.0893 -31.8240  45.2121 H              1 RES1               0.0000
     41 H12         26.1881 -30.1851  44.5289 H              1 RES1               0.0000
     42 H13         22.8171 -32.8328  41.7894 H              1 RES1               0.0000
     43 H14         21.6767 -31.5740  40.0089 H              1 RES1               0.0000
     44 H15         20.1666 -32.4515  40.3438 H              1 RES1               0.0000
     45 H16         21.5800 -33.3240  39.7085 H              1 RES1               0.0000
     46 H17         23.0867 -34.8579  43.0630 H              1 RES1               0.0000
     47 H18         19.1647 -33.6455  41.7722 H              1 RES1               0.0000
     48 H19         18.2248 -35.7529  42.6662 H              1 RES1               0.0000
     49 H20         19.6996 -37.4103  43.7644 H              1 RES1               0.0000
     50 H21         21.0454 -38.6700  45.0208 H              1 RES1               0.0000
     51 H22         24.2389 -36.3227  44.6049 H              1 RES1               0.0000
     52 H23         24.2452 -37.2794  43.1059 H              1 RES1               0.0000
@<TRIPOS>BOND
    1    1    2 1     
    2    1    3 1     
    3    2    4 ar    
    4    2    5 ar    
    5    4    6 1     
    6    4    7 ar    
    7    5    8 ar    
    8    6    9 1     
    9    7   10 ar    
   10    8   11 ar    
   11   10   12 ar    
   12   11   13 ar    
   13   12   14 ar    
   14   12   15 1     
   15   13   16 1     
   16   15   17 1     
   17   17   18 1     
   18   17   19 1     
   19   18   20 ar    
   20   18   21 ar    
   21   20   22 ar    
   22   21   23 ar    
   23   22   24 1     
   24   22   25 ar    
   25   24   26 2     
   26   24   27 1     
   27   26   28 1     
   28   27   29 1     
   29    8   10 ar    
   30   13   14 ar    
   31   23   25 ar    
   32   28   29 2     
   33    3   30 1     
   34    3   31 1     
   35    3   32 1     
   36    5   33 1     
   37    7   34 1     
   38    9   35 1     
   39    9   36 1     
   40    9   37 1     
   41   15   38 1     
   42   16   39 1     
   43   16   40 1     
   44   16   41 1     
   45   17   42 1     
   46   19   43 1     
   47   19   44 1     
   48   19   45 1     
   49   20   46 1     
   50   21   47 1     
   51   23   48 1     
   52   25   49 1     
   53   26   50 1     
   54   27   51 1     
   55   27   52 1     
@<TRIPOS>SUBSTRUCTURE
      1 RES1           1
@<TRIPOS>SET
DONOR_HYDROGENS      STATIC     ATOMS    <user>   **** ""
1 38
ATOM$RED        STATIC     ATOMS    COLORGROUP SYSTEM
1 38
@<TRIPOS>COMMENT
> <Gold.Version>
2022.3.0

> <Gold.Id.Protein>
unknown|5ovf_clean|pdb

> <Gold.Protein.ActiveResidues>
 ILE839  VAL852  ILE856  LEU859  VAL871  LEU872  GLU873  VAL874  VAL875  SER876 
 ALA877  MET878  ASN879  SER880  SER881  PRO882  VAL883  TYR884  ARG885  LEU886 
 ASP887  HIS888  THR889  PHE890  GLU891  GLN892  ILE893  PRO894  SER895  ARG896 
 GLN897  LYS898  LYS899  ILE900  LEU901  GLU902  GLU903  ALA904  HIS905  GLU906 
 LEU907  SER908  GLU909  LYS914  GLU836  ILE839  VAL852  ILE855  ILE856  LEU859 
 GLN863  VAL871  LEU872  VAL874  VAL875  SER876  ALA877  MET878  ASN879  SER880 
 SER881  PRO882  VAL883  TYR884  ARG885  LEU886  ASP887  HIS888  THR889  PHE890 
 GLU891  GLN892  ILE893  PRO894  SER895  ARG896  GLN897  LYS898  LYS899  ILE900 
 LEU901  GLU902  GLU903  ALA904  HIS905  GLU906  LEU907  SER908  GLU909  ASP910 
 LYS914 

> <Gold.Score>
     Fitness  S(hb_ext) S(vdw_ext)  S(hb_int)    S(int)      intcor
     77.58       0.68      58.80       0.00      -3.94      -8.43

> <Gold.Goldscore.Fitness>
77.5780

> <Gold.Goldscore.Internal.Vdw>
-8.9252

> <Gold.Goldscore.Internal.Torsion>
-3.4533

> <Gold.Goldscore.External.Vdw>
58.7952

> <Gold.Goldscore.Internal.HBond>
0.0000

> <Gold.Goldscore.External.HBond>
0.6789

> <Gold.Goldscore.Internal.Correction>
-8.4343

> <Gold.Goldscore.Reference.RMSD>
0.6979

> <Gold.Goldscore.Hbonds>
donor molecule, donor type, donor heavy atom, donor atom, acceptor molecule, acceptor atom, score
      L1  H    15    38       P1  2553  0.34

> <Gold.Goldscore.Internal.Vdw.Weighted>
-8.9252

> <Gold.Goldscore.Internal.Torsion.Weighted>
-3.4533

> <Gold.Goldscore.External.Vdw.Weighted>
80.8434

> <Gold.Goldscore.Internal.HBond.Weighted>
0.0000

> <Gold.Goldscore.External.HBond.Weighted>
0.6789

> <Gold.Goldscore.Internal.Correction.Weighted>
-8.4343

> <Gold.Rescore>
     Score         DG    S(hbond)    S(metal)    S(lipo)     H(rot)  DE(clash)    DE(int)     intcor
     33.26     -34.63       0.91        0.00     257.30       1.56       0.42       0.96       ----

> <Gold.Chemscore.Fitness>
33.2551

> <Gold.Chemscore.DG>
-34.6341

> <Gold.Chemscore.ZeroCoef>
-5.4800

> <Gold.Chemscore.Hbond>
0.9126

> <Gold.Chemscore.Metal>
0.0000

> <Gold.Chemscore.Lipo>
257.3026

> <Gold.Chemscore.Internal_Hbond>
0.0000

> <Gold.Chemscore.DEClash>
0.4224

> <Gold.Chemscore.DEInternal>
0.9566

> <Gold.Chemscore.Rot>
1.5619

> <Gold.Chemscore.Internal.Correction>
   9.000000E+99

> <Gold.Chemscore.Reference.RMSD>
0.0000

> <Gold.Chemscore.Hbonds>
donor molecule, donor type, donor heavy atom, donor atom, acceptor molecule, acceptor atom, score
      L1  H    15    38       P1  2553  0.65

> <Gold.Chemscore.Hbond.Weighted>
-3.0482

> <Gold.Chemscore.Metal.Weighted>
-0.0000

> <Gold.Chemscore.Lipo.Weighted>
-30.1044

> <Gold.Chemscore.Internal_Hbond.Weighted>
0.0000

> <Gold.Chemscore.DEClash.Weighted>
0.4224

> <Gold.Chemscore.DEInternal.Weighted>
0.9566

> <Gold.Chemscore.Rot.Weighted>
3.9985

> <Gold.Chemscore.Internal.Correction.Weighted>
   9.000000E+99

> <Gold.Reference.RMSD>
0.6979

#       Name:                crystal
#       Creating user name   hitesit
#       Creation time:       Mon Nov  6 23:22:56 2023


#       File generated by GOLD software.
#

@<TRIPOS>MOLECULE
crystal|crystal_prep|mol2|1|dock4
    52    55     1
SMALL
NO_CHARGES


@<TRIPOS>ATOM
      1 O1          20.1376 -29.0539  48.4779 O.3            1 RES1               0.0000
      2 C2          20.6525 -29.6232  47.3397 C.ar           1 RES1               0.0000
      3 C3          21.0548 -28.6103  49.4680 C.3            1 RES1               0.0000
      4 C4          19.7179 -30.0435  46.3814 C.ar           1 RES1               0.0000
      5 C5          22.0177 -29.8093  47.0950 C.ar           1 RES1               0.0000
      6 O6          18.3975 -29.8416  46.6908 O.3            1 RES1               0.0000
      7 C7          20.1759 -30.6243  45.1974 C.ar           1 RES1               0.0000
      8 C8          22.4846 -30.3917  45.9236 C.ar           1 RES1               0.0000
      9 C9          17.4326 -30.0966  45.6801 C.3            1 RES1               0.0000
     10 C10         21.5634 -30.7947  44.9514 C.ar           1 RES1               0.0000
     11 N11         23.8029 -30.5465  45.7791 N.ar           1 RES1               0.0000
     12 C12         22.1176 -31.3598  43.7879 C.ar           1 RES1               0.0000
     13 C13         24.2342 -31.1223  44.6482 C.ar           1 RES1               0.0000
     14 N14         23.4410 -31.5488  43.6555 N.ar           1 RES1               0.0000
     15 N15         21.2949 -31.7882  42.7549 N.pl3          1 RES1               0.0000
     16 C16         25.7065 -31.3461  44.5020 C.3            1 RES1               0.0000
     17 C17         21.6858 -32.8855  41.8839 C.3            1 RES1               0.0000
     18 C18         21.1218 -34.1645  42.4954 C.ar           1 RES1               0.0000
     19 C19         21.2135 -32.6293  40.4491 C.3            1 RES1               0.0000
     20 C20         21.9335 -35.1463  43.0962 C.ar           1 RES1               0.0000
     21 C21         19.7427 -34.4043  42.4070 C.ar           1 RES1               0.0000
     22 C22         21.3940 -36.3307  43.6294 C.ar           1 RES1               0.0000
     23 C23         19.1898 -35.5711  42.9276 C.ar           1 RES1               0.0000
     24 C24         22.2470 -37.3425  44.2575 C.2            1 RES1               0.0000
     25 C25         20.0088 -36.5235  43.5361 C.ar           1 RES1               0.0000
     26 C26         21.9262 -38.4230  44.9730 C.2            1 RES1               0.0000
     27 C27         23.7346 -37.3638  44.2102 C.3            1 RES1               0.0000
     28 N28         23.0149 -39.1349  45.3972 N.2            1 RES1               0.0000
     29 N29         24.0741 -38.5797  44.9951 N.2            1 RES1               0.0000
     30 H1          20.5059 -28.1845  50.3066 H              1 RES1               0.0000
     31 H2          21.7110 -27.8530  49.0415 H              1 RES1               0.0000
     32 H3          21.6506 -29.4534  49.8146 H              1 RES1               0.0000
     33 H4          22.7368 -29.4872  47.8468 H              1 RES1               0.0000
     34 H5          19.4558 -30.9525  44.4492 H              1 RES1               0.0000
     35 H6          17.4962 -31.1394  45.3723 H              1 RES1               0.0000
     36 H7          16.4362 -29.8934  46.0699 H              1 RES1               0.0000
     37 H8          17.6255 -29.4528  44.8233 H              1 RES1               0.0000
     38 H9          20.4034 -31.3267  42.6047 H              1 RES1               0.0000
     39 H10         25.9083 -31.8178  43.5414 H              1 RES1               0.0000
     40 H11         26.0569 -31.9931  45.3049 H              1 RES1               0.0000
     41 H12         26.2258 -30.3903  44.5531 H              1 RES1               0.0000
     42 H13         22.7727 -32.9541  41.8822 H              1 RES1               0.0000
     43 H14         21.6547 -31.7041  40.0815 H              1 RES1               0.0000
     44 H15         20.1278 -32.5448  40.4340 H              1 RES1               0.0000
     45 H16         21.5222 -33.4568  39.8121 H              1 RES1               0.0000
     46 H17         23.0090 -34.9837  43.1494 H              1 RES1               0.0000
     47 H18         19.0979 -33.6702  41.9262 H              1 RES1               0.0000
     48 H19         18.1162 -35.7409  42.8599 H              1 RES1               0.0000
     49 H20         19.5649 -37.4301  43.9445 H              1 RES1               0.0000
     50 H21         20.8997 -38.7094  45.1969 H              1 RES1               0.0000
     51 H22         24.1541 -36.4705  44.6706 H              1 RES1               0.0000
     52 H23         24.0930 -37.4463  43.1852 H              1 RES1               0.0000
@<TRIPOS>BOND
    1    1    2 1     
    2    1    3 1     
    3    2    4 ar    
    4    2    5 ar    
    5    4    6 1     
    6    4    7 ar    
    7    5    8 ar    
    8    6    9 1     
    9    7   10 ar    
   10    8   11 ar    
   11   10   12 ar    
   12   11   13 ar    
   13   12   14 ar    
   14   12   15 1     
   15   13   16 1     
   16   15   17 1     
   17   17   18 1     
   18   17   19 1     
   19   18   20 ar    
   20   18   21 ar    
   21   20   22 ar    
   22   21   23 ar    
   23   22   24 1     
   24   22   25 ar    
   25   24   26 2     
   26   24   27 1     
   27   26   28 1     
   28   27   29 1     
   29    8   10 ar    
   30   13   14 ar    
   31   23   25 ar    
   32   28   29 2     
   33    3   30 1     
   34    3   31 1     
   35    3   32 1     
   36    5   33 1     
   37    7   34 1     
   38    9   35 1     
   39    9   36 1     
   40    9   37 1     
   41   15   38 1     
   42   16   39 1     
   43   16   40 1     
   44   16   41 1     
   45   17   42 1     
   46   19   43 1     
   47   19   44 1     
   48   19   45 1     
   49   20   46 1     
   50   21   47 1     
   51   23   48 1     
   52   25   49 1     
   53   26   50 1     
   54   27   51 1     
   55   27   52 1     
@<TRIPOS>SUBSTRUCTURE
      1 RES1           1
@<TRIPOS>SET
DONOR_HYDROGENS      STATIC     ATOMS    <user>   **** ""
1 38
ATOM$RED        STATIC     ATOMS    COLORGROUP SYSTEM
1 38
@<TRIPOS>COMMENT
> <Gold.Version>
2022.3.0

> <Gold.Id.Protein>
unknown|5ovf_clean|pdb

> <Gold.Protein.ActiveResidues>
 ILE839  VAL852  ILE856  LEU859  VAL871  LEU872  GLU873  VAL874  VAL875  SER876 
 ALA877  MET878  ASN879  SER880  SER881  PRO882  VAL883  TYR884  ARG885  LEU886 
 ASP887  HIS888  THR889  PHE890  GLU891  GLN892  ILE893  PRO894  SER895  ARG896 
 GLN897  LYS898  LYS899  ILE900  LEU901  GLU902  GLU903  ALA904  HIS905  GLU906 
 LEU907  SER908  GLU909  LYS914  GLU836  ILE839  VAL852  ILE855  ILE856  LEU859 
 GLN863  VAL871  LEU872  VAL874  VAL875  SER876  ALA877  MET878  ASN879  SER880 
 SER881  PRO882  VAL883  TYR884  ARG885  LEU886  ASP887  HIS888  THR889  PHE890 
 GLU891  GLN892  ILE893  PRO894  SER895  ARG896  GLN897  LYS898  LYS899  ILE900 
 LEU901  GLU902  GLU903  ALA904  HIS905  GLU906  LEU907  SER908  GLU909  ASP910 
 LYS914 

> <Gold.Score>
     Fitness  S(hb_ext) S(vdw_ext)  S(hb_int)    S(int)      intcor
     77.41       0.92      58.41       0.00      -3.83      -8.43

> <Gold.Goldscore.Fitness>
77.4112

> <Gold.Goldscore.Internal.Vdw>
-9.0085

> <Gold.Goldscore.Internal.Torsion>
-3.2566

> <Gold.Goldscore.External.Vdw>
58.4139

> <Gold.Goldscore.Internal.HBond>
0.0000

> <Gold.Goldscore.External.HBond>
0.9229

> <Gold.Goldscore.Internal.Correction>
-8.4343

> <Gold.Goldscore.Reference.RMSD>
0.7204

> <Gold.Goldscore.Hbonds>
donor molecule, donor type, donor heavy atom, donor atom, acceptor molecule, acceptor atom, score
      L1  H    15    38       P1  2553  0.46

> <Gold.Goldscore.Internal.Vdw.Weighted>
-9.0085

> <Gold.Goldscore.Internal.Torsion.Weighted>
-3.2566

> <Gold.Goldscore.External.Vdw.Weighted>
80.3191

> <Gold.Goldscore.Internal.HBond.Weighted>
0.0000

> <Gold.Goldscore.External.HBond.Weighted>
0.9229

> <Gold.Goldscore.Internal.Correction.Weighted>
-8.4343

> <Gold.Rescore>
     Score         DG    S(hbond)    S(metal)    S(lipo)     H(rot)  DE(clash)    DE(int)     intcor
     32.27     -34.77       0.95        0.00     257.50       1.56       1.82       0.69       ----

> <Gold.Chemscore.Fitness>
32.2676

> <Gold.Chemscore.DG>
-34.7713

> <Gold.Chemscore.ZeroCoef>
-5.4800

> <Gold.Chemscore.Hbond>
0.9468

> <Gold.Chemscore.Metal>
0.0000

> <Gold.Chemscore.Lipo>
257.4985

> <Gold.Chemscore.Internal_Hbond>
0.0000

> <Gold.Chemscore.DEClash>
1.8158

> <Gold.Chemscore.DEInternal>
0.6878

> <Gold.Chemscore.Rot>
1.5619

> <Gold.Chemscore.Internal.Correction>
   9.000000E+99

> <Gold.Chemscore.Reference.RMSD>
0.0000

> <Gold.Chemscore.Hbonds>
donor molecule, donor type, donor heavy atom, donor atom, acceptor molecule, acceptor atom, score
      L1  H    15    38       P1  2553  0.77

> <Gold.Chemscore.Hbond.Weighted>
-3.1625

> <Gold.Chemscore.Metal.Weighted>
-0.0000

> <Gold.Chemscore.Lipo.Weighted>
-30.1273

> <Gold.Chemscore.Internal_Hbond.Weighted>
0.0000

> <Gold.Chemscore.DEClash.Weighted>
1.8158

> <Gold.Chemscore.DEInternal.Weighted>
0.6878

> <Gold.Chemscore.Rot.Weighted>
3.9985

> <Gold.Chemscore.Internal.Correction.Weighted>
   9.000000E+99

> <Gold.Reference.RMSD>
0.7204

#       Name:                crystal
#       Creating user name   hitesit
#       Creation time:       Mon Nov  6 23:23:21 2023


#       File generated by GOLD software.
#

@<TRIPOS>MOLECULE
crystal|crystal_prep|mol2|1|dock8
    52    55     1
SMALL
NO_CHARGES


@<TRIPOS>ATOM
      1 O1          19.7112 -29.0839  48.4744 O.3            1 RES1               0.0000
      2 C2          20.2904 -29.6485  47.3651 C.ar           1 RES1               0.0000
      3 C3          20.5685 -28.6692  49.5286 C.3            1 RES1               0.0000
      4 C4          19.4100 -30.1008  46.3707 C.ar           1 RES1               0.0000
      5 C5          21.6693 -29.8005  47.1822 C.ar           1 RES1               0.0000
      6 O6          18.0725 -29.9313  46.6200 O.3            1 RES1               0.0000
      7 C7          19.9346 -30.6789  45.2131 C.ar           1 RES1               0.0000
      8 C8          22.2023 -30.3798  46.0376 C.ar           1 RES1               0.0000
      9 C9          17.1610 -30.2038  45.5653 C.3            1 RES1               0.0000
     10 C10         21.3356 -30.8146  45.0297 C.ar           1 RES1               0.0000
     11 N11         23.5293 -30.5010  45.9525 N.ar           1 RES1               0.0000
     12 C12         21.9550 -31.3742  43.8969 C.ar           1 RES1               0.0000
     13 C13         24.0247 -31.0743  44.8469 C.ar           1 RES1               0.0000
     14 N14         23.2874 -31.5294  43.8244 N.ar           1 RES1               0.0000
     15 N15         21.1900 -31.8323  42.8328 N.pl3          1 RES1               0.0000
     16 C16         25.5074 -31.2604  44.7674 C.3            1 RES1               0.0000
     17 C17         21.6949 -32.8476  41.9219 C.3            1 RES1               0.0000
     18 C18         21.2255 -34.1985  42.4534 C.ar           1 RES1               0.0000
     19 C19         21.2399 -32.5590  40.4876 C.3            1 RES1               0.0000
     20 C20         22.0870 -35.1064  43.0991 C.ar           1 RES1               0.0000
     21 C21         19.8930 -34.5817  42.2415 C.ar           1 RES1               0.0000
     22 C22         21.6381 -36.3582  43.5570 C.ar           1 RES1               0.0000
     23 C23         19.4298 -35.8170  42.6860 C.ar           1 RES1               0.0000
     24 C24         22.5417 -37.2924  44.2328 C.2            1 RES1               0.0000
     25 C25         20.2948 -36.6952  43.3407 C.ar           1 RES1               0.0000
     26 C26         22.2768 -38.3705  44.9743 C.2            1 RES1               0.0000
     27 C27         24.0281 -37.2162  44.2161 C.3            1 RES1               0.0000
     28 N28         23.4003 -38.9959  45.4419 N.2            1 RES1               0.0000
     29 N29         24.4294 -38.3836  45.0445 N.2            1 RES1               0.0000
     30 H1          19.9728 -28.2437  50.3349 H              1 RES1               0.0000
     31 H2          21.2645 -27.9188  49.1566 H              1 RES1               0.0000
     32 H3          21.1253 -29.5272  49.9025 H              1 RES1               0.0000
     33 H4          22.3461 -29.4537  47.9617 H              1 RES1               0.0000
     34 H5          19.2570 -31.0318  44.4372 H              1 RES1               0.0000
     35 H6          17.2632 -31.2432  45.2567 H              1 RES1               0.0000
     36 H7          16.1434 -30.0257  45.9098 H              1 RES1               0.0000
     37 H8          17.3777 -29.5513  44.7207 H              1 RES1               0.0000
     38 H9          20.2604 -31.4514  42.6878 H              1 RES1               0.0000
     39 H10         25.7635 -31.7343  43.8209 H              1 RES1               0.0000
     40 H11         25.8387 -31.8915  45.5907 H              1 RES1               0.0000
     41 H12         25.9990 -30.2908  44.8325 H              1 RES1               0.0000
     42 H13         22.7833 -32.8253  41.9496 H              1 RES1               0.0000
     43 H14         21.6107 -31.5828  40.1786 H              1 RES1               0.0000
     44 H15         20.1518 -32.5646  40.4438 H              1 RES1               0.0000
     45 H16         21.6340 -33.3246  39.8208 H              1 RES1               0.0000
     46 H17         23.1302 -34.8314  43.2481 H              1 RES1               0.0000
     47 H18         19.2137 -33.9059  41.7239 H              1 RES1               0.0000
     48 H19         18.3906 -36.0986  42.5225 H              1 RES1               0.0000
     49 H20         19.9204 -37.6567  43.6887 H              1 RES1               0.0000
     50 H21         21.2667 -38.7178  45.1861 H              1 RES1               0.0000
     51 H22         24.3777 -36.2840  44.6574 H              1 RES1               0.0000
     52 H23         24.4137 -37.3046  43.2015 H              1 RES1               0.0000
@<TRIPOS>BOND
    1    1    2 1     
    2    1    3 1     
    3    2    4 ar    
    4    2    5 ar    
    5    4    6 1     
    6    4    7 ar    
    7    5    8 ar    
    8    6    9 1     
    9    7   10 ar    
   10    8   11 ar    
   11   10   12 ar    
   12   11   13 ar    
   13   12   14 ar    
   14   12   15 1     
   15   13   16 1     
   16   15   17 1     
   17   17   18 1     
   18   17   19 1     
   19   18   20 ar    
   20   18   21 ar    
   21   20   22 ar    
   22   21   23 ar    
   23   22   24 1     
   24   22   25 ar    
   25   24   26 2     
   26   24   27 1     
   27   26   28 1     
   28   27   29 1     
   29    8   10 ar    
   30   13   14 ar    
   31   23   25 ar    
   32   28   29 2     
   33    3   30 1     
   34    3   31 1     
   35    3   32 1     
   36    5   33 1     
   37    7   34 1     
   38    9   35 1     
   39    9   36 1     
   40    9   37 1     
   41   15   38 1     
   42   16   39 1     
   43   16   40 1     
   44   16   41 1     
   45   17   42 1     
   46   19   43 1     
   47   19   44 1     
   48   19   45 1     
   49   20   46 1     
   50   21   47 1     
   51   23   48 1     
   52   25   49 1     
   53   26   50 1     
   54   27   51 1     
   55   27   52 1     
@<TRIPOS>SUBSTRUCTURE
      1 RES1           1
@<TRIPOS>SET
DONOR_HYDROGENS      STATIC     ATOMS    <user>   **** ""
1 38
ATOM$RED        STATIC     ATOMS    COLORGROUP SYSTEM
1 38
@<TRIPOS>COMMENT
> <Gold.Version>
2022.3.0

> <Gold.Id.Protein>
unknown|5ovf_clean|pdb

> <Gold.Protein.ActiveResidues>
 ILE839  VAL852  ILE856  LEU859  VAL871  LEU872  GLU873  VAL874  VAL875  SER876 
 ALA877  MET878  ASN879  SER880  SER881  PRO882  VAL883  TYR884  ARG885  LEU886 
 ASP887  HIS888  THR889  PHE890  GLU891  GLN892  ILE893  PRO894  SER895  ARG896 
 GLN897  LYS898  LYS899  ILE900  LEU901  GLU902  GLU903  ALA904  HIS905  GLU906 
 LEU907  SER908  GLU909  LYS914  GLU836  ILE839  VAL852  ILE855  ILE856  LEU859 
 GLN863  VAL871  LEU872  VAL874  VAL875  SER876  ALA877  MET878  ASN879  SER880 
 SER881  PRO882  VAL883  TYR884  ARG885  LEU886  ASP887  HIS888  THR889  PHE890 
 GLU891  GLN892  ILE893  PRO894  SER895  ARG896  GLN897  LYS898  LYS899  ILE900 
 LEU901  GLU902  GLU903  ALA904  HIS905  GLU906  LEU907  SER908  GLU909  ASP910 
 LYS914 

> <Gold.Score>
     Fitness  S(hb_ext) S(vdw_ext)  S(hb_int)    S(int)      intcor
     76.99       1.46      58.90       0.00      -5.45      -8.43

> <Gold.Goldscore.Fitness>
76.9922

> <Gold.Goldscore.Internal.Vdw>
-10.8032

> <Gold.Goldscore.Internal.Torsion>
-3.0832

> <Gold.Goldscore.External.Vdw>
58.8967

> <Gold.Goldscore.Internal.HBond>
0.0000

> <Gold.Goldscore.External.HBond>
1.4614

> <Gold.Goldscore.Internal.Correction>
-8.4343

> <Gold.Goldscore.Reference.RMSD>
0.6901

> <Gold.Goldscore.Hbonds>
donor molecule, donor type, donor heavy atom, donor atom, acceptor molecule, acceptor atom, score
      L1  H    15    38       P1  2553  0.73

> <Gold.Goldscore.Internal.Vdw.Weighted>
-10.8032

> <Gold.Goldscore.Internal.Torsion.Weighted>
-3.0832

> <Gold.Goldscore.External.Vdw.Weighted>
80.9830

> <Gold.Goldscore.Internal.HBond.Weighted>
0.0000

> <Gold.Goldscore.External.HBond.Weighted>
1.4614

> <Gold.Goldscore.Internal.Correction.Weighted>
-8.4343

> <Gold.Rescore>
     Score         DG    S(hbond)    S(metal)    S(lipo)     H(rot)  DE(clash)    DE(int)     intcor
     34.14     -35.62       0.97        0.00     264.17       1.56       0.47       1.01       ----

> <Gold.Chemscore.Fitness>
34.1427

> <Gold.Chemscore.DG>
-35.6223

> <Gold.Chemscore.ZeroCoef>
-5.4800

> <Gold.Chemscore.Hbond>
0.9681

> <Gold.Chemscore.Metal>
0.0000

> <Gold.Chemscore.Lipo>
264.1668

> <Gold.Chemscore.Internal_Hbond>
0.0000

> <Gold.Chemscore.DEClash>
0.4689

> <Gold.Chemscore.DEInternal>
1.0107

> <Gold.Chemscore.Rot>
1.5619

> <Gold.Chemscore.Internal.Correction>
   9.000000E+99

> <Gold.Chemscore.Reference.RMSD>
0.0000

> <Gold.Chemscore.Hbonds>
donor molecule, donor type, donor heavy atom, donor atom, acceptor molecule, acceptor atom, score
      L1  H    15    38       P1  2553  0.76

> <Gold.Chemscore.Hbond.Weighted>
-3.2333

> <Gold.Chemscore.Metal.Weighted>
-0.0000

> <Gold.Chemscore.Lipo.Weighted>
-30.9075

> <Gold.Chemscore.Internal_Hbond.Weighted>
0.0000

> <Gold.Chemscore.DEClash.Weighted>
0.4689

> <Gold.Chemscore.DEInternal.Weighted>
1.0107

> <Gold.Chemscore.Rot.Weighted>
3.9985

> <Gold.Chemscore.Internal.Correction.Weighted>
   9.000000E+99

> <Gold.Reference.RMSD>
0.6901

#       Name:                crystal
#       Creating user name   hitesit
#       Creation time:       Mon Nov  6 23:23:26 2023


#       File generated by GOLD software.
#

@<TRIPOS>MOLECULE
crystal|crystal_prep|mol2|1|dock9
    52    55     1
SMALL
NO_CHARGES


@<TRIPOS>ATOM
      1 O1          19.9374 -28.9949  48.4402 O.3            1 RES1               0.0000
      2 C2          20.4896 -29.6192  47.3492 C.ar           1 RES1               0.0000
      3 C3          20.8177 -28.5504  49.4629 C.3            1 RES1               0.0000
      4 C4          19.5884 -30.0673  46.3716 C.ar           1 RES1               0.0000
      5 C5          21.8606 -29.8340  47.1693 C.ar           1 RES1               0.0000
      6 O6          18.2597 -29.8345  46.6173 O.3            1 RES1               0.0000
      7 C7          20.0854 -30.7043  45.2330 C.ar           1 RES1               0.0000
      8 C8          22.3659 -30.4721  46.0437 C.ar           1 RES1               0.0000
      9 C9          17.3363 -30.0899  45.5688 C.3            1 RES1               0.0000
     10 C10         21.4791 -30.9037  45.0520 C.ar           1 RES1               0.0000
     11 N11         23.6865 -30.6508  45.9606 N.ar           1 RES1               0.0000
     12 C12         22.0715 -31.5255  43.9373 C.ar           1 RES1               0.0000
     13 C13         24.1546 -31.2801  44.8737 C.ar           1 RES1               0.0000
     14 N14         23.3962 -31.7379  43.8679 N.ar           1 RES1               0.0000
     15 N15         21.2851 -31.9864  42.8902 N.pl3          1 RES1               0.0000
     16 C16         25.6281 -31.5299  44.7981 C.3            1 RES1               0.0000
     17 C17         21.7269 -33.0797  42.0387 C.3            1 RES1               0.0000
     18 C18         21.1569 -34.3655  42.6300 C.ar           1 RES1               0.0000
     19 C19         21.3098 -32.8332  40.5852 C.3            1 RES1               0.0000
     20 C20         21.9517 -35.3167  43.2986 C.ar           1 RES1               0.0000
     21 C21         19.7937 -34.6440  42.4528 C.ar           1 RES1               0.0000
     22 C22         21.4089 -36.5083  43.8121 C.ar           1 RES1               0.0000
     23 C23         19.2378 -35.8185  42.9526 C.ar           1 RES1               0.0000
     24 C24         22.2440 -37.4881  44.5111 C.2            1 RES1               0.0000
     25 C25         20.0387 -36.7400  43.6289 C.ar           1 RES1               0.0000
     26 C26         21.9041 -38.5098  45.3004 C.2            1 RES1               0.0000
     27 C27         23.7310 -37.5385  44.4677 C.3            1 RES1               0.0000
     28 N28         22.9801 -39.2088  45.7753 N.2            1 RES1               0.0000
     29 N29         24.0490 -38.7019  45.3367 N.2            1 RES1               0.0000
     30 H1          20.2420 -28.0783  50.2575 H              1 RES1               0.0000
     31 H2          21.5220 -27.8309  49.0481 H              1 RES1               0.0000
     32 H3          21.3639 -29.4016  49.8668 H              1 RES1               0.0000
     33 H4          22.5533 -29.4899  47.9359 H              1 RES1               0.0000
     34 H5          19.3915 -31.0543  44.4702 H              1 RES1               0.0000
     35 H6          17.3929 -31.1392  45.2828 H              1 RES1               0.0000
     36 H7          16.3277 -29.8605  45.9094 H              1 RES1               0.0000
     37 H8          17.5802 -29.4659  44.7103 H              1 RES1               0.0000
     38 H9          20.3845 -31.5520  42.7154 H              1 RES1               0.0000
     39 H10         25.8617 -32.0449  43.8674 H              1 RES1               0.0000
     40 H11         25.9355 -32.1467  45.6413 H              1 RES1               0.0000
     41 H12         26.1595 -30.5799  44.8304 H              1 RES1               0.0000
     42 H13         22.8138 -33.1326  42.0814 H              1 RES1               0.0000
     43 H14         21.7524 -31.9025  40.2334 H              1 RES1               0.0000
     44 H15         20.2246 -32.7645  40.5256 H              1 RES1               0.0000
     45 H16         21.6560 -33.6575  39.9634 H              1 RES1               0.0000
     46 H17         23.0165 -35.1241  43.4214 H              1 RES1               0.0000
     47 H18         19.1636 -33.9342  41.9189 H              1 RES1               0.0000
     48 H19         18.1761 -36.0185  42.8155 H              1 RES1               0.0000
     49 H20         19.5923 -37.6530  44.0201 H              1 RES1               0.0000
     50 H21         20.8727 -38.7618  45.5423 H              1 RES1               0.0000
     51 H22         24.1659 -36.6224  44.8647 H              1 RES1               0.0000
     52 H23         24.0881 -37.6991  43.4515 H              1 RES1               0.0000
@<TRIPOS>BOND
    1    1    2 1     
    2    1    3 1     
    3    2    4 ar    
    4    2    5 ar    
    5    4    6 1     
    6    4    7 ar    
    7    5    8 ar    
    8    6    9 1     
    9    7   10 ar    
   10    8   11 ar    
   11   10   12 ar    
   12   11   13 ar    
   13   12   14 ar    
   14   12   15 1     
   15   13   16 1     
   16   15   17 1     
   17   17   18 1     
   18   17   19 1     
   19   18   20 ar    
   20   18   21 ar    
   21   20   22 ar    
   22   21   23 ar    
   23   22   24 1     
   24   22   25 ar    
   25   24   26 2     
   26   24   27 1     
   27   26   28 1     
   28   27   29 1     
   29    8   10 ar    
   30   13   14 ar    
   31   23   25 ar    
   32   28   29 2     
   33    3   30 1     
   34    3   31 1     
   35    3   32 1     
   36    5   33 1     
   37    7   34 1     
   38    9   35 1     
   39    9   36 1     
   40    9   37 1     
   41   15   38 1     
   42   16   39 1     
   43   16   40 1     
   44   16   41 1     
   45   17   42 1     
   46   19   43 1     
   47   19   44 1     
   48   19   45 1     
   49   20   46 1     
   50   21   47 1     
   51   23   48 1     
   52   25   49 1     
   53   26   50 1     
   54   27   51 1     
   55   27   52 1     
@<TRIPOS>SUBSTRUCTURE
      1 RES1           1
@<TRIPOS>SET
DONOR_HYDROGENS      STATIC     ATOMS    <user>   **** ""
1 38
ATOM$RED        STATIC     ATOMS    COLORGROUP SYSTEM
1 38
@<TRIPOS>COMMENT
> <Gold.Version>
2022.3.0

> <Gold.Id.Protein>
unknown|5ovf_clean|pdb

> <Gold.Protein.ActiveResidues>
 ILE839  VAL852  ILE856  LEU859  VAL871  LEU872  GLU873  VAL874  VAL875  SER876 
 ALA877  MET878  ASN879  SER880  SER881  PRO882  VAL883  TYR884  ARG885  LEU886 
 ASP887  HIS888  THR889  PHE890  GLU891  GLN892  ILE893  PRO894  SER895  ARG896 
 GLN897  LYS898  LYS899  ILE900  LEU901  GLU902  GLU903  ALA904  HIS905  GLU906 
 LEU907  SER908  GLU909  LYS914  GLU836  ILE839  VAL852  ILE855  ILE856  LEU859 
 GLN863  VAL871  LEU872  VAL874  VAL875  SER876  ALA877  MET878  ASN879  SER880 
 SER881  PRO882  VAL883  TYR884  ARG885  LEU886  ASP887  HIS888  THR889  PHE890 
 GLU891  GLN892  ILE893  PRO894  SER895  ARG896  GLN897  LYS898  LYS899  ILE900 
 LEU901  GLU902  GLU903  ALA904  HIS905  GLU906  LEU907  SER908  GLU909  ASP910 
 LYS914 

> <Gold.Score>
     Fitness  S(hb_ext) S(vdw_ext)  S(hb_int)    S(int)      intcor
     76.78       1.22      58.40       0.00      -4.74      -8.43

> <Gold.Goldscore.Fitness>
76.7847

> <Gold.Goldscore.Internal.Vdw>
-9.9081

> <Gold.Goldscore.Internal.Torsion>
-3.2617

> <Gold.Goldscore.External.Vdw>
58.3977

> <Gold.Goldscore.Internal.HBond>
0.0000

> <Gold.Goldscore.External.HBond>
1.2234

> <Gold.Goldscore.Internal.Correction>
-8.4343

> <Gold.Goldscore.Reference.RMSD>
0.6347

> <Gold.Goldscore.Hbonds>
donor molecule, donor type, donor heavy atom, donor atom, acceptor molecule, acceptor atom, score
      L1  H    15    38       P1  2553  0.61

> <Gold.Goldscore.Internal.Vdw.Weighted>
-9.9081

> <Gold.Goldscore.Internal.Torsion.Weighted>
-3.2617

> <Gold.Goldscore.External.Vdw.Weighted>
80.2969

> <Gold.Goldscore.Internal.HBond.Weighted>
0.0000

> <Gold.Goldscore.External.HBond.Weighted>
1.2234

> <Gold.Goldscore.Internal.Correction.Weighted>
-8.4343

> <Gold.Rescore>
     Score         DG    S(hbond)    S(metal)    S(lipo)     H(rot)  DE(clash)    DE(int)     intcor
     33.73     -35.07       0.98        0.00     259.13       1.56       0.41       0.94       ----

> <Gold.Chemscore.Fitness>
33.7253

> <Gold.Chemscore.DG>
-35.0722

> <Gold.Chemscore.ZeroCoef>
-5.4800

> <Gold.Chemscore.Hbond>
0.9798

> <Gold.Chemscore.Metal>
0.0000

> <Gold.Chemscore.Lipo>
259.1295

> <Gold.Chemscore.Internal_Hbond>
0.0000

> <Gold.Chemscore.DEClash>
0.4067

> <Gold.Chemscore.DEInternal>
0.9402

> <Gold.Chemscore.Rot>
1.5619

> <Gold.Chemscore.Internal.Correction>
   9.000000E+99

> <Gold.Chemscore.Reference.RMSD>
0.0000

> <Gold.Chemscore.Hbonds>
donor molecule, donor type, donor heavy atom, donor atom, acceptor molecule, acceptor atom, score
      L1  H    15    38       P1  2553  0.96

> <Gold.Chemscore.Hbond.Weighted>
-3.2725

> <Gold.Chemscore.Metal.Weighted>
-0.0000

> <Gold.Chemscore.Lipo.Weighted>
-30.3182

> <Gold.Chemscore.Internal_Hbond.Weighted>
0.0000

> <Gold.Chemscore.DEClash.Weighted>
0.4067

> <Gold.Chemscore.DEInternal.Weighted>
0.9402

> <Gold.Chemscore.Rot.Weighted>
3.9985

> <Gold.Chemscore.Internal.Correction.Weighted>
   9.000000E+99

> <Gold.Reference.RMSD>
0.6347

#       Name:                crystal
#       Creating user name   hitesit
#       Creation time:       Mon Nov  6 23:23:14 2023


#       File generated by GOLD software.
#

@<TRIPOS>MOLECULE
crystal|crystal_prep|mol2|1|dock7
    52    55     1
SMALL
NO_CHARGES


@<TRIPOS>ATOM
      1 O1          19.9429 -29.0348  48.5145 O.3            1 RES1               0.0000
      2 C2          20.4808 -29.6080  47.3890 C.ar           1 RES1               0.0000
      3 C3          20.8395 -28.5949  49.5249 C.3            1 RES1               0.0000
      4 C4          19.5644 -30.0748  46.4347 C.ar           1 RES1               0.0000
      5 C5          21.8523 -29.7553  47.1533 C.ar           1 RES1               0.0000
      6 O6          18.2368 -29.9091  46.7349 O.3            1 RES1               0.0000
      7 C7          20.0460 -30.6621  45.2633 C.ar           1 RES1               0.0000
      8 C8          22.3428 -30.3437  45.9946 C.ar           1 RES1               0.0000
      9 C9          17.2829 -30.2677  45.7454 C.3            1 RES1               0.0000
     10 C10         21.4394 -30.7930  45.0261 C.ar           1 RES1               0.0000
     11 N11         23.6660 -30.4594  45.8585 N.ar           1 RES1               0.0000
     12 C12         22.0165 -31.3613  43.8754 C.ar           1 RES1               0.0000
     13 C13         24.1205 -31.0417  44.7400 C.ar           1 RES1               0.0000
     14 N14         23.3458 -31.5108  43.7520 N.ar           1 RES1               0.0000
     15 N15         21.2125 -31.8340  42.8471 N.pl3          1 RES1               0.0000
     16 C16         25.5998 -31.2215  44.6039 C.3            1 RES1               0.0000
     17 C17         21.7007 -32.8263  41.9023 C.3            1 RES1               0.0000
     18 C18         21.2437 -34.1904  42.4105 C.ar           1 RES1               0.0000
     19 C19         21.2172 -32.5044  40.4846 C.3            1 RES1               0.0000
     20 C20         22.1204 -35.1148  43.0108 C.ar           1 RES1               0.0000
     21 C21         19.9059 -34.5677  42.2224 C.ar           1 RES1               0.0000
     22 C22         21.6821 -36.3780  43.4474 C.ar           1 RES1               0.0000
     23 C23         19.4530 -35.8139  42.6465 C.ar           1 RES1               0.0000
     24 C24         22.6016 -37.3295  44.0759 C.2            1 RES1               0.0000
     25 C25         20.3335 -36.7089  43.2564 C.ar           1 RES1               0.0000
     26 C26         22.3546 -38.4344  44.7834 C.2            1 RES1               0.0000
     27 C27         24.0871 -37.2434  44.0387 C.3            1 RES1               0.0000
     28 N28         23.4889 -39.0686  45.2112 N.2            1 RES1               0.0000
     29 N29         24.5081 -38.4364  44.8194 N.2            1 RES1               0.0000
     30 H1          20.2737 -28.1653  50.3503 H              1 RES1               0.0000
     31 H2          21.5093 -27.8415  49.1129 H              1 RES1               0.0000
     32 H3          21.4227 -29.4407  49.8860 H              1 RES1               0.0000
     33 H4          22.5574 -29.3972  47.9021 H              1 RES1               0.0000
     34 H5          19.3401 -31.0263  44.5183 H              1 RES1               0.0000
     35 H6          17.3901 -31.3242  45.5039 H              1 RES1               0.0000
     36 H7          16.2791 -30.0820  46.1247 H              1 RES1               0.0000
     37 H8          17.4482 -29.6717  44.8490 H              1 RES1               0.0000
     38 H9          20.2658 -31.4803  42.7526 H              1 RES1               0.0000
     39 H10         25.8209 -31.7039  43.6530 H              1 RES1               0.0000
     40 H11         25.9666 -31.8425  45.4199 H              1 RES1               0.0000
     41 H12         26.0885 -30.2490  44.6398 H              1 RES1               0.0000
     42 H13         22.7894 -32.8028  41.9092 H              1 RES1               0.0000
     43 H14         21.5805 -31.5205  40.1918 H              1 RES1               0.0000
     44 H15         20.1284 -32.5109  40.4621 H              1 RES1               0.0000
     45 H16         21.5990 -33.2531  39.7921 H              1 RES1               0.0000
     46 H17         23.1672 -34.8440  43.1405 H              1 RES1               0.0000
     47 H18         19.2145 -33.8786  41.7398 H              1 RES1               0.0000
     48 H19         18.4097 -36.0910  42.5021 H              1 RES1               0.0000
     49 H20         19.9671 -37.6790  43.5889 H              1 RES1               0.0000
     50 H21         21.3500 -38.7951  44.9986 H              1 RES1               0.0000
     51 H22         24.4382 -36.3250  44.5068 H              1 RES1               0.0000
     52 H23         24.4571 -37.2940  43.0157 H              1 RES1               0.0000
@<TRIPOS>BOND
    1    1    2 1     
    2    1    3 1     
    3    2    4 ar    
    4    2    5 ar    
    5    4    6 1     
    6    4    7 ar    
    7    5    8 ar    
    8    6    9 1     
    9    7   10 ar    
   10    8   11 ar    
   11   10   12 ar    
   12   11   13 ar    
   13   12   14 ar    
   14   12   15 1     
   15   13   16 1     
   16   15   17 1     
   17   17   18 1     
   18   17   19 1     
   19   18   20 ar    
   20   18   21 ar    
   21   20   22 ar    
   22   21   23 ar    
   23   22   24 1     
   24   22   25 ar    
   25   24   26 2     
   26   24   27 1     
   27   26   28 1     
   28   27   29 1     
   29    8   10 ar    
   30   13   14 ar    
   31   23   25 ar    
   32   28   29 2     
   33    3   30 1     
   34    3   31 1     
   35    3   32 1     
   36    5   33 1     
   37    7   34 1     
   38    9   35 1     
   39    9   36 1     
   40    9   37 1     
   41   15   38 1     
   42   16   39 1     
   43   16   40 1     
   44   16   41 1     
   45   17   42 1     
   46   19   43 1     
   47   19   44 1     
   48   19   45 1     
   49   20   46 1     
   50   21   47 1     
   51   23   48 1     
   52   25   49 1     
   53   26   50 1     
   54   27   51 1     
   55   27   52 1     
@<TRIPOS>SUBSTRUCTURE
      1 RES1           1
@<TRIPOS>SET
DONOR_HYDROGENS      STATIC     ATOMS    <user>   **** ""
1 38
ATOM$RED        STATIC     ATOMS    COLORGROUP SYSTEM
1 38
@<TRIPOS>COMMENT
> <Gold.Version>
2022.3.0

> <Gold.Id.Protein>
unknown|5ovf_clean|pdb

> <Gold.Protein.ActiveResidues>
 ILE839  VAL852  ILE856  LEU859  VAL871  LEU872  GLU873  VAL874  VAL875  SER876 
 ALA877  MET878  ASN879  SER880  SER881  PRO882  VAL883  TYR884  ARG885  LEU886 
 ASP887  HIS888  THR889  PHE890  GLU891  GLN892  ILE893  PRO894  SER895  ARG896 
 GLN897  LYS898  LYS899  ILE900  LEU901  GLU902  GLU903  ALA904  HIS905  GLU906 
 LEU907  SER908  GLU909  LYS914  GLU836  ILE839  VAL852  ILE855  ILE856  LEU859 
 GLN863  VAL871  LEU872  VAL874  VAL875  SER876  ALA877  MET878  ASN879  SER880 
 SER881  PRO882  VAL883  TYR884  ARG885  LEU886  ASP887  HIS888  THR889  PHE890 
 GLU891  GLN892  ILE893  PRO894  SER895  ARG896  GLN897  LYS898  LYS899  ILE900 
 LEU901  GLU902  GLU903  ALA904  HIS905  GLU906  LEU907  SER908  GLU909  ASP910 
 LYS914 

> <Gold.Score>
     Fitness  S(hb_ext) S(vdw_ext)  S(hb_int)    S(int)      intcor
     76.50       1.57      58.49       0.00      -5.50      -8.43

> <Gold.Goldscore.Fitness>
76.5020

> <Gold.Goldscore.Internal.Vdw>
-11.0792

> <Gold.Goldscore.Internal.Torsion>
-2.8505

> <Gold.Goldscore.External.Vdw>
58.4927

> <Gold.Goldscore.Internal.HBond>
0.0000

> <Gold.Goldscore.External.HBond>
1.5698

> <Gold.Goldscore.Internal.Correction>
-8.4343

> <Gold.Goldscore.Reference.RMSD>
0.6186

> <Gold.Goldscore.Hbonds>
donor molecule, donor type, donor heavy atom, donor atom, acceptor molecule, acceptor atom, score
      L1  H    15    38       P1  2553  0.78

> <Gold.Goldscore.Internal.Vdw.Weighted>
-11.0792

> <Gold.Goldscore.Internal.Torsion.Weighted>
-2.8505

> <Gold.Goldscore.External.Vdw.Weighted>
80.4275

> <Gold.Goldscore.Internal.HBond.Weighted>
0.0000

> <Gold.Goldscore.External.HBond.Weighted>
1.5698

> <Gold.Goldscore.Internal.Correction.Weighted>
-8.4343

> <Gold.Rescore>
     Score         DG    S(hbond)    S(metal)    S(lipo)     H(rot)  DE(clash)    DE(int)     intcor
     34.40     -35.72       0.98        0.00     264.61       1.56       0.32       1.01       ----

> <Gold.Chemscore.Fitness>
34.3979

> <Gold.Chemscore.DG>
-35.7213

> <Gold.Chemscore.ZeroCoef>
-5.4800

> <Gold.Chemscore.Hbond>
0.9821

> <Gold.Chemscore.Metal>
0.0000

> <Gold.Chemscore.Lipo>
264.6107

> <Gold.Chemscore.Internal_Hbond>
0.0000

> <Gold.Chemscore.DEClash>
0.3171

> <Gold.Chemscore.DEInternal>
1.0062

> <Gold.Chemscore.Rot>
1.5619

> <Gold.Chemscore.Internal.Correction>
   9.000000E+99

> <Gold.Chemscore.Reference.RMSD>
0.0000

> <Gold.Chemscore.Hbonds>
donor molecule, donor type, donor heavy atom, donor atom, acceptor molecule, acceptor atom, score
      L1  H    15    38       P1  2553  0.81

> <Gold.Chemscore.Hbond.Weighted>
-3.2803

> <Gold.Chemscore.Metal.Weighted>
-0.0000

> <Gold.Chemscore.Lipo.Weighted>
-30.9594

> <Gold.Chemscore.Internal_Hbond.Weighted>
0.0000

> <Gold.Chemscore.DEClash.Weighted>
0.3171

> <Gold.Chemscore.DEInternal.Weighted>
1.0062

> <Gold.Chemscore.Rot.Weighted>
3.9985

> <Gold.Chemscore.Internal.Correction.Weighted>
   9.000000E+99

> <Gold.Reference.RMSD>
0.6186

#       Name:                crystal
#       Creating user name   hitesit
#       Creation time:       Mon Nov  6 23:23:32 2023


#       File generated by GOLD software.
#

@<TRIPOS>MOLECULE
crystal|crystal_prep|mol2|1|dock10
    52    55     1
SMALL
NO_CHARGES


@<TRIPOS>ATOM
      1 O1          20.0950 -28.4299  48.3670 O.3            1 RES1               0.0000
      2 C2          20.6670 -29.1501  47.3478 C.ar           1 RES1               0.0000
      3 C3          20.9630 -27.7700  49.2778 C.3            1 RES1               0.0000
      4 C4          19.7797 -29.7643  46.4512 C.ar           1 RES1               0.0000
      5 C5          22.0455 -29.3072  47.1656 C.ar           1 RES1               0.0000
      6 O6          18.4433 -29.5790  46.6956 O.3            1 RES1               0.0000
      7 C7          20.2966 -30.5061  45.3874 C.ar           1 RES1               0.0000
      8 C8          22.5711 -30.0481  46.1147 C.ar           1 RES1               0.0000
      9 C9          17.5182 -30.0871  45.7452 C.3            1 RES1               0.0000
     10 C10         21.6969 -30.6469  45.2018 C.ar           1 RES1               0.0000
     11 N11         23.8986 -30.1604  46.0253 N.ar           1 RES1               0.0000
     12 C12         22.3086 -31.3652  44.1578 C.ar           1 RES1               0.0000
     13 C13         24.3871 -30.8900  45.0126 C.ar           1 RES1               0.0000
     14 N14         23.6423 -31.5090  44.0860 N.ar           1 RES1               0.0000
     15 N15         21.5356 -31.9941  43.1913 N.pl3          1 RES1               0.0000
     16 C16         25.8714 -31.0631  44.9358 C.3            1 RES1               0.0000
     17 C17         22.1348 -32.8739  42.2001 C.3            1 RES1               0.0000
     18 C18         22.1637 -34.2744  42.8046 C.ar           1 RES1               0.0000
     19 C19         21.3710 -32.7917  40.8745 C.3            1 RES1               0.0000
     20 C20         21.0661 -34.8350  43.4862 C.ar           1 RES1               0.0000
     21 C21         23.3511 -35.0174  42.7310 C.ar           1 RES1               0.0000
     22 C22         21.1248 -36.1181  44.0593 C.ar           1 RES1               0.0000
     23 C23         23.4296 -36.2887  43.2930 C.ar           1 RES1               0.0000
     24 C24         19.9750 -36.6938  44.7609 C.2            1 RES1               0.0000
     25 C25         22.3246 -36.8344  43.9481 C.ar           1 RES1               0.0000
     26 C26         18.6669 -36.5804  44.5189 C.2            1 RES1               0.0000
     27 C27         20.0505 -37.5793  45.9550 C.3            1 RES1               0.0000
     28 N28         17.8897 -37.2741  45.4057 N.2            1 RES1               0.0000
     29 N29         18.6210 -37.8624  46.2489 N.2            1 RES1               0.0000
     30 H1          20.3719 -27.2435  50.0258 H              1 RES1               0.0000
     31 H2          21.5826 -27.0565  48.7366 H              1 RES1               0.0000
     32 H3          21.5996 -28.5042  49.7692 H              1 RES1               0.0000
     33 H4          22.7278 -28.8336  47.8699 H              1 RES1               0.0000
     34 H5          19.6136 -30.9852  44.6877 H              1 RES1               0.0000
     35 H6          17.6441 -31.1652  45.6564 H              1 RES1               0.0000
     36 H7          16.5033 -29.8659  46.0723 H              1 RES1               0.0000
     37 H8          17.6978 -29.6198  44.7781 H              1 RES1               0.0000
     38 H9          20.5329 -31.8368  43.1760 H              1 RES1               0.0000
     39 H10         26.1214 -31.6736  44.0694 H              1 RES1               0.0000
     40 H11         26.2269 -31.5542  45.8406 H              1 RES1               0.0000
     41 H12         26.3464 -30.0877  44.8417 H              1 RES1               0.0000
     42 H13         23.1605 -32.5513  42.0278 H              1 RES1               0.0000
     43 H14         21.3932 -31.7673  40.5057 H              1 RES1               0.0000
     44 H15         20.3380 -33.0989  41.0311 H              1 RES1               0.0000
     45 H16         21.8390 -33.4505  40.1445 H              1 RES1               0.0000
     46 H17         20.1461 -34.2587  43.5720 H              1 RES1               0.0000
     47 H18         24.2205 -34.5955  42.2290 H              1 RES1               0.0000
     48 H19         24.3549 -36.8584  43.2213 H              1 RES1               0.0000
     49 H20         22.3955 -37.8318  44.3795 H              1 RES1               0.0000
     50 H21         18.2591 -35.9938  43.6971 H              1 RES1               0.0000
     51 H22         20.5289 -37.0705  46.7905 H              1 RES1               0.0000
     52 H23         20.5932 -38.4960  45.7293 H              1 RES1               0.0000
@<TRIPOS>BOND
    1    1    2 1     
    2    1    3 1     
    3    2    4 ar    
    4    2    5 ar    
    5    4    6 1     
    6    4    7 ar    
    7    5    8 ar    
    8    6    9 1     
    9    7   10 ar    
   10    8   11 ar    
   11   10   12 ar    
   12   11   13 ar    
   13   12   14 ar    
   14   12   15 1     
   15   13   16 1     
   16   15   17 1     
   17   17   18 1     
   18   17   19 1     
   19   18   20 ar    
   20   18   21 ar    
   21   20   22 ar    
   22   21   23 ar    
   23   22   24 1     
   24   22   25 ar    
   25   24   26 2     
   26   24   27 1     
   27   26   28 1     
   28   27   29 1     
   29    8   10 ar    
   30   13   14 ar    
   31   23   25 ar    
   32   28   29 2     
   33    3   30 1     
   34    3   31 1     
   35    3   32 1     
   36    5   33 1     
   37    7   34 1     
   38    9   35 1     
   39    9   36 1     
   40    9   37 1     
   41   15   38 1     
   42   16   39 1     
   43   16   40 1     
   44   16   41 1     
   45   17   42 1     
   46   19   43 1     
   47   19   44 1     
   48   19   45 1     
   49   20   46 1     
   50   21   47 1     
   51   23   48 1     
   52   25   49 1     
   53   26   50 1     
   54   27   51 1     
   55   27   52 1     
@<TRIPOS>SUBSTRUCTURE
      1 RES1           1
@<TRIPOS>SET
DONOR_HYDROGENS      STATIC     ATOMS    <user>   **** ""
1 38
ATOM$RED        STATIC     ATOMS    COLORGROUP SYSTEM
1 38
@<TRIPOS>COMMENT
> <Gold.Version>
2022.3.0

> <Gold.Id.Protein>
unknown|5ovf_clean|pdb

> <Gold.Protein.ActiveResidues>
 ILE839  VAL852  ILE856  LEU859  VAL871  LEU872  GLU873  VAL874  VAL875  SER876 
 ALA877  MET878  ASN879  SER880  SER881  PRO882  VAL883  TYR884  ARG885  LEU886 
 ASP887  HIS888  THR889  PHE890  GLU891  GLN892  ILE893  PRO894  SER895  ARG896 
 GLN897  LYS898  LYS899  ILE900  LEU901  GLU902  GLU903  ALA904  HIS905  GLU906 
 LEU907  SER908  GLU909  LYS914  GLU836  ILE839  VAL852  ILE855  ILE856  LEU859 
 GLN863  VAL871  LEU872  VAL874  VAL875  SER876  ALA877  MET878  ASN879  SER880 
 SER881  PRO882  VAL883  TYR884  ARG885  LEU886  ASP887  HIS888  THR889  PHE890 
 GLU891  GLN892  ILE893  PRO894  SER895  ARG896  GLN897  LYS898  LYS899  ILE900 
 LEU901  GLU902  GLU903  ALA904  HIS905  GLU906  LEU907  SER908  GLU909  ASP910 
 LYS914 

> <Gold.Score>
     Fitness  S(hb_ext) S(vdw_ext)  S(hb_int)    S(int)      intcor
     73.59       1.92      56.12       0.00      -5.50      -8.43

> <Gold.Goldscore.Fitness>
73.5872

> <Gold.Goldscore.Internal.Vdw>
-10.1903

> <Gold.Goldscore.Internal.Torsion>
-3.7433

> <Gold.Goldscore.External.Vdw>
56.1236

> <Gold.Goldscore.Internal.HBond>
0.0000

> <Gold.Goldscore.External.HBond>
1.9166

> <Gold.Goldscore.Internal.Correction>
-8.4343

> <Gold.Goldscore.Reference.RMSD>
2.1936

> <Gold.Goldscore.Hbonds>
donor molecule, donor type, donor heavy atom, donor atom, acceptor molecule, acceptor atom, score
      L1  H    15    38       P1  2553  0.96

> <Gold.Goldscore.Internal.Vdw.Weighted>
-10.1903

> <Gold.Goldscore.Internal.Torsion.Weighted>
-3.7433

> <Gold.Goldscore.External.Vdw.Weighted>
77.1700

> <Gold.Goldscore.Internal.HBond.Weighted>
0.0000

> <Gold.Goldscore.External.HBond.Weighted>
1.9166

> <Gold.Goldscore.Internal.Correction.Weighted>
-8.4343

> <Gold.Rescore>
     Score         DG    S(hbond)    S(metal)    S(lipo)     H(rot)  DE(clash)    DE(int)     intcor
     30.54     -33.35       1.00        0.00     243.88       1.56       1.69       1.13       ----

> <Gold.Chemscore.Fitness>
30.5384

> <Gold.Chemscore.DG>
-33.3511

> <Gold.Chemscore.ZeroCoef>
-5.4800

> <Gold.Chemscore.Hbond>
0.9986

> <Gold.Chemscore.Metal>
0.0000

> <Gold.Chemscore.Lipo>
243.8827

> <Gold.Chemscore.Internal_Hbond>
0.0000

> <Gold.Chemscore.DEClash>
1.6854

> <Gold.Chemscore.DEInternal>
1.1274

> <Gold.Chemscore.Rot>
1.5619

> <Gold.Chemscore.Internal.Correction>
   9.000000E+99

> <Gold.Chemscore.Reference.RMSD>
0.0000

> <Gold.Chemscore.Hbonds>
donor molecule, donor type, donor heavy atom, donor atom, acceptor molecule, acceptor atom, score
      L1  H    15    38       P1  2553  1.00

> <Gold.Chemscore.Hbond.Weighted>
-3.3353

> <Gold.Chemscore.Metal.Weighted>
-0.0000

> <Gold.Chemscore.Lipo.Weighted>
-28.5343

> <Gold.Chemscore.Internal_Hbond.Weighted>
0.0000

> <Gold.Chemscore.DEClash.Weighted>
1.6854

> <Gold.Chemscore.DEInternal.Weighted>
1.1274

> <Gold.Chemscore.Rot.Weighted>
3.9985

> <Gold.Chemscore.Internal.Correction.Weighted>
   9.000000E+99

> <Gold.Reference.RMSD>
2.1936

#       Name:                crystal
#       Creating user name   hitesit
#       Creation time:       Mon Nov  6 23:23:02 2023


#       File generated by GOLD software.
#

@<TRIPOS>MOLECULE
crystal|crystal_prep|mol2|1|dock5
    52    55     1
SMALL
NO_CHARGES


@<TRIPOS>ATOM
      1 O1          20.3978 -41.8006  49.9718 O.3            1 RES1               0.0000
      2 C2          21.1367 -41.0252  49.1131 C.ar           1 RES1               0.0000
      3 C3          21.0748 -42.8265  50.6844 C.3            1 RES1               0.0000
      4 C4          20.4255 -40.0596  48.3848 C.ar           1 RES1               0.0000
      5 C5          22.5178 -41.1480  48.9242 C.ar           1 RES1               0.0000
      6 O6          19.0743 -40.0018  48.6100 O.3            1 RES1               0.0000
      7 C7          21.1187 -39.2327  47.4988 C.ar           1 RES1               0.0000
      8 C8          23.2169 -40.3353  48.0409 C.ar           1 RES1               0.0000
      9 C9          18.3398 -38.9639  47.9769 C.3            1 RES1               0.0000
     10 C10         22.5223 -39.3545  47.3255 C.ar           1 RES1               0.0000
     11 N11         24.5310 -40.5318  47.9096 N.ar           1 RES1               0.0000
     12 C12         23.3050 -38.5627  46.4650 C.ar           1 RES1               0.0000
     13 C13         25.1865 -39.7470  47.0431 C.ar           1 RES1               0.0000
     14 N14         24.6208 -38.7819  46.3049 N.ar           1 RES1               0.0000
     15 N15         22.7193 -37.5544  45.7118 N.pl3          1 RES1               0.0000
     16 C16         26.6497 -39.9958  46.8524 C.3            1 RES1               0.0000
     17 C17         22.7483 -37.5842  44.2579 C.3            1 RES1               0.0000
     18 C18         21.5276 -36.8094  43.7704 C.ar           1 RES1               0.0000
     19 C19         24.0775 -37.0311  43.7338 C.3            1 RES1               0.0000
     20 C20         21.6257 -35.6503  42.9764 C.ar           1 RES1               0.0000
     21 C21         20.2531 -37.2328  44.1751 C.ar           1 RES1               0.0000
     22 C22         20.4871 -34.9366  42.5610 C.ar           1 RES1               0.0000
     23 C23         19.1141 -36.5391  43.7756 C.ar           1 RES1               0.0000
     24 C24         20.6005 -33.7355  41.7302 C.2            1 RES1               0.0000
     25 C25         19.2312 -35.4033  42.9730 C.ar           1 RES1               0.0000
     26 C26         19.6600 -33.0190  41.1102 C.2            1 RES1               0.0000
     27 C27         21.8712 -33.0337  41.4008 C.3            1 RES1               0.0000
     28 N28         20.1609 -31.9494  40.4196 N.2            1 RES1               0.0000
     29 N29         21.4155 -31.9061  40.5461 N.2            1 RES1               0.0000
     30 H1          20.3665 -43.3542  51.3213 H              1 RES1               0.0000
     31 H2          21.8575 -42.3852  51.2996 H              1 RES1               0.0000
     32 H3          21.5193 -43.5262  49.9782 H              1 RES1               0.0000
     33 H4          23.0618 -41.9048  49.4876 H              1 RES1               0.0000
     34 H5          20.5729 -38.4810  46.9306 H              1 RES1               0.0000
     35 H6          18.4444 -39.0521  46.8965 H              1 RES1               0.0000
     36 H7          17.2882 -39.0460  48.2477 H              1 RES1               0.0000
     37 H8          18.7237 -37.9977  48.3012 H              1 RES1               0.0000
     38 H9          22.2620 -36.7815  46.1848 H              1 RES1               0.0000
     39 H10         27.0465 -39.2886  46.1255 H              1 RES1               0.0000
     40 H11         26.8011 -41.0117  46.4905 H              1 RES1               0.0000
     41 H12         27.1665 -39.8681  47.8024 H              1 RES1               0.0000
     42 H13         22.6527 -38.6189  43.9321 H              1 RES1               0.0000
     43 H14         24.8988 -37.6318  44.1219 H              1 RES1               0.0000
     44 H15         24.1958 -35.9993  44.0617 H              1 RES1               0.0000
     45 H16         24.0826 -37.0691  42.6455 H              1 RES1               0.0000
     46 H17         22.6108 -35.2968  42.6756 H              1 RES1               0.0000
     47 H18         20.1536 -38.1131  44.8084 H              1 RES1               0.0000
     48 H19         18.1299 -36.8835  44.0898 H              1 RES1               0.0000
     49 H20         18.3332 -34.8715  42.6620 H              1 RES1               0.0000
     50 H21         18.5992 -33.2620  41.1501 H              1 RES1               0.0000
     51 H22         22.5505 -33.6881  40.8566 H              1 RES1               0.0000
     52 H23         22.3624 -32.6690  42.3017 H              1 RES1               0.0000
@<TRIPOS>BOND
    1    1    2 1     
    2    1    3 1     
    3    2    4 ar    
    4    2    5 ar    
    5    4    6 1     
    6    4    7 ar    
    7    5    8 ar    
    8    6    9 1     
    9    7   10 ar    
   10    8   11 ar    
   11   10   12 ar    
   12   11   13 ar    
   13   12   14 ar    
   14   12   15 1     
   15   13   16 1     
   16   15   17 1     
   17   17   18 1     
   18   17   19 1     
   19   18   20 ar    
   20   18   21 ar    
   21   20   22 ar    
   22   21   23 ar    
   23   22   24 1     
   24   22   25 ar    
   25   24   26 2     
   26   24   27 1     
   27   26   28 1     
   28   27   29 1     
   29    8   10 ar    
   30   13   14 ar    
   31   23   25 ar    
   32   28   29 2     
   33    3   30 1     
   34    3   31 1     
   35    3   32 1     
   36    5   33 1     
   37    7   34 1     
   38    9   35 1     
   39    9   36 1     
   40    9   37 1     
   41   15   38 1     
   42   16   39 1     
   43   16   40 1     
   44   16   41 1     
   45   17   42 1     
   46   19   43 1     
   47   19   44 1     
   48   19   45 1     
   49   20   46 1     
   50   21   47 1     
   51   23   48 1     
   52   25   49 1     
   53   26   50 1     
   54   27   51 1     
   55   27   52 1     
@<TRIPOS>SUBSTRUCTURE
      1 RES1           1
@<TRIPOS>SET
DONOR_HYDROGENS      STATIC     ATOMS    <user>   **** ""
1 38
ATOM$RED        STATIC     ATOMS    COLORGROUP SYSTEM
1 38
@<TRIPOS>COMMENT
> <Gold.Version>
2022.3.0

> <Gold.Id.Protein>
unknown|5ovf_clean|pdb

> <Gold.Protein.ActiveResidues>
 ILE839  VAL852  ILE856  LEU859  VAL871  LEU872  GLU873  VAL874  VAL875  SER876 
 ALA877  MET878  ASN879  SER880  SER881  PRO882  VAL883  TYR884  ARG885  LEU886 
 ASP887  HIS888  THR889  PHE890  GLU891  GLN892  ILE893  PRO894  SER895  ARG896 
 GLN897  LYS898  LYS899  ILE900  LEU901  GLU902  GLU903  ALA904  HIS905  GLU906 
 LEU907  SER908  GLU909  LYS914  GLU836  ILE839  VAL852  ILE855  ILE856  LEU859 
 GLN863  VAL871  LEU872  VAL874  VAL875  SER876  ALA877  MET878  ASN879  SER880 
 SER881  PRO882  VAL883  TYR884  ARG885  LEU886  ASP887  HIS888  THR889  PHE890 
 GLU891  GLN892  ILE893  PRO894  SER895  ARG896  GLN897  LYS898  LYS899  ILE900 
 LEU901  GLU902  GLU903  ALA904  HIS905  GLU906  LEU907  SER908  GLU909  ASP910 
 LYS914 

> <Gold.Score>
     Fitness  S(hb_ext) S(vdw_ext)  S(hb_int)    S(int)      intcor
     65.57       0.00      51.24       0.00      -4.89      -8.43

> <Gold.Goldscore.Fitness>
65.5660

> <Gold.Goldscore.Internal.Vdw>
-6.7172

> <Gold.Goldscore.Internal.Torsion>
-6.6075

> <Gold.Goldscore.External.Vdw>
51.2410

> <Gold.Goldscore.Internal.HBond>
0.0000

> <Gold.Goldscore.External.HBond>
0.0000

> <Gold.Goldscore.Internal.Correction>
-8.4343

> <Gold.Goldscore.Reference.RMSD>
8.4129

> <Gold.Goldscore.Internal.Vdw.Weighted>
-6.7172

> <Gold.Goldscore.Internal.Torsion.Weighted>
-6.6075

> <Gold.Goldscore.External.Vdw.Weighted>
70.4564

> <Gold.Goldscore.Internal.HBond.Weighted>
0.0000

> <Gold.Goldscore.External.HBond.Weighted>
0.0000

> <Gold.Goldscore.Internal.Correction.Weighted>
-8.4343

> <Gold.Rescore>
     Score         DG    S(hbond)    S(metal)    S(lipo)     H(rot)  DE(clash)    DE(int)     intcor
     27.73     -34.02       0.00        0.00     278.11       1.56       5.27       1.02       ----

> <Gold.Chemscore.Fitness>
27.7296

> <Gold.Chemscore.DG>
-34.0199

> <Gold.Chemscore.ZeroCoef>
-5.4800

> <Gold.Chemscore.Hbond>
0.0000

> <Gold.Chemscore.Metal>
0.0000

> <Gold.Chemscore.Lipo>
278.1055

> <Gold.Chemscore.Internal_Hbond>
0.0000

> <Gold.Chemscore.DEClash>
5.2734

> <Gold.Chemscore.DEInternal>
1.0169

> <Gold.Chemscore.Rot>
1.5619

> <Gold.Chemscore.Internal.Correction>
   9.000000E+99

> <Gold.Chemscore.Reference.RMSD>
0.0000

> <Gold.Chemscore.Hbond.Weighted>
-0.0000

> <Gold.Chemscore.Metal.Weighted>
-0.0000

> <Gold.Chemscore.Lipo.Weighted>
-32.5383

> <Gold.Chemscore.Internal_Hbond.Weighted>
0.0000

> <Gold.Chemscore.DEClash.Weighted>
5.2734

> <Gold.Chemscore.DEInternal.Weighted>
1.0169

> <Gold.Chemscore.Rot.Weighted>
3.9985

> <Gold.Chemscore.Internal.Correction.Weighted>
   9.000000E+99

> <Gold.Reference.RMSD>
8.4129

#       Name:                crystal
#       Creating user name   hitesit
#       Creation time:       Mon Nov  6 23:23:08 2023


#       File generated by GOLD software.
#

@<TRIPOS>MOLECULE
crystal|crystal_prep|mol2|1|dock6
    52    55     1
SMALL
NO_CHARGES


@<TRIPOS>ATOM
      1 O1          19.7074 -39.8333  47.9234 O.3            1 RES1               0.0000
      2 C2          20.4845 -38.7108  48.0690 C.ar           1 RES1               0.0000
      3 C3          20.0135 -40.9585  48.7350 C.3            1 RES1               0.0000
      4 C4          20.1445 -37.6148  47.2618 C.ar           1 RES1               0.0000
      5 C5          21.5698 -38.6072  48.9461 C.ar           1 RES1               0.0000
      6 O6          19.0783 -37.7891  46.4176 O.3            1 RES1               0.0000
      7 C7          20.8906 -36.4393  47.3659 C.ar           1 RES1               0.0000
      8 C8          22.3232 -37.4451  49.0535 C.ar           1 RES1               0.0000
      9 C9          18.6533 -36.6746  45.6464 C.3            1 RES1               0.0000
     10 C10         21.9803 -36.3385  48.2699 C.ar           1 RES1               0.0000
     11 N11         23.3527 -37.4382  49.9037 N.ar           1 RES1               0.0000
     12 C12         22.7818 -35.1960  48.4499 C.ar           1 RES1               0.0000
     13 C13         24.0761 -36.3127  49.9843 C.ar           1 RES1               0.0000
     14 N14         23.8394 -35.1982  49.2784 N.ar           1 RES1               0.0000
     15 N15         22.5263 -34.0381  47.7279 N.pl3          1 RES1               0.0000
     16 C16         25.2623 -36.3149  50.8965 C.3            1 RES1               0.0000
     17 C17         23.3887 -33.6262  46.6316 C.3            1 RES1               0.0000
     18 C18         22.9089 -34.3624  45.3843 C.ar           1 RES1               0.0000
     19 C19         23.3839 -32.1010  46.4858 C.3            1 RES1               0.0000
     20 C20         22.2726 -33.7106  44.3101 C.ar           1 RES1               0.0000
     21 C21         23.0540 -35.7562  45.3250 C.ar           1 RES1               0.0000
     22 C22         21.8141 -34.4141  43.1817 C.ar           1 RES1               0.0000
     23 C23         22.6056 -36.4706  44.2174 C.ar           1 RES1               0.0000
     24 C24         21.1587 -33.7251  42.0674 C.2            1 RES1               0.0000
     25 C25         21.9942 -35.8038  43.1545 C.ar           1 RES1               0.0000
     26 C26         21.6402 -32.8369  41.1946 C.2            1 RES1               0.0000
     27 C27         19.7364 -33.8994  41.6647 C.3            1 RES1               0.0000
     28 N28         20.7107 -32.4126  40.2848 N.2            1 RES1               0.0000
     29 N29         19.6058 -32.9815  40.5027 N.2            1 RES1               0.0000
     30 H1          19.3190 -41.7670  48.5112 H              1 RES1               0.0000
     31 H2          19.9246 -40.6837  49.7849 H              1 RES1               0.0000
     32 H3          21.0313 -41.2873  48.5306 H              1 RES1               0.0000
     33 H4          21.8322 -39.4646  49.5640 H              1 RES1               0.0000
     34 H5          20.6319 -35.5847  46.7426 H              1 RES1               0.0000
     35 H6          19.4704 -36.3424  45.0076 H              1 RES1               0.0000
     36 H7          17.8040 -36.9631  45.0288 H              1 RES1               0.0000
     37 H8          18.3597 -35.8637  46.3114 H              1 RES1               0.0000
     38 H9          21.7220 -33.4680  47.9698 H              1 RES1               0.0000
     39 H10         25.7499 -35.3418  50.8602 H              1 RES1               0.0000
     40 H11         25.9638 -37.0846  50.5779 H              1 RES1               0.0000
     41 H12         24.9365 -36.5198  51.9152 H              1 RES1               0.0000
     42 H13         24.4052 -33.9483  46.8526 H              1 RES1               0.0000
     43 H14         23.7367 -31.6469  47.4105 H              1 RES1               0.0000
     44 H15         22.3711 -31.7595  46.2769 H              1 RES1               0.0000
     45 H16         24.0404 -31.8126  45.6662 H              1 RES1               0.0000
     46 H17         22.1316 -32.6317  44.3545 H              1 RES1               0.0000
     47 H18         23.5222 -36.2850  46.1539 H              1 RES1               0.0000
     48 H19         22.7321 -37.5516  44.1803 H              1 RES1               0.0000
     49 H20         21.6520 -36.3721  42.2908 H              1 RES1               0.0000
     50 H21         22.6707 -32.4851  41.2057 H              1 RES1               0.0000
     51 H22         19.0629 -33.6102  42.4701 H              1 RES1               0.0000
     52 H23         19.5346 -34.9295  41.3750 H              1 RES1               0.0000
@<TRIPOS>BOND
    1    1    2 1     
    2    1    3 1     
    3    2    4 ar    
    4    2    5 ar    
    5    4    6 1     
    6    4    7 ar    
    7    5    8 ar    
    8    6    9 1     
    9    7   10 ar    
   10    8   11 ar    
   11   10   12 ar    
   12   11   13 ar    
   13   12   14 ar    
   14   12   15 1     
   15   13   16 1     
   16   15   17 1     
   17   17   18 1     
   18   17   19 1     
   19   18   20 ar    
   20   18   21 ar    
   21   20   22 ar    
   22   21   23 ar    
   23   22   24 1     
   24   22   25 ar    
   25   24   26 2     
   26   24   27 1     
   27   26   28 1     
   28   27   29 1     
   29    8   10 ar    
   30   13   14 ar    
   31   23   25 ar    
   32   28   29 2     
   33    3   30 1     
   34    3   31 1     
   35    3   32 1     
   36    5   33 1     
   37    7   34 1     
   38    9   35 1     
   39    9   36 1     
   40    9   37 1     
   41   15   38 1     
   42   16   39 1     
   43   16   40 1     
   44   16   41 1     
   45   17   42 1     
   46   19   43 1     
   47   19   44 1     
   48   19   45 1     
   49   20   46 1     
   50   21   47 1     
   51   23   48 1     
   52   25   49 1     
   53   26   50 1     
   54   27   51 1     
   55   27   52 1     
@<TRIPOS>SUBSTRUCTURE
      1 RES1           1
@<TRIPOS>SET
DONOR_HYDROGENS      STATIC     ATOMS    <user>   **** ""
1 38
ATOM$RED        STATIC     ATOMS    COLORGROUP SYSTEM
1 38
@<TRIPOS>COMMENT
> <Gold.Version>
2022.3.0

> <Gold.Id.Protein>
unknown|5ovf_clean|pdb

> <Gold.Protein.ActiveResidues>
 ILE839  VAL852  ILE856  LEU859  VAL871  LEU872  GLU873  VAL874  VAL875  SER876 
 ALA877  MET878  ASN879  SER880  SER881  PRO882  VAL883  TYR884  ARG885  LEU886 
 ASP887  HIS888  THR889  PHE890  GLU891  GLN892  ILE893  PRO894  SER895  ARG896 
 GLN897  LYS898  LYS899  ILE900  LEU901  GLU902  GLU903  ALA904  HIS905  GLU906 
 LEU907  SER908  GLU909  LYS914  GLU836  ILE839  VAL852  ILE855  ILE856  LEU859 
 GLN863  VAL871  LEU872  VAL874  VAL875  SER876  ALA877  MET878  ASN879  SER880 
 SER881  PRO882  VAL883  TYR884  ARG885  LEU886  ASP887  HIS888  THR889  PHE890 
 GLU891  GLN892  ILE893  PRO894  SER895  ARG896  GLN897  LYS898  LYS899  ILE900 
 LEU901  GLU902  GLU903  ALA904  HIS905  GLU906  LEU907  SER908  GLU909  ASP910 
 LYS914 

> <Gold.Score>
     Fitness  S(hb_ext) S(vdw_ext)  S(hb_int)    S(int)      intcor
     50.33       6.00      37.21       0.00      -6.84      -8.43

> <Gold.Goldscore.Fitness>
50.3259

> <Gold.Goldscore.Internal.Vdw>
-2.5610

> <Gold.Goldscore.Internal.Torsion>
-12.7102

> <Gold.Goldscore.External.Vdw>
37.2093

> <Gold.Goldscore.Internal.HBond>
0.0000

> <Gold.Goldscore.External.HBond>
6.0000

> <Gold.Goldscore.Internal.Correction>
-8.4343

> <Gold.Goldscore.Reference.RMSD>
7.0438

> <Gold.Goldscore.Hbonds>
donor molecule, donor type, donor heavy atom, donor atom, acceptor molecule, acceptor atom, score
      L1  H    15    38       P1  2591  1.00

> <Gold.Goldscore.Internal.Vdw.Weighted>
-2.5610

> <Gold.Goldscore.Internal.Torsion.Weighted>
-12.7102

> <Gold.Goldscore.External.Vdw.Weighted>
51.1628

> <Gold.Goldscore.Internal.HBond.Weighted>
0.0000

> <Gold.Goldscore.External.HBond.Weighted>
6.0000

> <Gold.Goldscore.Internal.Correction.Weighted>
-8.4343

> <Gold.Rescore>
     Score         DG    S(hbond)    S(metal)    S(lipo)     H(rot)  DE(clash)    DE(int)     intcor
     24.05     -29.46       1.00        0.00     210.68       1.56       1.71       3.71       ----

> <Gold.Chemscore.Fitness>
24.0451

> <Gold.Chemscore.DG>
-29.4644

> <Gold.Chemscore.ZeroCoef>
-5.4800

> <Gold.Chemscore.Hbond>
0.9980

> <Gold.Chemscore.Metal>
0.0000

> <Gold.Chemscore.Lipo>
210.6811

> <Gold.Chemscore.Internal_Hbond>
0.0000

> <Gold.Chemscore.DEClash>
1.7064

> <Gold.Chemscore.DEInternal>
3.7129

> <Gold.Chemscore.Rot>
1.5619

> <Gold.Chemscore.Internal.Correction>
   9.000000E+99

> <Gold.Chemscore.Reference.RMSD>
0.0000

> <Gold.Chemscore.Hbonds>
donor molecule, donor type, donor heavy atom, donor atom, acceptor molecule, acceptor atom, score
      L1  H    15    38       P1  2591  1.00

> <Gold.Chemscore.Hbond.Weighted>
-3.3332

> <Gold.Chemscore.Metal.Weighted>
-0.0000

> <Gold.Chemscore.Lipo.Weighted>
-24.6497

> <Gold.Chemscore.Internal_Hbond.Weighted>
0.0000

> <Gold.Chemscore.DEClash.Weighted>
1.7064

> <Gold.Chemscore.DEInternal.Weighted>
3.7129

> <Gold.Chemscore.Rot.Weighted>
3.9985

> <Gold.Chemscore.Internal.Correction.Weighted>
   9.000000E+99

> <Gold.Reference.RMSD>
7.0438

