#       Name:                crystal
#       Creating user name   hitesit
#       Creation time:       Mon Nov  6 23:22:37 2023


#       File generated by GOLD software.
#

@<TRIPOS>MOLECULE
crystal|crystal_prep|mol2|1|dock1
    52    55     1
SMALL
NO_CHARGES


@<TRIPOS>ATOM
      1 O1          20.1852 -29.3277  48.5674 O.3            1 RES1               0.0000
      2 C2          20.7047 -29.8251  47.3980 C.ar           1 RES1               0.0000
      3 C3          21.0993 -28.8917  49.5637 C.3            1 RES1               0.0000
      4 C4          19.7729 -30.2472  46.4378 C.ar           1 RES1               0.0000
      5 C5          22.0723 -29.9385  47.1239 C.ar           1 RES1               0.0000
      6 O6          18.4505 -30.1187  46.7765 O.3            1 RES1               0.0000
      7 C7          20.2352 -30.7568  45.2230 C.ar           1 RES1               0.0000
      8 C8          22.5438 -30.4498  45.9215 C.ar           1 RES1               0.0000
      9 C9          17.4818 -30.3213  45.7576 C.3            1 RES1               0.0000
     10 C10         21.6244 -30.8535  44.9479 C.ar           1 RES1               0.0000
     11 N11         23.8650 -30.5383  45.7497 N.ar           1 RES1               0.0000
     12 C12         22.1825 -31.3439  43.7528 C.ar           1 RES1               0.0000
     13 C13         24.3013 -31.0463  44.5886 C.ar           1 RES1               0.0000
     14 N14         23.5105 -31.4668  43.5915 N.ar           1 RES1               0.0000
     15 N15         21.3615 -31.7659  42.7159 N.pl3          1 RES1               0.0000
     16 C16         25.7793 -31.1966  44.4096 C.3            1 RES1               0.0000
     17 C17         21.7799 -32.8169  41.8016 C.3            1 RES1               0.0000
     18 C18         21.2597 -34.1349  42.3673 C.ar           1 RES1               0.0000
     19 C19         21.2899 -32.5214  40.3804 C.3            1 RES1               0.0000
     20 C20         22.0996 -35.0929  42.9677 C.ar           1 RES1               0.0000
     21 C21         19.8961 -34.4354  42.2349 C.ar           1 RES1               0.0000
     22 C22         21.6017 -36.3134  43.4581 C.ar           1 RES1               0.0000
     23 C23         19.3841 -35.6386  42.7127 C.ar           1 RES1               0.0000
     24 C24         22.4836 -37.3001  44.0862 C.2            1 RES1               0.0000
     25 C25         20.2299 -36.5671  43.3216 C.ar           1 RES1               0.0000
     26 C26         22.1941 -38.3911  44.7993 C.2            1 RES1               0.0000
     27 C27         23.9712 -37.2764  44.0419 C.3            1 RES1               0.0000
     28 N28         23.3029 -39.0705  45.2244 N.2            1 RES1               0.0000
     29 N29         24.3457 -38.4830  44.8254 N.2            1 RES1               0.0000
     30 H1          20.5468 -28.5257  50.4279 H              1 RES1               0.0000
     31 H2          21.7184 -28.0906  49.1627 H              1 RES1               0.0000
     32 H3          21.7331 -29.7247  49.8643 H              1 RES1               0.0000
     33 H4          22.7895 -29.6156  47.8771 H              1 RES1               0.0000
     34 H5          19.5174 -31.0860  44.4732 H              1 RES1               0.0000
     35 H6          17.5770 -31.3314  45.3619 H              1 RES1               0.0000
     36 H7          16.4842 -30.1868  46.1732 H              1 RES1               0.0000
     37 H8          17.6414 -29.6010  44.9565 H              1 RES1               0.0000
     38 H9          20.4518 -31.3327  42.5935 H              1 RES1               0.0000
     39 H10         25.9849 -31.6183  43.4268 H              1 RES1               0.0000
     40 H11         26.1726 -31.8598  45.1787 H              1 RES1               0.0000
     41 H12         26.2562 -30.2211  44.4929 H              1 RES1               0.0000
     42 H13         22.8683 -32.8517  41.7910 H              1 RES1               0.0000
     43 H14         21.7000 -31.5697  40.0456 H              1 RES1               0.0000
     44 H15         20.2021 -32.4700  40.3747 H              1 RES1               0.0000
     45 H16         21.6194 -33.3143  39.7106 H              1 RES1               0.0000
     46 H17         23.1646 -34.8826  43.0547 H              1 RES1               0.0000
     47 H18         19.2310 -33.7201  41.7534 H              1 RES1               0.0000
     48 H19         18.3218 -35.8558  42.6111 H              1 RES1               0.0000
     49 H20         19.8177 -37.5028  43.6964 H              1 RES1               0.0000
     50 H21         21.1762 -38.7087  45.0205 H              1 RES1               0.0000
     51 H22         24.3626 -36.3717  44.5046 H              1 RES1               0.0000
     52 H23         24.3339 -37.3463  43.0174 H              1 RES1               0.0000
@<TRIPOS>BOND
    1    1    2 1     
    2    1    3 1     
    3    2    4 ar    
    4    2    5 ar    
    5    4    6 1     
    6    4    7 ar    
    7    5    8 ar    
    8    6    9 1     
    9    7   10 ar    
   10    8   11 ar    
   11   10   12 ar    
   12   11   13 ar    
   13   12   14 ar    
   14   12   15 1     
   15   13   16 1     
   16   15   17 1     
   17   17   18 1     
   18   17   19 1     
   19   18   20 ar    
   20   18   21 ar    
   21   20   22 ar    
   22   21   23 ar    
   23   22   24 1     
   24   22   25 ar    
   25   24   26 2     
   26   24   27 1     
   27   26   28 1     
   28   27   29 1     
   29    8   10 ar    
   30   13   14 ar    
   31   23   25 ar    
   32   28   29 2     
   33    3   30 1     
   34    3   31 1     
   35    3   32 1     
   36    5   33 1     
   37    7   34 1     
   38    9   35 1     
   39    9   36 1     
   40    9   37 1     
   41   15   38 1     
   42   16   39 1     
   43   16   40 1     
   44   16   41 1     
   45   17   42 1     
   46   19   43 1     
   47   19   44 1     
   48   19   45 1     
   49   20   46 1     
   50   21   47 1     
   51   23   48 1     
   52   25   49 1     
   53   26   50 1     
   54   27   51 1     
   55   27   52 1     
@<TRIPOS>SUBSTRUCTURE
      1 RES1           1
@<TRIPOS>SET
DONOR_HYDROGENS      STATIC     ATOMS    <user>   **** ""
1 38
ATOM$RED        STATIC     ATOMS    COLORGROUP SYSTEM
1 38
@<TRIPOS>COMMENT
> <Gold.Version>
2022.3.0

> <Gold.Id.Protein>
unknown|5ovf_clean|pdb

> <Gold.Protein.ActiveResidues>
 ILE839  VAL852  ILE856  LEU859  VAL871  LEU872  GLU873  VAL874  VAL875  SER876 
 ALA877  MET878  ASN879  SER880  SER881  PRO882  VAL883  TYR884  ARG885  LEU886 
 ASP887  HIS888  THR889  PHE890  GLU891  GLN892  ILE893  PRO894  SER895  ARG896 
 GLN897  LYS898  LYS899  ILE900  LEU901  GLU902  GLU903  ALA904  HIS905  GLU906 
 LEU907  SER908  GLU909  LYS914  GLU836  ILE839  VAL852  ILE855  ILE856  LEU859 
 GLN863  VAL871  LEU872  VAL874  VAL875  SER876  ALA877  MET878  ASN879  SER880 
 SER881  PRO882  VAL883  TYR884  ARG885  LEU886  ASP887  HIS888  THR889  PHE890 
 GLU891  GLN892  ILE893  PRO894  SER895  ARG896  GLN897  LYS898  LYS899  ILE900 
 LEU901  GLU902  GLU903  ALA904  HIS905  GLU906  LEU907  SER908  GLU909  ASP910 
 LYS914 

> <Gold.Score>
     Fitness  S(hb_ext) S(vdw_ext)  S(hb_int)    S(int)      intcor
     78.38       0.98      58.89       0.00      -3.58      -9.31

> <Gold.Goldscore.Fitness>
78.3764

> <Gold.Goldscore.Internal.Vdw>
-9.4407

> <Gold.Goldscore.Internal.Torsion>
-3.4434

> <Gold.Goldscore.External.Vdw>
58.8925

> <Gold.Goldscore.Internal.HBond>
0.0000

> <Gold.Goldscore.External.HBond>
0.9782

> <Gold.Goldscore.Internal.Correction>
-9.3050

> <Gold.Goldscore.Reference.RMSD>
0.7268

> <Gold.Goldscore.Hbonds>
donor molecule, donor type, donor heavy atom, donor atom, acceptor molecule, acceptor atom, score
      L1  H    15    38       P1  2553  0.49

> <Gold.Goldscore.Internal.Vdw.Weighted>
-9.4407

> <Gold.Goldscore.Internal.Torsion.Weighted>
-3.4434

> <Gold.Goldscore.External.Vdw.Weighted>
80.9772

> <Gold.Goldscore.Internal.HBond.Weighted>
0.0000

> <Gold.Goldscore.External.HBond.Weighted>
0.9782

> <Gold.Goldscore.Internal.Correction.Weighted>
-9.3050

> <Gold.Rescore>
     Score         DG    S(hbond)    S(metal)    S(lipo)     H(rot)  DE(clash)    DE(int)     intcor
     33.85     -35.49       0.98        0.00     262.78       1.56       0.72       0.91       ----

> <Gold.Chemscore.Fitness>
33.8534

> <Gold.Chemscore.DG>
-35.4900

> <Gold.Chemscore.ZeroCoef>
-5.4800

> <Gold.Chemscore.Hbond>
0.9772

> <Gold.Chemscore.Metal>
0.0000

> <Gold.Chemscore.Lipo>
262.7751

> <Gold.Chemscore.Internal_Hbond>
0.0000

> <Gold.Chemscore.DEClash>
0.7228

> <Gold.Chemscore.DEInternal>
0.9138

> <Gold.Chemscore.Rot>
1.5619

> <Gold.Chemscore.Internal.Correction>
   9.000000E+99

> <Gold.Chemscore.Reference.RMSD>
0.0000

> <Gold.Chemscore.Hbonds>
donor molecule, donor type, donor heavy atom, donor atom, acceptor molecule, acceptor atom, score
      L1  H    15    38       P1  2553  0.80

> <Gold.Chemscore.Hbond.Weighted>
-3.2638

> <Gold.Chemscore.Metal.Weighted>
-0.0000

> <Gold.Chemscore.Lipo.Weighted>
-30.7447

> <Gold.Chemscore.Internal_Hbond.Weighted>
0.0000

> <Gold.Chemscore.DEClash.Weighted>
0.7228

> <Gold.Chemscore.DEInternal.Weighted>
0.9138

> <Gold.Chemscore.Rot.Weighted>
3.9985

> <Gold.Chemscore.Internal.Correction.Weighted>
   9.000000E+99

> <Gold.Reference.RMSD>
0.7268

