#       Name:                crystal
#       Creating user name   hitesit
#       Creation time:       Mon Nov  6 23:22:56 2023


#       File generated by GOLD software.
#

@<TRIPOS>MOLECULE
crystal|crystal_prep|mol2|1|dock4
    52    55     1
SMALL
NO_CHARGES


@<TRIPOS>ATOM
      1 O1          20.1376 -29.0539  48.4779 O.3            1 RES1               0.0000
      2 C2          20.6525 -29.6232  47.3397 C.ar           1 RES1               0.0000
      3 C3          21.0548 -28.6103  49.4680 C.3            1 RES1               0.0000
      4 C4          19.7179 -30.0435  46.3814 C.ar           1 RES1               0.0000
      5 C5          22.0177 -29.8093  47.0950 C.ar           1 RES1               0.0000
      6 O6          18.3975 -29.8416  46.6908 O.3            1 RES1               0.0000
      7 C7          20.1759 -30.6243  45.1974 C.ar           1 RES1               0.0000
      8 C8          22.4846 -30.3917  45.9236 C.ar           1 RES1               0.0000
      9 C9          17.4326 -30.0966  45.6801 C.3            1 RES1               0.0000
     10 C10         21.5634 -30.7947  44.9514 C.ar           1 RES1               0.0000
     11 N11         23.8029 -30.5465  45.7791 N.ar           1 RES1               0.0000
     12 C12         22.1176 -31.3598  43.7879 C.ar           1 RES1               0.0000
     13 C13         24.2342 -31.1223  44.6482 C.ar           1 RES1               0.0000
     14 N14         23.4410 -31.5488  43.6555 N.ar           1 RES1               0.0000
     15 N15         21.2949 -31.7882  42.7549 N.pl3          1 RES1               0.0000
     16 C16         25.7065 -31.3461  44.5020 C.3            1 RES1               0.0000
     17 C17         21.6858 -32.8855  41.8839 C.3            1 RES1               0.0000
     18 C18         21.1218 -34.1645  42.4954 C.ar           1 RES1               0.0000
     19 C19         21.2135 -32.6293  40.4491 C.3            1 RES1               0.0000
     20 C20         21.9335 -35.1463  43.0962 C.ar           1 RES1               0.0000
     21 C21         19.7427 -34.4043  42.4070 C.ar           1 RES1               0.0000
     22 C22         21.3940 -36.3307  43.6294 C.ar           1 RES1               0.0000
     23 C23         19.1898 -35.5711  42.9276 C.ar           1 RES1               0.0000
     24 C24         22.2470 -37.3425  44.2575 C.2            1 RES1               0.0000
     25 C25         20.0088 -36.5235  43.5361 C.ar           1 RES1               0.0000
     26 C26         21.9262 -38.4230  44.9730 C.2            1 RES1               0.0000
     27 C27         23.7346 -37.3638  44.2102 C.3            1 RES1               0.0000
     28 N28         23.0149 -39.1349  45.3972 N.2            1 RES1               0.0000
     29 N29         24.0741 -38.5797  44.9951 N.2            1 RES1               0.0000
     30 H1          20.5059 -28.1845  50.3066 H              1 RES1               0.0000
     31 H2          21.7110 -27.8530  49.0415 H              1 RES1               0.0000
     32 H3          21.6506 -29.4534  49.8146 H              1 RES1               0.0000
     33 H4          22.7368 -29.4872  47.8468 H              1 RES1               0.0000
     34 H5          19.4558 -30.9525  44.4492 H              1 RES1               0.0000
     35 H6          17.4962 -31.1394  45.3723 H              1 RES1               0.0000
     36 H7          16.4362 -29.8934  46.0699 H              1 RES1               0.0000
     37 H8          17.6255 -29.4528  44.8233 H              1 RES1               0.0000
     38 H9          20.4034 -31.3267  42.6047 H              1 RES1               0.0000
     39 H10         25.9083 -31.8178  43.5414 H              1 RES1               0.0000
     40 H11         26.0569 -31.9931  45.3049 H              1 RES1               0.0000
     41 H12         26.2258 -30.3903  44.5531 H              1 RES1               0.0000
     42 H13         22.7727 -32.9541  41.8822 H              1 RES1               0.0000
     43 H14         21.6547 -31.7041  40.0815 H              1 RES1               0.0000
     44 H15         20.1278 -32.5448  40.4340 H              1 RES1               0.0000
     45 H16         21.5222 -33.4568  39.8121 H              1 RES1               0.0000
     46 H17         23.0090 -34.9837  43.1494 H              1 RES1               0.0000
     47 H18         19.0979 -33.6702  41.9262 H              1 RES1               0.0000
     48 H19         18.1162 -35.7409  42.8599 H              1 RES1               0.0000
     49 H20         19.5649 -37.4301  43.9445 H              1 RES1               0.0000
     50 H21         20.8997 -38.7094  45.1969 H              1 RES1               0.0000
     51 H22         24.1541 -36.4705  44.6706 H              1 RES1               0.0000
     52 H23         24.0930 -37.4463  43.1852 H              1 RES1               0.0000
@<TRIPOS>BOND
    1    1    2 1     
    2    1    3 1     
    3    2    4 ar    
    4    2    5 ar    
    5    4    6 1     
    6    4    7 ar    
    7    5    8 ar    
    8    6    9 1     
    9    7   10 ar    
   10    8   11 ar    
   11   10   12 ar    
   12   11   13 ar    
   13   12   14 ar    
   14   12   15 1     
   15   13   16 1     
   16   15   17 1     
   17   17   18 1     
   18   17   19 1     
   19   18   20 ar    
   20   18   21 ar    
   21   20   22 ar    
   22   21   23 ar    
   23   22   24 1     
   24   22   25 ar    
   25   24   26 2     
   26   24   27 1     
   27   26   28 1     
   28   27   29 1     
   29    8   10 ar    
   30   13   14 ar    
   31   23   25 ar    
   32   28   29 2     
   33    3   30 1     
   34    3   31 1     
   35    3   32 1     
   36    5   33 1     
   37    7   34 1     
   38    9   35 1     
   39    9   36 1     
   40    9   37 1     
   41   15   38 1     
   42   16   39 1     
   43   16   40 1     
   44   16   41 1     
   45   17   42 1     
   46   19   43 1     
   47   19   44 1     
   48   19   45 1     
   49   20   46 1     
   50   21   47 1     
   51   23   48 1     
   52   25   49 1     
   53   26   50 1     
   54   27   51 1     
   55   27   52 1     
@<TRIPOS>SUBSTRUCTURE
      1 RES1           1
@<TRIPOS>SET
DONOR_HYDROGENS      STATIC     ATOMS    <user>   **** ""
1 38
ATOM$RED        STATIC     ATOMS    COLORGROUP SYSTEM
1 38
@<TRIPOS>COMMENT
> <Gold.Version>
2022.3.0

> <Gold.Id.Protein>
unknown|5ovf_clean|pdb

> <Gold.Protein.ActiveResidues>
 ILE839  VAL852  ILE856  LEU859  VAL871  LEU872  GLU873  VAL874  VAL875  SER876 
 ALA877  MET878  ASN879  SER880  SER881  PRO882  VAL883  TYR884  ARG885  LEU886 
 ASP887  HIS888  THR889  PHE890  GLU891  GLN892  ILE893  PRO894  SER895  ARG896 
 GLN897  LYS898  LYS899  ILE900  LEU901  GLU902  GLU903  ALA904  HIS905  GLU906 
 LEU907  SER908  GLU909  LYS914  GLU836  ILE839  VAL852  ILE855  ILE856  LEU859 
 GLN863  VAL871  LEU872  VAL874  VAL875  SER876  ALA877  MET878  ASN879  SER880 
 SER881  PRO882  VAL883  TYR884  ARG885  LEU886  ASP887  HIS888  THR889  PHE890 
 GLU891  GLN892  ILE893  PRO894  SER895  ARG896  GLN897  LYS898  LYS899  ILE900 
 LEU901  GLU902  GLU903  ALA904  HIS905  GLU906  LEU907  SER908  GLU909  ASP910 
 LYS914 

> <Gold.Score>
     Fitness  S(hb_ext) S(vdw_ext)  S(hb_int)    S(int)      intcor
     77.41       0.92      58.41       0.00      -3.83      -8.43

> <Gold.Goldscore.Fitness>
77.4112

> <Gold.Goldscore.Internal.Vdw>
-9.0085

> <Gold.Goldscore.Internal.Torsion>
-3.2566

> <Gold.Goldscore.External.Vdw>
58.4139

> <Gold.Goldscore.Internal.HBond>
0.0000

> <Gold.Goldscore.External.HBond>
0.9229

> <Gold.Goldscore.Internal.Correction>
-8.4343

> <Gold.Goldscore.Reference.RMSD>
0.7204

> <Gold.Goldscore.Hbonds>
donor molecule, donor type, donor heavy atom, donor atom, acceptor molecule, acceptor atom, score
      L1  H    15    38       P1  2553  0.46

> <Gold.Goldscore.Internal.Vdw.Weighted>
-9.0085

> <Gold.Goldscore.Internal.Torsion.Weighted>
-3.2566

> <Gold.Goldscore.External.Vdw.Weighted>
80.3191

> <Gold.Goldscore.Internal.HBond.Weighted>
0.0000

> <Gold.Goldscore.External.HBond.Weighted>
0.9229

> <Gold.Goldscore.Internal.Correction.Weighted>
-8.4343

> <Gold.Rescore>
     Score         DG    S(hbond)    S(metal)    S(lipo)     H(rot)  DE(clash)    DE(int)     intcor
     32.27     -34.77       0.95        0.00     257.50       1.56       1.82       0.69       ----

> <Gold.Chemscore.Fitness>
32.2676

> <Gold.Chemscore.DG>
-34.7713

> <Gold.Chemscore.ZeroCoef>
-5.4800

> <Gold.Chemscore.Hbond>
0.9468

> <Gold.Chemscore.Metal>
0.0000

> <Gold.Chemscore.Lipo>
257.4985

> <Gold.Chemscore.Internal_Hbond>
0.0000

> <Gold.Chemscore.DEClash>
1.8158

> <Gold.Chemscore.DEInternal>
0.6878

> <Gold.Chemscore.Rot>
1.5619

> <Gold.Chemscore.Internal.Correction>
   9.000000E+99

> <Gold.Chemscore.Reference.RMSD>
0.0000

> <Gold.Chemscore.Hbonds>
donor molecule, donor type, donor heavy atom, donor atom, acceptor molecule, acceptor atom, score
      L1  H    15    38       P1  2553  0.77

> <Gold.Chemscore.Hbond.Weighted>
-3.1625

> <Gold.Chemscore.Metal.Weighted>
-0.0000

> <Gold.Chemscore.Lipo.Weighted>
-30.1273

> <Gold.Chemscore.Internal_Hbond.Weighted>
0.0000

> <Gold.Chemscore.DEClash.Weighted>
1.8158

> <Gold.Chemscore.DEInternal.Weighted>
0.6878

> <Gold.Chemscore.Rot.Weighted>
3.9985

> <Gold.Chemscore.Internal.Correction.Weighted>
   9.000000E+99

> <Gold.Reference.RMSD>
0.7204

