#       Name:                crystal
#       Creating user name   hitesit
#       Creation time:       Mon Nov  6 23:23:32 2023


#       File generated by GOLD software.
#

@<TRIPOS>MOLECULE
crystal|crystal_prep|mol2|1|dock10
    52    55     1
SMALL
NO_CHARGES


@<TRIPOS>ATOM
      1 O1          20.0950 -28.4299  48.3670 O.3            1 RES1               0.0000
      2 C2          20.6670 -29.1501  47.3478 C.ar           1 RES1               0.0000
      3 C3          20.9630 -27.7700  49.2778 C.3            1 RES1               0.0000
      4 C4          19.7797 -29.7643  46.4512 C.ar           1 RES1               0.0000
      5 C5          22.0455 -29.3072  47.1656 C.ar           1 RES1               0.0000
      6 O6          18.4433 -29.5790  46.6956 O.3            1 RES1               0.0000
      7 C7          20.2966 -30.5061  45.3874 C.ar           1 RES1               0.0000
      8 C8          22.5711 -30.0481  46.1147 C.ar           1 RES1               0.0000
      9 C9          17.5182 -30.0871  45.7452 C.3            1 RES1               0.0000
     10 C10         21.6969 -30.6469  45.2018 C.ar           1 RES1               0.0000
     11 N11         23.8986 -30.1604  46.0253 N.ar           1 RES1               0.0000
     12 C12         22.3086 -31.3652  44.1578 C.ar           1 RES1               0.0000
     13 C13         24.3871 -30.8900  45.0126 C.ar           1 RES1               0.0000
     14 N14         23.6423 -31.5090  44.0860 N.ar           1 RES1               0.0000
     15 N15         21.5356 -31.9941  43.1913 N.pl3          1 RES1               0.0000
     16 C16         25.8714 -31.0631  44.9358 C.3            1 RES1               0.0000
     17 C17         22.1348 -32.8739  42.2001 C.3            1 RES1               0.0000
     18 C18         22.1637 -34.2744  42.8046 C.ar           1 RES1               0.0000
     19 C19         21.3710 -32.7917  40.8745 C.3            1 RES1               0.0000
     20 C20         21.0661 -34.8350  43.4862 C.ar           1 RES1               0.0000
     21 C21         23.3511 -35.0174  42.7310 C.ar           1 RES1               0.0000
     22 C22         21.1248 -36.1181  44.0593 C.ar           1 RES1               0.0000
     23 C23         23.4296 -36.2887  43.2930 C.ar           1 RES1               0.0000
     24 C24         19.9750 -36.6938  44.7609 C.2            1 RES1               0.0000
     25 C25         22.3246 -36.8344  43.9481 C.ar           1 RES1               0.0000
     26 C26         18.6669 -36.5804  44.5189 C.2            1 RES1               0.0000
     27 C27         20.0505 -37.5793  45.9550 C.3            1 RES1               0.0000
     28 N28         17.8897 -37.2741  45.4057 N.2            1 RES1               0.0000
     29 N29         18.6210 -37.8624  46.2489 N.2            1 RES1               0.0000
     30 H1          20.3719 -27.2435  50.0258 H              1 RES1               0.0000
     31 H2          21.5826 -27.0565  48.7366 H              1 RES1               0.0000
     32 H3          21.5996 -28.5042  49.7692 H              1 RES1               0.0000
     33 H4          22.7278 -28.8336  47.8699 H              1 RES1               0.0000
     34 H5          19.6136 -30.9852  44.6877 H              1 RES1               0.0000
     35 H6          17.6441 -31.1652  45.6564 H              1 RES1               0.0000
     36 H7          16.5033 -29.8659  46.0723 H              1 RES1               0.0000
     37 H8          17.6978 -29.6198  44.7781 H              1 RES1               0.0000
     38 H9          20.5329 -31.8368  43.1760 H              1 RES1               0.0000
     39 H10         26.1214 -31.6736  44.0694 H              1 RES1               0.0000
     40 H11         26.2269 -31.5542  45.8406 H              1 RES1               0.0000
     41 H12         26.3464 -30.0877  44.8417 H              1 RES1               0.0000
     42 H13         23.1605 -32.5513  42.0278 H              1 RES1               0.0000
     43 H14         21.3932 -31.7673  40.5057 H              1 RES1               0.0000
     44 H15         20.3380 -33.0989  41.0311 H              1 RES1               0.0000
     45 H16         21.8390 -33.4505  40.1445 H              1 RES1               0.0000
     46 H17         20.1461 -34.2587  43.5720 H              1 RES1               0.0000
     47 H18         24.2205 -34.5955  42.2290 H              1 RES1               0.0000
     48 H19         24.3549 -36.8584  43.2213 H              1 RES1               0.0000
     49 H20         22.3955 -37.8318  44.3795 H              1 RES1               0.0000
     50 H21         18.2591 -35.9938  43.6971 H              1 RES1               0.0000
     51 H22         20.5289 -37.0705  46.7905 H              1 RES1               0.0000
     52 H23         20.5932 -38.4960  45.7293 H              1 RES1               0.0000
@<TRIPOS>BOND
    1    1    2 1     
    2    1    3 1     
    3    2    4 ar    
    4    2    5 ar    
    5    4    6 1     
    6    4    7 ar    
    7    5    8 ar    
    8    6    9 1     
    9    7   10 ar    
   10    8   11 ar    
   11   10   12 ar    
   12   11   13 ar    
   13   12   14 ar    
   14   12   15 1     
   15   13   16 1     
   16   15   17 1     
   17   17   18 1     
   18   17   19 1     
   19   18   20 ar    
   20   18   21 ar    
   21   20   22 ar    
   22   21   23 ar    
   23   22   24 1     
   24   22   25 ar    
   25   24   26 2     
   26   24   27 1     
   27   26   28 1     
   28   27   29 1     
   29    8   10 ar    
   30   13   14 ar    
   31   23   25 ar    
   32   28   29 2     
   33    3   30 1     
   34    3   31 1     
   35    3   32 1     
   36    5   33 1     
   37    7   34 1     
   38    9   35 1     
   39    9   36 1     
   40    9   37 1     
   41   15   38 1     
   42   16   39 1     
   43   16   40 1     
   44   16   41 1     
   45   17   42 1     
   46   19   43 1     
   47   19   44 1     
   48   19   45 1     
   49   20   46 1     
   50   21   47 1     
   51   23   48 1     
   52   25   49 1     
   53   26   50 1     
   54   27   51 1     
   55   27   52 1     
@<TRIPOS>SUBSTRUCTURE
      1 RES1           1
@<TRIPOS>SET
DONOR_HYDROGENS      STATIC     ATOMS    <user>   **** ""
1 38
ATOM$RED        STATIC     ATOMS    COLORGROUP SYSTEM
1 38
@<TRIPOS>COMMENT
> <Gold.Version>
2022.3.0

> <Gold.Id.Protein>
unknown|5ovf_clean|pdb

> <Gold.Protein.ActiveResidues>
 ILE839  VAL852  ILE856  LEU859  VAL871  LEU872  GLU873  VAL874  VAL875  SER876 
 ALA877  MET878  ASN879  SER880  SER881  PRO882  VAL883  TYR884  ARG885  LEU886 
 ASP887  HIS888  THR889  PHE890  GLU891  GLN892  ILE893  PRO894  SER895  ARG896 
 GLN897  LYS898  LYS899  ILE900  LEU901  GLU902  GLU903  ALA904  HIS905  GLU906 
 LEU907  SER908  GLU909  LYS914  GLU836  ILE839  VAL852  ILE855  ILE856  LEU859 
 GLN863  VAL871  LEU872  VAL874  VAL875  SER876  ALA877  MET878  ASN879  SER880 
 SER881  PRO882  VAL883  TYR884  ARG885  LEU886  ASP887  HIS888  THR889  PHE890 
 GLU891  GLN892  ILE893  PRO894  SER895  ARG896  GLN897  LYS898  LYS899  ILE900 
 LEU901  GLU902  GLU903  ALA904  HIS905  GLU906  LEU907  SER908  GLU909  ASP910 
 LYS914 

> <Gold.Score>
     Fitness  S(hb_ext) S(vdw_ext)  S(hb_int)    S(int)      intcor
     73.59       1.92      56.12       0.00      -5.50      -8.43

> <Gold.Goldscore.Fitness>
73.5872

> <Gold.Goldscore.Internal.Vdw>
-10.1903

> <Gold.Goldscore.Internal.Torsion>
-3.7433

> <Gold.Goldscore.External.Vdw>
56.1236

> <Gold.Goldscore.Internal.HBond>
0.0000

> <Gold.Goldscore.External.HBond>
1.9166

> <Gold.Goldscore.Internal.Correction>
-8.4343

> <Gold.Goldscore.Reference.RMSD>
2.1936

> <Gold.Goldscore.Hbonds>
donor molecule, donor type, donor heavy atom, donor atom, acceptor molecule, acceptor atom, score
      L1  H    15    38       P1  2553  0.96

> <Gold.Goldscore.Internal.Vdw.Weighted>
-10.1903

> <Gold.Goldscore.Internal.Torsion.Weighted>
-3.7433

> <Gold.Goldscore.External.Vdw.Weighted>
77.1700

> <Gold.Goldscore.Internal.HBond.Weighted>
0.0000

> <Gold.Goldscore.External.HBond.Weighted>
1.9166

> <Gold.Goldscore.Internal.Correction.Weighted>
-8.4343

> <Gold.Rescore>
     Score         DG    S(hbond)    S(metal)    S(lipo)     H(rot)  DE(clash)    DE(int)     intcor
     30.54     -33.35       1.00        0.00     243.88       1.56       1.69       1.13       ----

> <Gold.Chemscore.Fitness>
30.5384

> <Gold.Chemscore.DG>
-33.3511

> <Gold.Chemscore.ZeroCoef>
-5.4800

> <Gold.Chemscore.Hbond>
0.9986

> <Gold.Chemscore.Metal>
0.0000

> <Gold.Chemscore.Lipo>
243.8827

> <Gold.Chemscore.Internal_Hbond>
0.0000

> <Gold.Chemscore.DEClash>
1.6854

> <Gold.Chemscore.DEInternal>
1.1274

> <Gold.Chemscore.Rot>
1.5619

> <Gold.Chemscore.Internal.Correction>
   9.000000E+99

> <Gold.Chemscore.Reference.RMSD>
0.0000

> <Gold.Chemscore.Hbonds>
donor molecule, donor type, donor heavy atom, donor atom, acceptor molecule, acceptor atom, score
      L1  H    15    38       P1  2553  1.00

> <Gold.Chemscore.Hbond.Weighted>
-3.3353

> <Gold.Chemscore.Metal.Weighted>
-0.0000

> <Gold.Chemscore.Lipo.Weighted>
-28.5343

> <Gold.Chemscore.Internal_Hbond.Weighted>
0.0000

> <Gold.Chemscore.DEClash.Weighted>
1.6854

> <Gold.Chemscore.DEInternal.Weighted>
1.1274

> <Gold.Chemscore.Rot.Weighted>
3.9985

> <Gold.Chemscore.Internal.Correction.Weighted>
   9.000000E+99

> <Gold.Reference.RMSD>
2.1936

