#       Name:                crystal
#       Creating user name   hitesit
#       Creation time:       Mon Nov  6 23:23:08 2023


#       File generated by GOLD software.
#

@<TRIPOS>MOLECULE
crystal|crystal_prep|mol2|1|dock6
    52    55     1
SMALL
NO_CHARGES


@<TRIPOS>ATOM
      1 O1          19.7074 -39.8333  47.9234 O.3            1 RES1               0.0000
      2 C2          20.4845 -38.7108  48.0690 C.ar           1 RES1               0.0000
      3 C3          20.0135 -40.9585  48.7350 C.3            1 RES1               0.0000
      4 C4          20.1445 -37.6148  47.2618 C.ar           1 RES1               0.0000
      5 C5          21.5698 -38.6072  48.9461 C.ar           1 RES1               0.0000
      6 O6          19.0783 -37.7891  46.4176 O.3            1 RES1               0.0000
      7 C7          20.8906 -36.4393  47.3659 C.ar           1 RES1               0.0000
      8 C8          22.3232 -37.4451  49.0535 C.ar           1 RES1               0.0000
      9 C9          18.6533 -36.6746  45.6464 C.3            1 RES1               0.0000
     10 C10         21.9803 -36.3385  48.2699 C.ar           1 RES1               0.0000
     11 N11         23.3527 -37.4382  49.9037 N.ar           1 RES1               0.0000
     12 C12         22.7818 -35.1960  48.4499 C.ar           1 RES1               0.0000
     13 C13         24.0761 -36.3127  49.9843 C.ar           1 RES1               0.0000
     14 N14         23.8394 -35.1982  49.2784 N.ar           1 RES1               0.0000
     15 N15         22.5263 -34.0381  47.7279 N.pl3          1 RES1               0.0000
     16 C16         25.2623 -36.3149  50.8965 C.3            1 RES1               0.0000
     17 C17         23.3887 -33.6262  46.6316 C.3            1 RES1               0.0000
     18 C18         22.9089 -34.3624  45.3843 C.ar           1 RES1               0.0000
     19 C19         23.3839 -32.1010  46.4858 C.3            1 RES1               0.0000
     20 C20         22.2726 -33.7106  44.3101 C.ar           1 RES1               0.0000
     21 C21         23.0540 -35.7562  45.3250 C.ar           1 RES1               0.0000
     22 C22         21.8141 -34.4141  43.1817 C.ar           1 RES1               0.0000
     23 C23         22.6056 -36.4706  44.2174 C.ar           1 RES1               0.0000
     24 C24         21.1587 -33.7251  42.0674 C.2            1 RES1               0.0000
     25 C25         21.9942 -35.8038  43.1545 C.ar           1 RES1               0.0000
     26 C26         21.6402 -32.8369  41.1946 C.2            1 RES1               0.0000
     27 C27         19.7364 -33.8994  41.6647 C.3            1 RES1               0.0000
     28 N28         20.7107 -32.4126  40.2848 N.2            1 RES1               0.0000
     29 N29         19.6058 -32.9815  40.5027 N.2            1 RES1               0.0000
     30 H1          19.3190 -41.7670  48.5112 H              1 RES1               0.0000
     31 H2          19.9246 -40.6837  49.7849 H              1 RES1               0.0000
     32 H3          21.0313 -41.2873  48.5306 H              1 RES1               0.0000
     33 H4          21.8322 -39.4646  49.5640 H              1 RES1               0.0000
     34 H5          20.6319 -35.5847  46.7426 H              1 RES1               0.0000
     35 H6          19.4704 -36.3424  45.0076 H              1 RES1               0.0000
     36 H7          17.8040 -36.9631  45.0288 H              1 RES1               0.0000
     37 H8          18.3597 -35.8637  46.3114 H              1 RES1               0.0000
     38 H9          21.7220 -33.4680  47.9698 H              1 RES1               0.0000
     39 H10         25.7499 -35.3418  50.8602 H              1 RES1               0.0000
     40 H11         25.9638 -37.0846  50.5779 H              1 RES1               0.0000
     41 H12         24.9365 -36.5198  51.9152 H              1 RES1               0.0000
     42 H13         24.4052 -33.9483  46.8526 H              1 RES1               0.0000
     43 H14         23.7367 -31.6469  47.4105 H              1 RES1               0.0000
     44 H15         22.3711 -31.7595  46.2769 H              1 RES1               0.0000
     45 H16         24.0404 -31.8126  45.6662 H              1 RES1               0.0000
     46 H17         22.1316 -32.6317  44.3545 H              1 RES1               0.0000
     47 H18         23.5222 -36.2850  46.1539 H              1 RES1               0.0000
     48 H19         22.7321 -37.5516  44.1803 H              1 RES1               0.0000
     49 H20         21.6520 -36.3721  42.2908 H              1 RES1               0.0000
     50 H21         22.6707 -32.4851  41.2057 H              1 RES1               0.0000
     51 H22         19.0629 -33.6102  42.4701 H              1 RES1               0.0000
     52 H23         19.5346 -34.9295  41.3750 H              1 RES1               0.0000
@<TRIPOS>BOND
    1    1    2 1     
    2    1    3 1     
    3    2    4 ar    
    4    2    5 ar    
    5    4    6 1     
    6    4    7 ar    
    7    5    8 ar    
    8    6    9 1     
    9    7   10 ar    
   10    8   11 ar    
   11   10   12 ar    
   12   11   13 ar    
   13   12   14 ar    
   14   12   15 1     
   15   13   16 1     
   16   15   17 1     
   17   17   18 1     
   18   17   19 1     
   19   18   20 ar    
   20   18   21 ar    
   21   20   22 ar    
   22   21   23 ar    
   23   22   24 1     
   24   22   25 ar    
   25   24   26 2     
   26   24   27 1     
   27   26   28 1     
   28   27   29 1     
   29    8   10 ar    
   30   13   14 ar    
   31   23   25 ar    
   32   28   29 2     
   33    3   30 1     
   34    3   31 1     
   35    3   32 1     
   36    5   33 1     
   37    7   34 1     
   38    9   35 1     
   39    9   36 1     
   40    9   37 1     
   41   15   38 1     
   42   16   39 1     
   43   16   40 1     
   44   16   41 1     
   45   17   42 1     
   46   19   43 1     
   47   19   44 1     
   48   19   45 1     
   49   20   46 1     
   50   21   47 1     
   51   23   48 1     
   52   25   49 1     
   53   26   50 1     
   54   27   51 1     
   55   27   52 1     
@<TRIPOS>SUBSTRUCTURE
      1 RES1           1
@<TRIPOS>SET
DONOR_HYDROGENS      STATIC     ATOMS    <user>   **** ""
1 38
ATOM$RED        STATIC     ATOMS    COLORGROUP SYSTEM
1 38
@<TRIPOS>COMMENT
> <Gold.Version>
2022.3.0

> <Gold.Id.Protein>
unknown|5ovf_clean|pdb

> <Gold.Protein.ActiveResidues>
 ILE839  VAL852  ILE856  LEU859  VAL871  LEU872  GLU873  VAL874  VAL875  SER876 
 ALA877  MET878  ASN879  SER880  SER881  PRO882  VAL883  TYR884  ARG885  LEU886 
 ASP887  HIS888  THR889  PHE890  GLU891  GLN892  ILE893  PRO894  SER895  ARG896 
 GLN897  LYS898  LYS899  ILE900  LEU901  GLU902  GLU903  ALA904  HIS905  GLU906 
 LEU907  SER908  GLU909  LYS914  GLU836  ILE839  VAL852  ILE855  ILE856  LEU859 
 GLN863  VAL871  LEU872  VAL874  VAL875  SER876  ALA877  MET878  ASN879  SER880 
 SER881  PRO882  VAL883  TYR884  ARG885  LEU886  ASP887  HIS888  THR889  PHE890 
 GLU891  GLN892  ILE893  PRO894  SER895  ARG896  GLN897  LYS898  LYS899  ILE900 
 LEU901  GLU902  GLU903  ALA904  HIS905  GLU906  LEU907  SER908  GLU909  ASP910 
 LYS914 

> <Gold.Score>
     Fitness  S(hb_ext) S(vdw_ext)  S(hb_int)    S(int)      intcor
     50.33       6.00      37.21       0.00      -6.84      -8.43

> <Gold.Goldscore.Fitness>
50.3259

> <Gold.Goldscore.Internal.Vdw>
-2.5610

> <Gold.Goldscore.Internal.Torsion>
-12.7102

> <Gold.Goldscore.External.Vdw>
37.2093

> <Gold.Goldscore.Internal.HBond>
0.0000

> <Gold.Goldscore.External.HBond>
6.0000

> <Gold.Goldscore.Internal.Correction>
-8.4343

> <Gold.Goldscore.Reference.RMSD>
7.0438

> <Gold.Goldscore.Hbonds>
donor molecule, donor type, donor heavy atom, donor atom, acceptor molecule, acceptor atom, score
      L1  H    15    38       P1  2591  1.00

> <Gold.Goldscore.Internal.Vdw.Weighted>
-2.5610

> <Gold.Goldscore.Internal.Torsion.Weighted>
-12.7102

> <Gold.Goldscore.External.Vdw.Weighted>
51.1628

> <Gold.Goldscore.Internal.HBond.Weighted>
0.0000

> <Gold.Goldscore.External.HBond.Weighted>
6.0000

> <Gold.Goldscore.Internal.Correction.Weighted>
-8.4343

> <Gold.Rescore>
     Score         DG    S(hbond)    S(metal)    S(lipo)     H(rot)  DE(clash)    DE(int)     intcor
     24.05     -29.46       1.00        0.00     210.68       1.56       1.71       3.71       ----

> <Gold.Chemscore.Fitness>
24.0451

> <Gold.Chemscore.DG>
-29.4644

> <Gold.Chemscore.ZeroCoef>
-5.4800

> <Gold.Chemscore.Hbond>
0.9980

> <Gold.Chemscore.Metal>
0.0000

> <Gold.Chemscore.Lipo>
210.6811

> <Gold.Chemscore.Internal_Hbond>
0.0000

> <Gold.Chemscore.DEClash>
1.7064

> <Gold.Chemscore.DEInternal>
3.7129

> <Gold.Chemscore.Rot>
1.5619

> <Gold.Chemscore.Internal.Correction>
   9.000000E+99

> <Gold.Chemscore.Reference.RMSD>
0.0000

> <Gold.Chemscore.Hbonds>
donor molecule, donor type, donor heavy atom, donor atom, acceptor molecule, acceptor atom, score
      L1  H    15    38       P1  2591  1.00

> <Gold.Chemscore.Hbond.Weighted>
-3.3332

> <Gold.Chemscore.Metal.Weighted>
-0.0000

> <Gold.Chemscore.Lipo.Weighted>
-24.6497

> <Gold.Chemscore.Internal_Hbond.Weighted>
0.0000

> <Gold.Chemscore.DEClash.Weighted>
1.7064

> <Gold.Chemscore.DEInternal.Weighted>
3.7129

> <Gold.Chemscore.Rot.Weighted>
3.9985

> <Gold.Chemscore.Internal.Correction.Weighted>
   9.000000E+99

> <Gold.Reference.RMSD>
7.0438

