#       Name:                crystal
#       Creating user name   hitesit
#       Creation time:       Mon Nov  6 23:23:02 2023


#       File generated by GOLD software.
#

@<TRIPOS>MOLECULE
crystal|crystal_prep|mol2|1|dock5
    52    55     1
SMALL
NO_CHARGES


@<TRIPOS>ATOM
      1 O1          20.3978 -41.8006  49.9718 O.3            1 RES1               0.0000
      2 C2          21.1367 -41.0252  49.1131 C.ar           1 RES1               0.0000
      3 C3          21.0748 -42.8265  50.6844 C.3            1 RES1               0.0000
      4 C4          20.4255 -40.0596  48.3848 C.ar           1 RES1               0.0000
      5 C5          22.5178 -41.1480  48.9242 C.ar           1 RES1               0.0000
      6 O6          19.0743 -40.0018  48.6100 O.3            1 RES1               0.0000
      7 C7          21.1187 -39.2327  47.4988 C.ar           1 RES1               0.0000
      8 C8          23.2169 -40.3353  48.0409 C.ar           1 RES1               0.0000
      9 C9          18.3398 -38.9639  47.9769 C.3            1 RES1               0.0000
     10 C10         22.5223 -39.3545  47.3255 C.ar           1 RES1               0.0000
     11 N11         24.5310 -40.5318  47.9096 N.ar           1 RES1               0.0000
     12 C12         23.3050 -38.5627  46.4650 C.ar           1 RES1               0.0000
     13 C13         25.1865 -39.7470  47.0431 C.ar           1 RES1               0.0000
     14 N14         24.6208 -38.7819  46.3049 N.ar           1 RES1               0.0000
     15 N15         22.7193 -37.5544  45.7118 N.pl3          1 RES1               0.0000
     16 C16         26.6497 -39.9958  46.8524 C.3            1 RES1               0.0000
     17 C17         22.7483 -37.5842  44.2579 C.3            1 RES1               0.0000
     18 C18         21.5276 -36.8094  43.7704 C.ar           1 RES1               0.0000
     19 C19         24.0775 -37.0311  43.7338 C.3            1 RES1               0.0000
     20 C20         21.6257 -35.6503  42.9764 C.ar           1 RES1               0.0000
     21 C21         20.2531 -37.2328  44.1751 C.ar           1 RES1               0.0000
     22 C22         20.4871 -34.9366  42.5610 C.ar           1 RES1               0.0000
     23 C23         19.1141 -36.5391  43.7756 C.ar           1 RES1               0.0000
     24 C24         20.6005 -33.7355  41.7302 C.2            1 RES1               0.0000
     25 C25         19.2312 -35.4033  42.9730 C.ar           1 RES1               0.0000
     26 C26         19.6600 -33.0190  41.1102 C.2            1 RES1               0.0000
     27 C27         21.8712 -33.0337  41.4008 C.3            1 RES1               0.0000
     28 N28         20.1609 -31.9494  40.4196 N.2            1 RES1               0.0000
     29 N29         21.4155 -31.9061  40.5461 N.2            1 RES1               0.0000
     30 H1          20.3665 -43.3542  51.3213 H              1 RES1               0.0000
     31 H2          21.8575 -42.3852  51.2996 H              1 RES1               0.0000
     32 H3          21.5193 -43.5262  49.9782 H              1 RES1               0.0000
     33 H4          23.0618 -41.9048  49.4876 H              1 RES1               0.0000
     34 H5          20.5729 -38.4810  46.9306 H              1 RES1               0.0000
     35 H6          18.4444 -39.0521  46.8965 H              1 RES1               0.0000
     36 H7          17.2882 -39.0460  48.2477 H              1 RES1               0.0000
     37 H8          18.7237 -37.9977  48.3012 H              1 RES1               0.0000
     38 H9          22.2620 -36.7815  46.1848 H              1 RES1               0.0000
     39 H10         27.0465 -39.2886  46.1255 H              1 RES1               0.0000
     40 H11         26.8011 -41.0117  46.4905 H              1 RES1               0.0000
     41 H12         27.1665 -39.8681  47.8024 H              1 RES1               0.0000
     42 H13         22.6527 -38.6189  43.9321 H              1 RES1               0.0000
     43 H14         24.8988 -37.6318  44.1219 H              1 RES1               0.0000
     44 H15         24.1958 -35.9993  44.0617 H              1 RES1               0.0000
     45 H16         24.0826 -37.0691  42.6455 H              1 RES1               0.0000
     46 H17         22.6108 -35.2968  42.6756 H              1 RES1               0.0000
     47 H18         20.1536 -38.1131  44.8084 H              1 RES1               0.0000
     48 H19         18.1299 -36.8835  44.0898 H              1 RES1               0.0000
     49 H20         18.3332 -34.8715  42.6620 H              1 RES1               0.0000
     50 H21         18.5992 -33.2620  41.1501 H              1 RES1               0.0000
     51 H22         22.5505 -33.6881  40.8566 H              1 RES1               0.0000
     52 H23         22.3624 -32.6690  42.3017 H              1 RES1               0.0000
@<TRIPOS>BOND
    1    1    2 1     
    2    1    3 1     
    3    2    4 ar    
    4    2    5 ar    
    5    4    6 1     
    6    4    7 ar    
    7    5    8 ar    
    8    6    9 1     
    9    7   10 ar    
   10    8   11 ar    
   11   10   12 ar    
   12   11   13 ar    
   13   12   14 ar    
   14   12   15 1     
   15   13   16 1     
   16   15   17 1     
   17   17   18 1     
   18   17   19 1     
   19   18   20 ar    
   20   18   21 ar    
   21   20   22 ar    
   22   21   23 ar    
   23   22   24 1     
   24   22   25 ar    
   25   24   26 2     
   26   24   27 1     
   27   26   28 1     
   28   27   29 1     
   29    8   10 ar    
   30   13   14 ar    
   31   23   25 ar    
   32   28   29 2     
   33    3   30 1     
   34    3   31 1     
   35    3   32 1     
   36    5   33 1     
   37    7   34 1     
   38    9   35 1     
   39    9   36 1     
   40    9   37 1     
   41   15   38 1     
   42   16   39 1     
   43   16   40 1     
   44   16   41 1     
   45   17   42 1     
   46   19   43 1     
   47   19   44 1     
   48   19   45 1     
   49   20   46 1     
   50   21   47 1     
   51   23   48 1     
   52   25   49 1     
   53   26   50 1     
   54   27   51 1     
   55   27   52 1     
@<TRIPOS>SUBSTRUCTURE
      1 RES1           1
@<TRIPOS>SET
DONOR_HYDROGENS      STATIC     ATOMS    <user>   **** ""
1 38
ATOM$RED        STATIC     ATOMS    COLORGROUP SYSTEM
1 38
@<TRIPOS>COMMENT
> <Gold.Version>
2022.3.0

> <Gold.Id.Protein>
unknown|5ovf_clean|pdb

> <Gold.Protein.ActiveResidues>
 ILE839  VAL852  ILE856  LEU859  VAL871  LEU872  GLU873  VAL874  VAL875  SER876 
 ALA877  MET878  ASN879  SER880  SER881  PRO882  VAL883  TYR884  ARG885  LEU886 
 ASP887  HIS888  THR889  PHE890  GLU891  GLN892  ILE893  PRO894  SER895  ARG896 
 GLN897  LYS898  LYS899  ILE900  LEU901  GLU902  GLU903  ALA904  HIS905  GLU906 
 LEU907  SER908  GLU909  LYS914  GLU836  ILE839  VAL852  ILE855  ILE856  LEU859 
 GLN863  VAL871  LEU872  VAL874  VAL875  SER876  ALA877  MET878  ASN879  SER880 
 SER881  PRO882  VAL883  TYR884  ARG885  LEU886  ASP887  HIS888  THR889  PHE890 
 GLU891  GLN892  ILE893  PRO894  SER895  ARG896  GLN897  LYS898  LYS899  ILE900 
 LEU901  GLU902  GLU903  ALA904  HIS905  GLU906  LEU907  SER908  GLU909  ASP910 
 LYS914 

> <Gold.Score>
     Fitness  S(hb_ext) S(vdw_ext)  S(hb_int)    S(int)      intcor
     65.57       0.00      51.24       0.00      -4.89      -8.43

> <Gold.Goldscore.Fitness>
65.5660

> <Gold.Goldscore.Internal.Vdw>
-6.7172

> <Gold.Goldscore.Internal.Torsion>
-6.6075

> <Gold.Goldscore.External.Vdw>
51.2410

> <Gold.Goldscore.Internal.HBond>
0.0000

> <Gold.Goldscore.External.HBond>
0.0000

> <Gold.Goldscore.Internal.Correction>
-8.4343

> <Gold.Goldscore.Reference.RMSD>
8.4129

> <Gold.Goldscore.Internal.Vdw.Weighted>
-6.7172

> <Gold.Goldscore.Internal.Torsion.Weighted>
-6.6075

> <Gold.Goldscore.External.Vdw.Weighted>
70.4564

> <Gold.Goldscore.Internal.HBond.Weighted>
0.0000

> <Gold.Goldscore.External.HBond.Weighted>
0.0000

> <Gold.Goldscore.Internal.Correction.Weighted>
-8.4343

> <Gold.Rescore>
     Score         DG    S(hbond)    S(metal)    S(lipo)     H(rot)  DE(clash)    DE(int)     intcor
     27.73     -34.02       0.00        0.00     278.11       1.56       5.27       1.02       ----

> <Gold.Chemscore.Fitness>
27.7296

> <Gold.Chemscore.DG>
-34.0199

> <Gold.Chemscore.ZeroCoef>
-5.4800

> <Gold.Chemscore.Hbond>
0.0000

> <Gold.Chemscore.Metal>
0.0000

> <Gold.Chemscore.Lipo>
278.1055

> <Gold.Chemscore.Internal_Hbond>
0.0000

> <Gold.Chemscore.DEClash>
5.2734

> <Gold.Chemscore.DEInternal>
1.0169

> <Gold.Chemscore.Rot>
1.5619

> <Gold.Chemscore.Internal.Correction>
   9.000000E+99

> <Gold.Chemscore.Reference.RMSD>
0.0000

> <Gold.Chemscore.Hbond.Weighted>
-0.0000

> <Gold.Chemscore.Metal.Weighted>
-0.0000

> <Gold.Chemscore.Lipo.Weighted>
-32.5383

> <Gold.Chemscore.Internal_Hbond.Weighted>
0.0000

> <Gold.Chemscore.DEClash.Weighted>
5.2734

> <Gold.Chemscore.DEInternal.Weighted>
1.0169

> <Gold.Chemscore.Rot.Weighted>
3.9985

> <Gold.Chemscore.Internal.Correction.Weighted>
   9.000000E+99

> <Gold.Reference.RMSD>
8.4129

