#       Name:                crystal
#       Creating user name   hitesit
#       Creation time:       Mon Nov  6 23:23:21 2023


#       File generated by GOLD software.
#

@<TRIPOS>MOLECULE
crystal|crystal_prep|mol2|1|dock8
    52    55     1
SMALL
NO_CHARGES


@<TRIPOS>ATOM
      1 O1          19.7112 -29.0839  48.4744 O.3            1 RES1               0.0000
      2 C2          20.2904 -29.6485  47.3651 C.ar           1 RES1               0.0000
      3 C3          20.5685 -28.6692  49.5286 C.3            1 RES1               0.0000
      4 C4          19.4100 -30.1008  46.3707 C.ar           1 RES1               0.0000
      5 C5          21.6693 -29.8005  47.1822 C.ar           1 RES1               0.0000
      6 O6          18.0725 -29.9313  46.6200 O.3            1 RES1               0.0000
      7 C7          19.9346 -30.6789  45.2131 C.ar           1 RES1               0.0000
      8 C8          22.2023 -30.3798  46.0376 C.ar           1 RES1               0.0000
      9 C9          17.1610 -30.2038  45.5653 C.3            1 RES1               0.0000
     10 C10         21.3356 -30.8146  45.0297 C.ar           1 RES1               0.0000
     11 N11         23.5293 -30.5010  45.9525 N.ar           1 RES1               0.0000
     12 C12         21.9550 -31.3742  43.8969 C.ar           1 RES1               0.0000
     13 C13         24.0247 -31.0743  44.8469 C.ar           1 RES1               0.0000
     14 N14         23.2874 -31.5294  43.8244 N.ar           1 RES1               0.0000
     15 N15         21.1900 -31.8323  42.8328 N.pl3          1 RES1               0.0000
     16 C16         25.5074 -31.2604  44.7674 C.3            1 RES1               0.0000
     17 C17         21.6949 -32.8476  41.9219 C.3            1 RES1               0.0000
     18 C18         21.2255 -34.1985  42.4534 C.ar           1 RES1               0.0000
     19 C19         21.2399 -32.5590  40.4876 C.3            1 RES1               0.0000
     20 C20         22.0870 -35.1064  43.0991 C.ar           1 RES1               0.0000
     21 C21         19.8930 -34.5817  42.2415 C.ar           1 RES1               0.0000
     22 C22         21.6381 -36.3582  43.5570 C.ar           1 RES1               0.0000
     23 C23         19.4298 -35.8170  42.6860 C.ar           1 RES1               0.0000
     24 C24         22.5417 -37.2924  44.2328 C.2            1 RES1               0.0000
     25 C25         20.2948 -36.6952  43.3407 C.ar           1 RES1               0.0000
     26 C26         22.2768 -38.3705  44.9743 C.2            1 RES1               0.0000
     27 C27         24.0281 -37.2162  44.2161 C.3            1 RES1               0.0000
     28 N28         23.4003 -38.9959  45.4419 N.2            1 RES1               0.0000
     29 N29         24.4294 -38.3836  45.0445 N.2            1 RES1               0.0000
     30 H1          19.9728 -28.2437  50.3349 H              1 RES1               0.0000
     31 H2          21.2645 -27.9188  49.1566 H              1 RES1               0.0000
     32 H3          21.1253 -29.5272  49.9025 H              1 RES1               0.0000
     33 H4          22.3461 -29.4537  47.9617 H              1 RES1               0.0000
     34 H5          19.2570 -31.0318  44.4372 H              1 RES1               0.0000
     35 H6          17.2632 -31.2432  45.2567 H              1 RES1               0.0000
     36 H7          16.1434 -30.0257  45.9098 H              1 RES1               0.0000
     37 H8          17.3777 -29.5513  44.7207 H              1 RES1               0.0000
     38 H9          20.2604 -31.4514  42.6878 H              1 RES1               0.0000
     39 H10         25.7635 -31.7343  43.8209 H              1 RES1               0.0000
     40 H11         25.8387 -31.8915  45.5907 H              1 RES1               0.0000
     41 H12         25.9990 -30.2908  44.8325 H              1 RES1               0.0000
     42 H13         22.7833 -32.8253  41.9496 H              1 RES1               0.0000
     43 H14         21.6107 -31.5828  40.1786 H              1 RES1               0.0000
     44 H15         20.1518 -32.5646  40.4438 H              1 RES1               0.0000
     45 H16         21.6340 -33.3246  39.8208 H              1 RES1               0.0000
     46 H17         23.1302 -34.8314  43.2481 H              1 RES1               0.0000
     47 H18         19.2137 -33.9059  41.7239 H              1 RES1               0.0000
     48 H19         18.3906 -36.0986  42.5225 H              1 RES1               0.0000
     49 H20         19.9204 -37.6567  43.6887 H              1 RES1               0.0000
     50 H21         21.2667 -38.7178  45.1861 H              1 RES1               0.0000
     51 H22         24.3777 -36.2840  44.6574 H              1 RES1               0.0000
     52 H23         24.4137 -37.3046  43.2015 H              1 RES1               0.0000
@<TRIPOS>BOND
    1    1    2 1     
    2    1    3 1     
    3    2    4 ar    
    4    2    5 ar    
    5    4    6 1     
    6    4    7 ar    
    7    5    8 ar    
    8    6    9 1     
    9    7   10 ar    
   10    8   11 ar    
   11   10   12 ar    
   12   11   13 ar    
   13   12   14 ar    
   14   12   15 1     
   15   13   16 1     
   16   15   17 1     
   17   17   18 1     
   18   17   19 1     
   19   18   20 ar    
   20   18   21 ar    
   21   20   22 ar    
   22   21   23 ar    
   23   22   24 1     
   24   22   25 ar    
   25   24   26 2     
   26   24   27 1     
   27   26   28 1     
   28   27   29 1     
   29    8   10 ar    
   30   13   14 ar    
   31   23   25 ar    
   32   28   29 2     
   33    3   30 1     
   34    3   31 1     
   35    3   32 1     
   36    5   33 1     
   37    7   34 1     
   38    9   35 1     
   39    9   36 1     
   40    9   37 1     
   41   15   38 1     
   42   16   39 1     
   43   16   40 1     
   44   16   41 1     
   45   17   42 1     
   46   19   43 1     
   47   19   44 1     
   48   19   45 1     
   49   20   46 1     
   50   21   47 1     
   51   23   48 1     
   52   25   49 1     
   53   26   50 1     
   54   27   51 1     
   55   27   52 1     
@<TRIPOS>SUBSTRUCTURE
      1 RES1           1
@<TRIPOS>SET
DONOR_HYDROGENS      STATIC     ATOMS    <user>   **** ""
1 38
ATOM$RED        STATIC     ATOMS    COLORGROUP SYSTEM
1 38
@<TRIPOS>COMMENT
> <Gold.Version>
2022.3.0

> <Gold.Id.Protein>
unknown|5ovf_clean|pdb

> <Gold.Protein.ActiveResidues>
 ILE839  VAL852  ILE856  LEU859  VAL871  LEU872  GLU873  VAL874  VAL875  SER876 
 ALA877  MET878  ASN879  SER880  SER881  PRO882  VAL883  TYR884  ARG885  LEU886 
 ASP887  HIS888  THR889  PHE890  GLU891  GLN892  ILE893  PRO894  SER895  ARG896 
 GLN897  LYS898  LYS899  ILE900  LEU901  GLU902  GLU903  ALA904  HIS905  GLU906 
 LEU907  SER908  GLU909  LYS914  GLU836  ILE839  VAL852  ILE855  ILE856  LEU859 
 GLN863  VAL871  LEU872  VAL874  VAL875  SER876  ALA877  MET878  ASN879  SER880 
 SER881  PRO882  VAL883  TYR884  ARG885  LEU886  ASP887  HIS888  THR889  PHE890 
 GLU891  GLN892  ILE893  PRO894  SER895  ARG896  GLN897  LYS898  LYS899  ILE900 
 LEU901  GLU902  GLU903  ALA904  HIS905  GLU906  LEU907  SER908  GLU909  ASP910 
 LYS914 

> <Gold.Score>
     Fitness  S(hb_ext) S(vdw_ext)  S(hb_int)    S(int)      intcor
     76.99       1.46      58.90       0.00      -5.45      -8.43

> <Gold.Goldscore.Fitness>
76.9922

> <Gold.Goldscore.Internal.Vdw>
-10.8032

> <Gold.Goldscore.Internal.Torsion>
-3.0832

> <Gold.Goldscore.External.Vdw>
58.8967

> <Gold.Goldscore.Internal.HBond>
0.0000

> <Gold.Goldscore.External.HBond>
1.4614

> <Gold.Goldscore.Internal.Correction>
-8.4343

> <Gold.Goldscore.Reference.RMSD>
0.6901

> <Gold.Goldscore.Hbonds>
donor molecule, donor type, donor heavy atom, donor atom, acceptor molecule, acceptor atom, score
      L1  H    15    38       P1  2553  0.73

> <Gold.Goldscore.Internal.Vdw.Weighted>
-10.8032

> <Gold.Goldscore.Internal.Torsion.Weighted>
-3.0832

> <Gold.Goldscore.External.Vdw.Weighted>
80.9830

> <Gold.Goldscore.Internal.HBond.Weighted>
0.0000

> <Gold.Goldscore.External.HBond.Weighted>
1.4614

> <Gold.Goldscore.Internal.Correction.Weighted>
-8.4343

> <Gold.Rescore>
     Score         DG    S(hbond)    S(metal)    S(lipo)     H(rot)  DE(clash)    DE(int)     intcor
     34.14     -35.62       0.97        0.00     264.17       1.56       0.47       1.01       ----

> <Gold.Chemscore.Fitness>
34.1427

> <Gold.Chemscore.DG>
-35.6223

> <Gold.Chemscore.ZeroCoef>
-5.4800

> <Gold.Chemscore.Hbond>
0.9681

> <Gold.Chemscore.Metal>
0.0000

> <Gold.Chemscore.Lipo>
264.1668

> <Gold.Chemscore.Internal_Hbond>
0.0000

> <Gold.Chemscore.DEClash>
0.4689

> <Gold.Chemscore.DEInternal>
1.0107

> <Gold.Chemscore.Rot>
1.5619

> <Gold.Chemscore.Internal.Correction>
   9.000000E+99

> <Gold.Chemscore.Reference.RMSD>
0.0000

> <Gold.Chemscore.Hbonds>
donor molecule, donor type, donor heavy atom, donor atom, acceptor molecule, acceptor atom, score
      L1  H    15    38       P1  2553  0.76

> <Gold.Chemscore.Hbond.Weighted>
-3.2333

> <Gold.Chemscore.Metal.Weighted>
-0.0000

> <Gold.Chemscore.Lipo.Weighted>
-30.9075

> <Gold.Chemscore.Internal_Hbond.Weighted>
0.0000

> <Gold.Chemscore.DEClash.Weighted>
0.4689

> <Gold.Chemscore.DEInternal.Weighted>
1.0107

> <Gold.Chemscore.Rot.Weighted>
3.9985

> <Gold.Chemscore.Internal.Correction.Weighted>
   9.000000E+99

> <Gold.Reference.RMSD>
0.6901

