#       Name:                crystal
#       Creating user name   hitesit
#       Creation time:       Mon Nov  6 23:22:44 2023


#       File generated by GOLD software.
#

@<TRIPOS>MOLECULE
crystal|crystal_prep|mol2|1|dock2
    52    55     1
SMALL
NO_CHARGES


@<TRIPOS>ATOM
      1 O1          19.9903 -29.3439  48.5584 O.3            1 RES1               0.0000
      2 C2          20.5339 -29.8458  47.4019 C.ar           1 RES1               0.0000
      3 C3          20.8834 -28.9267  49.5815 C.3            1 RES1               0.0000
      4 C4          19.6222 -30.2527  46.4162 C.ar           1 RES1               0.0000
      5 C5          21.9066 -29.9776  47.1641 C.ar           1 RES1               0.0000
      6 O6          18.2932 -30.1065  46.7198 O.3            1 RES1               0.0000
      7 C7          20.1097 -30.7660  45.2128 C.ar           1 RES1               0.0000
      8 C8          22.4029 -30.4927  45.9733 C.ar           1 RES1               0.0000
      9 C9          17.3487 -30.3052  45.6778 C.3            1 RES1               0.0000
     10 C10         21.5043 -30.8813  44.9745 C.ar           1 RES1               0.0000
     11 N11         23.7268 -30.5991  45.8365 N.ar           1 RES1               0.0000
     12 C12         22.0872 -31.3767  43.7934 C.ar           1 RES1               0.0000
     13 C13         24.1869 -31.1106  44.6861 C.ar           1 RES1               0.0000
     14 N14         23.4172 -31.5177  43.6672 N.ar           1 RES1               0.0000
     15 N15         21.2884 -31.7849  42.7339 N.pl3          1 RES1               0.0000
     16 C16         25.6669 -31.2810  44.5461 C.3            1 RES1               0.0000
     17 C17         21.7053 -32.8565  41.8432 C.3            1 RES1               0.0000
     18 C18         21.1650 -34.1586  42.4266 C.ar           1 RES1               0.0000
     19 C19         21.2339 -32.5814  40.4116 C.3            1 RES1               0.0000
     20 C20         21.9908 -35.1237  43.0350 C.ar           1 RES1               0.0000
     21 C21         19.7959 -34.4371  42.3031 C.ar           1 RES1               0.0000
     22 C22         21.4741 -36.3296  43.5418 C.ar           1 RES1               0.0000
     23 C23         19.2653 -35.6256  42.7972 C.ar           1 RES1               0.0000
     24 C24         22.3415 -37.3238  44.1781 C.2            1 RES1               0.0000
     25 C25         20.0976 -36.5612  43.4138 C.ar           1 RES1               0.0000
     26 C26         22.0360 -38.4243  44.8695 C.2            1 RES1               0.0000
     27 C27         23.8298 -37.2984  44.1702 C.3            1 RES1               0.0000
     28 N28         23.1349 -39.1085  45.3125 N.2            1 RES1               0.0000
     29 N29         24.1864 -38.5149  44.9466 N.2            1 RES1               0.0000
     30 H1          20.3133 -28.5545  50.4314 H              1 RES1               0.0000
     31 H2          21.5267 -28.1346  49.2010 H              1 RES1               0.0000
     32 H3          21.4947 -29.7711  49.8962 H              1 RES1               0.0000
     33 H4          22.6079 -29.6664  47.9369 H              1 RES1               0.0000
     34 H5          19.4076 -31.0834  44.4433 H              1 RES1               0.0000
     35 H6          17.4422 -31.3192  45.2915 H              1 RES1               0.0000
     36 H7          16.3424 -30.1563  46.0667 H              1 RES1               0.0000
     37 H8          17.5372 -29.5925  44.8763 H              1 RES1               0.0000
     38 H9          20.3962 -31.3267  42.5779 H              1 RES1               0.0000
     39 H10         25.8928 -31.7033  43.5681 H              1 RES1               0.0000
     40 H11         26.0304 -31.9514  45.3236 H              1 RES1               0.0000
     41 H12         26.1548 -30.3124  44.6447 H              1 RES1               0.0000
     42 H13         22.7933 -32.9029  41.8452 H              1 RES1               0.0000
     43 H14         21.6577 -31.6403  40.0644 H              1 RES1               0.0000
     44 H15         20.1468 -32.5188  40.3931 H              1 RES1               0.0000
     45 H16         21.5621 -33.3897  39.7598 H              1 RES1               0.0000
     46 H17         23.0596 -34.9307  43.1152 H              1 RES1               0.0000
     47 H18         19.1411 -33.7162  41.8158 H              1 RES1               0.0000
     48 H19         18.1991 -35.8257  42.7025 H              1 RES1               0.0000
     49 H20         19.6710 -37.4853  43.8013 H              1 RES1               0.0000
     50 H21         21.0134 -38.7456  45.0618 H              1 RES1               0.0000
     51 H22         24.2089 -36.3996  44.6542 H              1 RES1               0.0000
     52 H23         24.2173 -37.3545  43.1540 H              1 RES1               0.0000
@<TRIPOS>BOND
    1    1    2 1     
    2    1    3 1     
    3    2    4 ar    
    4    2    5 ar    
    5    4    6 1     
    6    4    7 ar    
    7    5    8 ar    
    8    6    9 1     
    9    7   10 ar    
   10    8   11 ar    
   11   10   12 ar    
   12   11   13 ar    
   13   12   14 ar    
   14   12   15 1     
   15   13   16 1     
   16   15   17 1     
   17   17   18 1     
   18   17   19 1     
   19   18   20 ar    
   20   18   21 ar    
   21   20   22 ar    
   22   21   23 ar    
   23   22   24 1     
   24   22   25 ar    
   25   24   26 2     
   26   24   27 1     
   27   26   28 1     
   28   27   29 1     
   29    8   10 ar    
   30   13   14 ar    
   31   23   25 ar    
   32   28   29 2     
   33    3   30 1     
   34    3   31 1     
   35    3   32 1     
   36    5   33 1     
   37    7   34 1     
   38    9   35 1     
   39    9   36 1     
   40    9   37 1     
   41   15   38 1     
   42   16   39 1     
   43   16   40 1     
   44   16   41 1     
   45   17   42 1     
   46   19   43 1     
   47   19   44 1     
   48   19   45 1     
   49   20   46 1     
   50   21   47 1     
   51   23   48 1     
   52   25   49 1     
   53   26   50 1     
   54   27   51 1     
   55   27   52 1     
@<TRIPOS>SUBSTRUCTURE
      1 RES1           1
@<TRIPOS>SET
DONOR_HYDROGENS      STATIC     ATOMS    <user>   **** ""
1 38
ATOM$RED        STATIC     ATOMS    COLORGROUP SYSTEM
1 38
@<TRIPOS>COMMENT
> <Gold.Version>
2022.3.0

> <Gold.Id.Protein>
unknown|5ovf_clean|pdb

> <Gold.Protein.ActiveResidues>
 ILE839  VAL852  ILE856  LEU859  VAL871  LEU872  GLU873  VAL874  VAL875  SER876 
 ALA877  MET878  ASN879  SER880  SER881  PRO882  VAL883  TYR884  ARG885  LEU886 
 ASP887  HIS888  THR889  PHE890  GLU891  GLN892  ILE893  PRO894  SER895  ARG896 
 GLN897  LYS898  LYS899  ILE900  LEU901  GLU902  GLU903  ALA904  HIS905  GLU906 
 LEU907  SER908  GLU909  LYS914  GLU836  ILE839  VAL852  ILE855  ILE856  LEU859 
 GLN863  VAL871  LEU872  VAL874  VAL875  SER876  ALA877  MET878  ASN879  SER880 
 SER881  PRO882  VAL883  TYR884  ARG885  LEU886  ASP887  HIS888  THR889  PHE890 
 GLU891  GLN892  ILE893  PRO894  SER895  ARG896  GLN897  LYS898  LYS899  ILE900 
 LEU901  GLU902  GLU903  ALA904  HIS905  GLU906  LEU907  SER908  GLU909  ASP910 
 LYS914 

> <Gold.Score>
     Fitness  S(hb_ext) S(vdw_ext)  S(hb_int)    S(int)      intcor
     77.66       0.81      58.83       0.00      -4.03      -8.43

> <Gold.Goldscore.Fitness>
77.6643

> <Gold.Goldscore.Internal.Vdw>
-9.0232

> <Gold.Goldscore.Internal.Torsion>
-3.4415

> <Gold.Goldscore.External.Vdw>
58.8259

> <Gold.Goldscore.Internal.HBond>
0.0000

> <Gold.Goldscore.External.HBond>
0.8090

> <Gold.Goldscore.Internal.Correction>
-8.4343

> <Gold.Goldscore.Reference.RMSD>
0.6897

> <Gold.Goldscore.Hbonds>
donor molecule, donor type, donor heavy atom, donor atom, acceptor molecule, acceptor atom, score
      L1  H    15    38       P1  2553  0.40

> <Gold.Goldscore.Internal.Vdw.Weighted>
-9.0232

> <Gold.Goldscore.Internal.Torsion.Weighted>
-3.4415

> <Gold.Goldscore.External.Vdw.Weighted>
80.8857

> <Gold.Goldscore.Internal.HBond.Weighted>
0.0000

> <Gold.Goldscore.External.HBond.Weighted>
0.8090

> <Gold.Goldscore.Internal.Correction.Weighted>
-8.4343

> <Gold.Rescore>
     Score         DG    S(hbond)    S(metal)    S(lipo)     H(rot)  DE(clash)    DE(int)     intcor
     32.64     -34.38       0.89        0.00     255.62       1.56       0.75       0.98       ----

> <Gold.Chemscore.Fitness>
32.6440

> <Gold.Chemscore.DG>
-34.3777

> <Gold.Chemscore.ZeroCoef>
-5.4800

> <Gold.Chemscore.Hbond>
0.8948

> <Gold.Chemscore.Metal>
0.0000

> <Gold.Chemscore.Lipo>
255.6198

> <Gold.Chemscore.Internal_Hbond>
0.0000

> <Gold.Chemscore.DEClash>
0.7544

> <Gold.Chemscore.DEInternal>
0.9793

> <Gold.Chemscore.Rot>
1.5619

> <Gold.Chemscore.Internal.Correction>
   9.000000E+99

> <Gold.Chemscore.Reference.RMSD>
0.0000

> <Gold.Chemscore.Hbonds>
donor molecule, donor type, donor heavy atom, donor atom, acceptor molecule, acceptor atom, score
      L1  H    15    38       P1  2553  0.74

> <Gold.Chemscore.Hbond.Weighted>
-2.9887

> <Gold.Chemscore.Metal.Weighted>
-0.0000

> <Gold.Chemscore.Lipo.Weighted>
-29.9075

> <Gold.Chemscore.Internal_Hbond.Weighted>
0.0000

> <Gold.Chemscore.DEClash.Weighted>
0.7544

> <Gold.Chemscore.DEInternal.Weighted>
0.9793

> <Gold.Chemscore.Rot.Weighted>
3.9985

> <Gold.Chemscore.Internal.Correction.Weighted>
   9.000000E+99

> <Gold.Reference.RMSD>
0.6897

