#       Name:                crystal
#       Creating user name   hitesit
#       Creation time:       Mon Nov  6 23:23:26 2023


#       File generated by GOLD software.
#

@<TRIPOS>MOLECULE
crystal|crystal_prep|mol2|1|dock9
    52    55     1
SMALL
NO_CHARGES


@<TRIPOS>ATOM
      1 O1          19.9374 -28.9949  48.4402 O.3            1 RES1               0.0000
      2 C2          20.4896 -29.6192  47.3492 C.ar           1 RES1               0.0000
      3 C3          20.8177 -28.5504  49.4629 C.3            1 RES1               0.0000
      4 C4          19.5884 -30.0673  46.3716 C.ar           1 RES1               0.0000
      5 C5          21.8606 -29.8340  47.1693 C.ar           1 RES1               0.0000
      6 O6          18.2597 -29.8345  46.6173 O.3            1 RES1               0.0000
      7 C7          20.0854 -30.7043  45.2330 C.ar           1 RES1               0.0000
      8 C8          22.3659 -30.4721  46.0437 C.ar           1 RES1               0.0000
      9 C9          17.3363 -30.0899  45.5688 C.3            1 RES1               0.0000
     10 C10         21.4791 -30.9037  45.0520 C.ar           1 RES1               0.0000
     11 N11         23.6865 -30.6508  45.9606 N.ar           1 RES1               0.0000
     12 C12         22.0715 -31.5255  43.9373 C.ar           1 RES1               0.0000
     13 C13         24.1546 -31.2801  44.8737 C.ar           1 RES1               0.0000
     14 N14         23.3962 -31.7379  43.8679 N.ar           1 RES1               0.0000
     15 N15         21.2851 -31.9864  42.8902 N.pl3          1 RES1               0.0000
     16 C16         25.6281 -31.5299  44.7981 C.3            1 RES1               0.0000
     17 C17         21.7269 -33.0797  42.0387 C.3            1 RES1               0.0000
     18 C18         21.1569 -34.3655  42.6300 C.ar           1 RES1               0.0000
     19 C19         21.3098 -32.8332  40.5852 C.3            1 RES1               0.0000
     20 C20         21.9517 -35.3167  43.2986 C.ar           1 RES1               0.0000
     21 C21         19.7937 -34.6440  42.4528 C.ar           1 RES1               0.0000
     22 C22         21.4089 -36.5083  43.8121 C.ar           1 RES1               0.0000
     23 C23         19.2378 -35.8185  42.9526 C.ar           1 RES1               0.0000
     24 C24         22.2440 -37.4881  44.5111 C.2            1 RES1               0.0000
     25 C25         20.0387 -36.7400  43.6289 C.ar           1 RES1               0.0000
     26 C26         21.9041 -38.5098  45.3004 C.2            1 RES1               0.0000
     27 C27         23.7310 -37.5385  44.4677 C.3            1 RES1               0.0000
     28 N28         22.9801 -39.2088  45.7753 N.2            1 RES1               0.0000
     29 N29         24.0490 -38.7019  45.3367 N.2            1 RES1               0.0000
     30 H1          20.2420 -28.0783  50.2575 H              1 RES1               0.0000
     31 H2          21.5220 -27.8309  49.0481 H              1 RES1               0.0000
     32 H3          21.3639 -29.4016  49.8668 H              1 RES1               0.0000
     33 H4          22.5533 -29.4899  47.9359 H              1 RES1               0.0000
     34 H5          19.3915 -31.0543  44.4702 H              1 RES1               0.0000
     35 H6          17.3929 -31.1392  45.2828 H              1 RES1               0.0000
     36 H7          16.3277 -29.8605  45.9094 H              1 RES1               0.0000
     37 H8          17.5802 -29.4659  44.7103 H              1 RES1               0.0000
     38 H9          20.3845 -31.5520  42.7154 H              1 RES1               0.0000
     39 H10         25.8617 -32.0449  43.8674 H              1 RES1               0.0000
     40 H11         25.9355 -32.1467  45.6413 H              1 RES1               0.0000
     41 H12         26.1595 -30.5799  44.8304 H              1 RES1               0.0000
     42 H13         22.8138 -33.1326  42.0814 H              1 RES1               0.0000
     43 H14         21.7524 -31.9025  40.2334 H              1 RES1               0.0000
     44 H15         20.2246 -32.7645  40.5256 H              1 RES1               0.0000
     45 H16         21.6560 -33.6575  39.9634 H              1 RES1               0.0000
     46 H17         23.0165 -35.1241  43.4214 H              1 RES1               0.0000
     47 H18         19.1636 -33.9342  41.9189 H              1 RES1               0.0000
     48 H19         18.1761 -36.0185  42.8155 H              1 RES1               0.0000
     49 H20         19.5923 -37.6530  44.0201 H              1 RES1               0.0000
     50 H21         20.8727 -38.7618  45.5423 H              1 RES1               0.0000
     51 H22         24.1659 -36.6224  44.8647 H              1 RES1               0.0000
     52 H23         24.0881 -37.6991  43.4515 H              1 RES1               0.0000
@<TRIPOS>BOND
    1    1    2 1     
    2    1    3 1     
    3    2    4 ar    
    4    2    5 ar    
    5    4    6 1     
    6    4    7 ar    
    7    5    8 ar    
    8    6    9 1     
    9    7   10 ar    
   10    8   11 ar    
   11   10   12 ar    
   12   11   13 ar    
   13   12   14 ar    
   14   12   15 1     
   15   13   16 1     
   16   15   17 1     
   17   17   18 1     
   18   17   19 1     
   19   18   20 ar    
   20   18   21 ar    
   21   20   22 ar    
   22   21   23 ar    
   23   22   24 1     
   24   22   25 ar    
   25   24   26 2     
   26   24   27 1     
   27   26   28 1     
   28   27   29 1     
   29    8   10 ar    
   30   13   14 ar    
   31   23   25 ar    
   32   28   29 2     
   33    3   30 1     
   34    3   31 1     
   35    3   32 1     
   36    5   33 1     
   37    7   34 1     
   38    9   35 1     
   39    9   36 1     
   40    9   37 1     
   41   15   38 1     
   42   16   39 1     
   43   16   40 1     
   44   16   41 1     
   45   17   42 1     
   46   19   43 1     
   47   19   44 1     
   48   19   45 1     
   49   20   46 1     
   50   21   47 1     
   51   23   48 1     
   52   25   49 1     
   53   26   50 1     
   54   27   51 1     
   55   27   52 1     
@<TRIPOS>SUBSTRUCTURE
      1 RES1           1
@<TRIPOS>SET
DONOR_HYDROGENS      STATIC     ATOMS    <user>   **** ""
1 38
ATOM$RED        STATIC     ATOMS    COLORGROUP SYSTEM
1 38
@<TRIPOS>COMMENT
> <Gold.Version>
2022.3.0

> <Gold.Id.Protein>
unknown|5ovf_clean|pdb

> <Gold.Protein.ActiveResidues>
 ILE839  VAL852  ILE856  LEU859  VAL871  LEU872  GLU873  VAL874  VAL875  SER876 
 ALA877  MET878  ASN879  SER880  SER881  PRO882  VAL883  TYR884  ARG885  LEU886 
 ASP887  HIS888  THR889  PHE890  GLU891  GLN892  ILE893  PRO894  SER895  ARG896 
 GLN897  LYS898  LYS899  ILE900  LEU901  GLU902  GLU903  ALA904  HIS905  GLU906 
 LEU907  SER908  GLU909  LYS914  GLU836  ILE839  VAL852  ILE855  ILE856  LEU859 
 GLN863  VAL871  LEU872  VAL874  VAL875  SER876  ALA877  MET878  ASN879  SER880 
 SER881  PRO882  VAL883  TYR884  ARG885  LEU886  ASP887  HIS888  THR889  PHE890 
 GLU891  GLN892  ILE893  PRO894  SER895  ARG896  GLN897  LYS898  LYS899  ILE900 
 LEU901  GLU902  GLU903  ALA904  HIS905  GLU906  LEU907  SER908  GLU909  ASP910 
 LYS914 

> <Gold.Score>
     Fitness  S(hb_ext) S(vdw_ext)  S(hb_int)    S(int)      intcor
     76.78       1.22      58.40       0.00      -4.74      -8.43

> <Gold.Goldscore.Fitness>
76.7847

> <Gold.Goldscore.Internal.Vdw>
-9.9081

> <Gold.Goldscore.Internal.Torsion>
-3.2617

> <Gold.Goldscore.External.Vdw>
58.3977

> <Gold.Goldscore.Internal.HBond>
0.0000

> <Gold.Goldscore.External.HBond>
1.2234

> <Gold.Goldscore.Internal.Correction>
-8.4343

> <Gold.Goldscore.Reference.RMSD>
0.6347

> <Gold.Goldscore.Hbonds>
donor molecule, donor type, donor heavy atom, donor atom, acceptor molecule, acceptor atom, score
      L1  H    15    38       P1  2553  0.61

> <Gold.Goldscore.Internal.Vdw.Weighted>
-9.9081

> <Gold.Goldscore.Internal.Torsion.Weighted>
-3.2617

> <Gold.Goldscore.External.Vdw.Weighted>
80.2969

> <Gold.Goldscore.Internal.HBond.Weighted>
0.0000

> <Gold.Goldscore.External.HBond.Weighted>
1.2234

> <Gold.Goldscore.Internal.Correction.Weighted>
-8.4343

> <Gold.Rescore>
     Score         DG    S(hbond)    S(metal)    S(lipo)     H(rot)  DE(clash)    DE(int)     intcor
     33.73     -35.07       0.98        0.00     259.13       1.56       0.41       0.94       ----

> <Gold.Chemscore.Fitness>
33.7253

> <Gold.Chemscore.DG>
-35.0722

> <Gold.Chemscore.ZeroCoef>
-5.4800

> <Gold.Chemscore.Hbond>
0.9798

> <Gold.Chemscore.Metal>
0.0000

> <Gold.Chemscore.Lipo>
259.1295

> <Gold.Chemscore.Internal_Hbond>
0.0000

> <Gold.Chemscore.DEClash>
0.4067

> <Gold.Chemscore.DEInternal>
0.9402

> <Gold.Chemscore.Rot>
1.5619

> <Gold.Chemscore.Internal.Correction>
   9.000000E+99

> <Gold.Chemscore.Reference.RMSD>
0.0000

> <Gold.Chemscore.Hbonds>
donor molecule, donor type, donor heavy atom, donor atom, acceptor molecule, acceptor atom, score
      L1  H    15    38       P1  2553  0.96

> <Gold.Chemscore.Hbond.Weighted>
-3.2725

> <Gold.Chemscore.Metal.Weighted>
-0.0000

> <Gold.Chemscore.Lipo.Weighted>
-30.3182

> <Gold.Chemscore.Internal_Hbond.Weighted>
0.0000

> <Gold.Chemscore.DEClash.Weighted>
0.4067

> <Gold.Chemscore.DEInternal.Weighted>
0.9402

> <Gold.Chemscore.Rot.Weighted>
3.9985

> <Gold.Chemscore.Internal.Correction.Weighted>
   9.000000E+99

> <Gold.Reference.RMSD>
0.6347

