#       Name:                crystal
#       Creating user name   hitesit
#       Creation time:       Mon Nov  6 23:23:14 2023


#       File generated by GOLD software.
#

@<TRIPOS>MOLECULE
crystal|crystal_prep|mol2|1|dock7
    52    55     1
SMALL
NO_CHARGES


@<TRIPOS>ATOM
      1 O1          19.9429 -29.0348  48.5145 O.3            1 RES1               0.0000
      2 C2          20.4808 -29.6080  47.3890 C.ar           1 RES1               0.0000
      3 C3          20.8395 -28.5949  49.5249 C.3            1 RES1               0.0000
      4 C4          19.5644 -30.0748  46.4347 C.ar           1 RES1               0.0000
      5 C5          21.8523 -29.7553  47.1533 C.ar           1 RES1               0.0000
      6 O6          18.2368 -29.9091  46.7349 O.3            1 RES1               0.0000
      7 C7          20.0460 -30.6621  45.2633 C.ar           1 RES1               0.0000
      8 C8          22.3428 -30.3437  45.9946 C.ar           1 RES1               0.0000
      9 C9          17.2829 -30.2677  45.7454 C.3            1 RES1               0.0000
     10 C10         21.4394 -30.7930  45.0261 C.ar           1 RES1               0.0000
     11 N11         23.6660 -30.4594  45.8585 N.ar           1 RES1               0.0000
     12 C12         22.0165 -31.3613  43.8754 C.ar           1 RES1               0.0000
     13 C13         24.1205 -31.0417  44.7400 C.ar           1 RES1               0.0000
     14 N14         23.3458 -31.5108  43.7520 N.ar           1 RES1               0.0000
     15 N15         21.2125 -31.8340  42.8471 N.pl3          1 RES1               0.0000
     16 C16         25.5998 -31.2215  44.6039 C.3            1 RES1               0.0000
     17 C17         21.7007 -32.8263  41.9023 C.3            1 RES1               0.0000
     18 C18         21.2437 -34.1904  42.4105 C.ar           1 RES1               0.0000
     19 C19         21.2172 -32.5044  40.4846 C.3            1 RES1               0.0000
     20 C20         22.1204 -35.1148  43.0108 C.ar           1 RES1               0.0000
     21 C21         19.9059 -34.5677  42.2224 C.ar           1 RES1               0.0000
     22 C22         21.6821 -36.3780  43.4474 C.ar           1 RES1               0.0000
     23 C23         19.4530 -35.8139  42.6465 C.ar           1 RES1               0.0000
     24 C24         22.6016 -37.3295  44.0759 C.2            1 RES1               0.0000
     25 C25         20.3335 -36.7089  43.2564 C.ar           1 RES1               0.0000
     26 C26         22.3546 -38.4344  44.7834 C.2            1 RES1               0.0000
     27 C27         24.0871 -37.2434  44.0387 C.3            1 RES1               0.0000
     28 N28         23.4889 -39.0686  45.2112 N.2            1 RES1               0.0000
     29 N29         24.5081 -38.4364  44.8194 N.2            1 RES1               0.0000
     30 H1          20.2737 -28.1653  50.3503 H              1 RES1               0.0000
     31 H2          21.5093 -27.8415  49.1129 H              1 RES1               0.0000
     32 H3          21.4227 -29.4407  49.8860 H              1 RES1               0.0000
     33 H4          22.5574 -29.3972  47.9021 H              1 RES1               0.0000
     34 H5          19.3401 -31.0263  44.5183 H              1 RES1               0.0000
     35 H6          17.3901 -31.3242  45.5039 H              1 RES1               0.0000
     36 H7          16.2791 -30.0820  46.1247 H              1 RES1               0.0000
     37 H8          17.4482 -29.6717  44.8490 H              1 RES1               0.0000
     38 H9          20.2658 -31.4803  42.7526 H              1 RES1               0.0000
     39 H10         25.8209 -31.7039  43.6530 H              1 RES1               0.0000
     40 H11         25.9666 -31.8425  45.4199 H              1 RES1               0.0000
     41 H12         26.0885 -30.2490  44.6398 H              1 RES1               0.0000
     42 H13         22.7894 -32.8028  41.9092 H              1 RES1               0.0000
     43 H14         21.5805 -31.5205  40.1918 H              1 RES1               0.0000
     44 H15         20.1284 -32.5109  40.4621 H              1 RES1               0.0000
     45 H16         21.5990 -33.2531  39.7921 H              1 RES1               0.0000
     46 H17         23.1672 -34.8440  43.1405 H              1 RES1               0.0000
     47 H18         19.2145 -33.8786  41.7398 H              1 RES1               0.0000
     48 H19         18.4097 -36.0910  42.5021 H              1 RES1               0.0000
     49 H20         19.9671 -37.6790  43.5889 H              1 RES1               0.0000
     50 H21         21.3500 -38.7951  44.9986 H              1 RES1               0.0000
     51 H22         24.4382 -36.3250  44.5068 H              1 RES1               0.0000
     52 H23         24.4571 -37.2940  43.0157 H              1 RES1               0.0000
@<TRIPOS>BOND
    1    1    2 1     
    2    1    3 1     
    3    2    4 ar    
    4    2    5 ar    
    5    4    6 1     
    6    4    7 ar    
    7    5    8 ar    
    8    6    9 1     
    9    7   10 ar    
   10    8   11 ar    
   11   10   12 ar    
   12   11   13 ar    
   13   12   14 ar    
   14   12   15 1     
   15   13   16 1     
   16   15   17 1     
   17   17   18 1     
   18   17   19 1     
   19   18   20 ar    
   20   18   21 ar    
   21   20   22 ar    
   22   21   23 ar    
   23   22   24 1     
   24   22   25 ar    
   25   24   26 2     
   26   24   27 1     
   27   26   28 1     
   28   27   29 1     
   29    8   10 ar    
   30   13   14 ar    
   31   23   25 ar    
   32   28   29 2     
   33    3   30 1     
   34    3   31 1     
   35    3   32 1     
   36    5   33 1     
   37    7   34 1     
   38    9   35 1     
   39    9   36 1     
   40    9   37 1     
   41   15   38 1     
   42   16   39 1     
   43   16   40 1     
   44   16   41 1     
   45   17   42 1     
   46   19   43 1     
   47   19   44 1     
   48   19   45 1     
   49   20   46 1     
   50   21   47 1     
   51   23   48 1     
   52   25   49 1     
   53   26   50 1     
   54   27   51 1     
   55   27   52 1     
@<TRIPOS>SUBSTRUCTURE
      1 RES1           1
@<TRIPOS>SET
DONOR_HYDROGENS      STATIC     ATOMS    <user>   **** ""
1 38
ATOM$RED        STATIC     ATOMS    COLORGROUP SYSTEM
1 38
@<TRIPOS>COMMENT
> <Gold.Version>
2022.3.0

> <Gold.Id.Protein>
unknown|5ovf_clean|pdb

> <Gold.Protein.ActiveResidues>
 ILE839  VAL852  ILE856  LEU859  VAL871  LEU872  GLU873  VAL874  VAL875  SER876 
 ALA877  MET878  ASN879  SER880  SER881  PRO882  VAL883  TYR884  ARG885  LEU886 
 ASP887  HIS888  THR889  PHE890  GLU891  GLN892  ILE893  PRO894  SER895  ARG896 
 GLN897  LYS898  LYS899  ILE900  LEU901  GLU902  GLU903  ALA904  HIS905  GLU906 
 LEU907  SER908  GLU909  LYS914  GLU836  ILE839  VAL852  ILE855  ILE856  LEU859 
 GLN863  VAL871  LEU872  VAL874  VAL875  SER876  ALA877  MET878  ASN879  SER880 
 SER881  PRO882  VAL883  TYR884  ARG885  LEU886  ASP887  HIS888  THR889  PHE890 
 GLU891  GLN892  ILE893  PRO894  SER895  ARG896  GLN897  LYS898  LYS899  ILE900 
 LEU901  GLU902  GLU903  ALA904  HIS905  GLU906  LEU907  SER908  GLU909  ASP910 
 LYS914 

> <Gold.Score>
     Fitness  S(hb_ext) S(vdw_ext)  S(hb_int)    S(int)      intcor
     76.50       1.57      58.49       0.00      -5.50      -8.43

> <Gold.Goldscore.Fitness>
76.5020

> <Gold.Goldscore.Internal.Vdw>
-11.0792

> <Gold.Goldscore.Internal.Torsion>
-2.8505

> <Gold.Goldscore.External.Vdw>
58.4927

> <Gold.Goldscore.Internal.HBond>
0.0000

> <Gold.Goldscore.External.HBond>
1.5698

> <Gold.Goldscore.Internal.Correction>
-8.4343

> <Gold.Goldscore.Reference.RMSD>
0.6186

> <Gold.Goldscore.Hbonds>
donor molecule, donor type, donor heavy atom, donor atom, acceptor molecule, acceptor atom, score
      L1  H    15    38       P1  2553  0.78

> <Gold.Goldscore.Internal.Vdw.Weighted>
-11.0792

> <Gold.Goldscore.Internal.Torsion.Weighted>
-2.8505

> <Gold.Goldscore.External.Vdw.Weighted>
80.4275

> <Gold.Goldscore.Internal.HBond.Weighted>
0.0000

> <Gold.Goldscore.External.HBond.Weighted>
1.5698

> <Gold.Goldscore.Internal.Correction.Weighted>
-8.4343

> <Gold.Rescore>
     Score         DG    S(hbond)    S(metal)    S(lipo)     H(rot)  DE(clash)    DE(int)     intcor
     34.40     -35.72       0.98        0.00     264.61       1.56       0.32       1.01       ----

> <Gold.Chemscore.Fitness>
34.3979

> <Gold.Chemscore.DG>
-35.7213

> <Gold.Chemscore.ZeroCoef>
-5.4800

> <Gold.Chemscore.Hbond>
0.9821

> <Gold.Chemscore.Metal>
0.0000

> <Gold.Chemscore.Lipo>
264.6107

> <Gold.Chemscore.Internal_Hbond>
0.0000

> <Gold.Chemscore.DEClash>
0.3171

> <Gold.Chemscore.DEInternal>
1.0062

> <Gold.Chemscore.Rot>
1.5619

> <Gold.Chemscore.Internal.Correction>
   9.000000E+99

> <Gold.Chemscore.Reference.RMSD>
0.0000

> <Gold.Chemscore.Hbonds>
donor molecule, donor type, donor heavy atom, donor atom, acceptor molecule, acceptor atom, score
      L1  H    15    38       P1  2553  0.81

> <Gold.Chemscore.Hbond.Weighted>
-3.2803

> <Gold.Chemscore.Metal.Weighted>
-0.0000

> <Gold.Chemscore.Lipo.Weighted>
-30.9594

> <Gold.Chemscore.Internal_Hbond.Weighted>
0.0000

> <Gold.Chemscore.DEClash.Weighted>
0.3171

> <Gold.Chemscore.DEInternal.Weighted>
1.0062

> <Gold.Chemscore.Rot.Weighted>
3.9985

> <Gold.Chemscore.Internal.Correction.Weighted>
   9.000000E+99

> <Gold.Reference.RMSD>
0.6186

