#       Name:                crystal
#       Creating user name   hitesit
#       Creation time:       Mon Nov  6 23:22:50 2023


#       File generated by GOLD software.
#

@<TRIPOS>MOLECULE
crystal|crystal_prep|mol2|1|dock3
    52    55     1
SMALL
NO_CHARGES


@<TRIPOS>ATOM
      1 O1          20.0615 -29.2749  48.5155 O.3            1 RES1               0.0000
      2 C2          20.5964 -29.7731  47.3534 C.ar           1 RES1               0.0000
      3 C3          20.9605 -28.9095  49.5532 C.3            1 RES1               0.0000
      4 C4          19.6772 -30.1915  46.3794 C.ar           1 RES1               0.0000
      5 C5          21.9674 -29.8908  47.0991 C.ar           1 RES1               0.0000
      6 O6          18.3504 -30.0589  46.6989 O.3            1 RES1               0.0000
      7 C7          20.1555 -30.7017  45.1711 C.ar           1 RES1               0.0000
      8 C8          22.4547 -30.4027  45.9033 C.ar           1 RES1               0.0000
      9 C9          17.3940 -30.3108  45.6796 C.3            1 RES1               0.0000
     10 C10         21.5482 -30.8027  44.9161 C.ar           1 RES1               0.0000
     11 N11         23.7779 -30.4954  45.7506 N.ar           1 RES1               0.0000
     12 C12         22.1220 -31.2940  43.7289 C.ar           1 RES1               0.0000
     13 C13         24.2294 -31.0040  44.5956 C.ar           1 RES1               0.0000
     14 N14         23.4518 -31.4211  43.5868 N.ar           1 RES1               0.0000
     15 N15         21.3148 -31.7126  42.6798 N.pl3          1 RES1               0.0000
     16 C16         25.7094 -31.1589  44.4379 C.3            1 RES1               0.0000
     17 C17         21.7291 -32.7862  41.7903 C.3            1 RES1               0.0000
     18 C18         21.1902 -34.0869  42.3781 C.ar           1 RES1               0.0000
     19 C19         21.2537 -32.5143  40.3594 C.3            1 RES1               0.0000
     20 C20         22.0177 -35.0508  42.9863 C.ar           1 RES1               0.0000
     21 C21         19.8207 -34.3655  42.2592 C.ar           1 RES1               0.0000
     22 C22         21.5021 -36.2556  43.4972 C.ar           1 RES1               0.0000
     23 C23         19.2914 -35.5528  42.7574 C.ar           1 RES1               0.0000
     24 C24         22.3712 -37.2486  44.1332 C.2            1 RES1               0.0000
     25 C25         20.1252 -36.4872  43.3737 C.ar           1 RES1               0.0000
     26 C26         22.0675 -38.3484  44.8264 C.2            1 RES1               0.0000
     27 C27         23.8595 -37.2223  44.1227 C.3            1 RES1               0.0000
     28 N28         23.1676 -39.0314  45.2683 N.2            1 RES1               0.0000
     29 N29         24.2181 -38.4377  44.8999 N.2            1 RES1               0.0000
     30 H1          20.3970 -28.5340  50.4060 H              1 RES1               0.0000
     31 H2          21.6343 -28.1335  49.1931 H              1 RES1               0.0000
     32 H3          21.5391 -29.7811  49.8556 H              1 RES1               0.0000
     33 H4          22.6746 -29.5708  47.8629 H              1 RES1               0.0000
     34 H5          19.4475 -31.0279  44.4107 H              1 RES1               0.0000
     35 H6          17.5004 -31.3358  45.3272 H              1 RES1               0.0000
     36 H7          16.3912 -30.1667  46.0790 H              1 RES1               0.0000
     37 H8          17.5569 -29.6233  44.8509 H              1 RES1               0.0000
     38 H9          20.4183 -31.2607  42.5307 H              1 RES1               0.0000
     39 H10         25.9279 -31.5806  43.4579 H              1 RES1               0.0000
     40 H11         26.0893 -31.8240  45.2121 H              1 RES1               0.0000
     41 H12         26.1881 -30.1851  44.5289 H              1 RES1               0.0000
     42 H13         22.8171 -32.8328  41.7894 H              1 RES1               0.0000
     43 H14         21.6767 -31.5740  40.0089 H              1 RES1               0.0000
     44 H15         20.1666 -32.4515  40.3438 H              1 RES1               0.0000
     45 H16         21.5800 -33.3240  39.7085 H              1 RES1               0.0000
     46 H17         23.0867 -34.8579  43.0630 H              1 RES1               0.0000
     47 H18         19.1647 -33.6455  41.7722 H              1 RES1               0.0000
     48 H19         18.2248 -35.7529  42.6662 H              1 RES1               0.0000
     49 H20         19.6996 -37.4103  43.7644 H              1 RES1               0.0000
     50 H21         21.0454 -38.6700  45.0208 H              1 RES1               0.0000
     51 H22         24.2389 -36.3227  44.6049 H              1 RES1               0.0000
     52 H23         24.2452 -37.2794  43.1059 H              1 RES1               0.0000
@<TRIPOS>BOND
    1    1    2 1     
    2    1    3 1     
    3    2    4 ar    
    4    2    5 ar    
    5    4    6 1     
    6    4    7 ar    
    7    5    8 ar    
    8    6    9 1     
    9    7   10 ar    
   10    8   11 ar    
   11   10   12 ar    
   12   11   13 ar    
   13   12   14 ar    
   14   12   15 1     
   15   13   16 1     
   16   15   17 1     
   17   17   18 1     
   18   17   19 1     
   19   18   20 ar    
   20   18   21 ar    
   21   20   22 ar    
   22   21   23 ar    
   23   22   24 1     
   24   22   25 ar    
   25   24   26 2     
   26   24   27 1     
   27   26   28 1     
   28   27   29 1     
   29    8   10 ar    
   30   13   14 ar    
   31   23   25 ar    
   32   28   29 2     
   33    3   30 1     
   34    3   31 1     
   35    3   32 1     
   36    5   33 1     
   37    7   34 1     
   38    9   35 1     
   39    9   36 1     
   40    9   37 1     
   41   15   38 1     
   42   16   39 1     
   43   16   40 1     
   44   16   41 1     
   45   17   42 1     
   46   19   43 1     
   47   19   44 1     
   48   19   45 1     
   49   20   46 1     
   50   21   47 1     
   51   23   48 1     
   52   25   49 1     
   53   26   50 1     
   54   27   51 1     
   55   27   52 1     
@<TRIPOS>SUBSTRUCTURE
      1 RES1           1
@<TRIPOS>SET
DONOR_HYDROGENS      STATIC     ATOMS    <user>   **** ""
1 38
ATOM$RED        STATIC     ATOMS    COLORGROUP SYSTEM
1 38
@<TRIPOS>COMMENT
> <Gold.Version>
2022.3.0

> <Gold.Id.Protein>
unknown|5ovf_clean|pdb

> <Gold.Protein.ActiveResidues>
 ILE839  VAL852  ILE856  LEU859  VAL871  LEU872  GLU873  VAL874  VAL875  SER876 
 ALA877  MET878  ASN879  SER880  SER881  PRO882  VAL883  TYR884  ARG885  LEU886 
 ASP887  HIS888  THR889  PHE890  GLU891  GLN892  ILE893  PRO894  SER895  ARG896 
 GLN897  LYS898  LYS899  ILE900  LEU901  GLU902  GLU903  ALA904  HIS905  GLU906 
 LEU907  SER908  GLU909  LYS914  GLU836  ILE839  VAL852  ILE855  ILE856  LEU859 
 GLN863  VAL871  LEU872  VAL874  VAL875  SER876  ALA877  MET878  ASN879  SER880 
 SER881  PRO882  VAL883  TYR884  ARG885  LEU886  ASP887  HIS888  THR889  PHE890 
 GLU891  GLN892  ILE893  PRO894  SER895  ARG896  GLN897  LYS898  LYS899  ILE900 
 LEU901  GLU902  GLU903  ALA904  HIS905  GLU906  LEU907  SER908  GLU909  ASP910 
 LYS914 

> <Gold.Score>
     Fitness  S(hb_ext) S(vdw_ext)  S(hb_int)    S(int)      intcor
     77.58       0.68      58.80       0.00      -3.94      -8.43

> <Gold.Goldscore.Fitness>
77.5780

> <Gold.Goldscore.Internal.Vdw>
-8.9252

> <Gold.Goldscore.Internal.Torsion>
-3.4533

> <Gold.Goldscore.External.Vdw>
58.7952

> <Gold.Goldscore.Internal.HBond>
0.0000

> <Gold.Goldscore.External.HBond>
0.6789

> <Gold.Goldscore.Internal.Correction>
-8.4343

> <Gold.Goldscore.Reference.RMSD>
0.6979

> <Gold.Goldscore.Hbonds>
donor molecule, donor type, donor heavy atom, donor atom, acceptor molecule, acceptor atom, score
      L1  H    15    38       P1  2553  0.34

> <Gold.Goldscore.Internal.Vdw.Weighted>
-8.9252

> <Gold.Goldscore.Internal.Torsion.Weighted>
-3.4533

> <Gold.Goldscore.External.Vdw.Weighted>
80.8434

> <Gold.Goldscore.Internal.HBond.Weighted>
0.0000

> <Gold.Goldscore.External.HBond.Weighted>
0.6789

> <Gold.Goldscore.Internal.Correction.Weighted>
-8.4343

> <Gold.Rescore>
     Score         DG    S(hbond)    S(metal)    S(lipo)     H(rot)  DE(clash)    DE(int)     intcor
     33.26     -34.63       0.91        0.00     257.30       1.56       0.42       0.96       ----

> <Gold.Chemscore.Fitness>
33.2551

> <Gold.Chemscore.DG>
-34.6341

> <Gold.Chemscore.ZeroCoef>
-5.4800

> <Gold.Chemscore.Hbond>
0.9126

> <Gold.Chemscore.Metal>
0.0000

> <Gold.Chemscore.Lipo>
257.3026

> <Gold.Chemscore.Internal_Hbond>
0.0000

> <Gold.Chemscore.DEClash>
0.4224

> <Gold.Chemscore.DEInternal>
0.9566

> <Gold.Chemscore.Rot>
1.5619

> <Gold.Chemscore.Internal.Correction>
   9.000000E+99

> <Gold.Chemscore.Reference.RMSD>
0.0000

> <Gold.Chemscore.Hbonds>
donor molecule, donor type, donor heavy atom, donor atom, acceptor molecule, acceptor atom, score
      L1  H    15    38       P1  2553  0.65

> <Gold.Chemscore.Hbond.Weighted>
-3.0482

> <Gold.Chemscore.Metal.Weighted>
-0.0000

> <Gold.Chemscore.Lipo.Weighted>
-30.1044

> <Gold.Chemscore.Internal_Hbond.Weighted>
0.0000

> <Gold.Chemscore.DEClash.Weighted>
0.4224

> <Gold.Chemscore.DEInternal.Weighted>
0.9566

> <Gold.Chemscore.Rot.Weighted>
3.9985

> <Gold.Chemscore.Internal.Correction.Weighted>
   9.000000E+99

> <Gold.Reference.RMSD>
0.6979

