@<TRIPOS>MOLECULE
example_2|example_2_prep|mol2|1|dock2
    10    11     1     0     0
SMALL
NO_CHARGES
****
Generated from the CSD

@<TRIPOS>ATOM
     1 C1      20.7260 -29.8941  47.3902   C.ar      1 RES1   0.0000
     2 C2      19.7888 -30.2538  46.4089   C.ar      1 RES1   0.0000
     3 C3      22.0875 -30.1250  47.1593   C.ar      1 RES1   0.0000
     4 C4      20.2415 -30.8232  45.2187   C.ar      1 RES1   0.0000
     5 C5      22.5488 -30.6918  45.9778   C.ar      1 RES1   0.0000
     6 C6      21.6231 -31.0222  44.9829   C.ar      1 RES1   0.0000
     7 N7      23.8610 -30.9095  45.8414   N.ar      1 RES1   0.0000
     8 C8      22.1681 -31.5759  43.8143   C.ar      1 RES1   0.0000
     9 C9      24.2590 -31.4888  44.7029   C.ar      1 RES1   0.0000
    10 N10     23.4764 -31.8398  43.6779   N.ar      1 RES1   0.0000
@<TRIPOS>BOND
     1     1     2   ar
     2     1     3   ar
     3     2     4   ar
     4     3     5   ar
     5     4     6   ar
     6     5     7   ar
     7     6     8   ar
     8     7     9   ar
     9     8    10   ar
    10     5     6   ar
    11     9    10   ar
@<TRIPOS>SUBSTRUCTURE
     1 RES1        1 GROUP             0 ****  ****    0  
