#       Name:                CT1002167954
#       Creating user name   hitesit
#       Creation time:       Sun Apr 16 22:54:26 2023


#       File generated by GOLD software.
#

@<TRIPOS>MOLECULE
CT1002167954|ligand_prepared|mol2|1|dock8
    29    30     1
SMALL
NO_CHARGES


@<TRIPOS>ATOM
      1 C1          11.4439  -8.6939  32.8578 C.3            1 RES1               0.0000
      2 C2          10.1839  -8.2745  33.6423 C.ar           1 RES1               0.0000
      3 C3          10.9501  -9.4289  31.6152 C.2            1 RES1               0.0000
      4 C4          12.2072  -7.4085  32.5581 C.2            1 RES1               0.0000
      5 C5          12.3848  -9.6360  33.6443 C.3            1 RES1               0.0000
      6 C6           9.6857  -9.0771  34.6642 C.ar           1 RES1               0.0000
      7 C7           9.5118  -7.0888  33.3578 C.ar           1 RES1               0.0000
      8 N8          11.0366  -8.7780  30.4199 N.am           1 RES1               0.0000
      9 O9          10.4558 -10.5472  31.6885 O.2            1 RES1               0.0000
     10 N10         12.3258  -7.0227  31.2486 N.am           1 RES1               0.0000
     11 O11         12.6928  -6.7177  33.4453 O.2            1 RES1               0.0000
     12 C12         13.7455  -9.8271  32.9930 C.3            1 RES1               0.0000
     13 C13          8.5581  -8.7064  35.3780 C.ar           1 RES1               0.0000
     14 C14          8.3842  -6.7201  34.0727 C.ar           1 RES1               0.0000
     15 C15         11.7487  -7.6329  30.1683 C.2            1 RES1               0.0000
     16 C16          7.9069  -7.5276  35.0830 C.ar           1 RES1               0.0000
     17 O17         11.8559  -7.1950  29.0265 O.2            1 RES1               0.0000
     18 H18         12.5300  -9.2289  34.6526 H              1 RES1               0.0000
     19 H19         11.9008 -10.6153  33.7447 H              1 RES1               0.0000
     20 H20         10.1834 -10.0096  34.9089 H              1 RES1               0.0000
     21 H21          9.8686  -6.4384  32.5665 H              1 RES1               0.0000
     22 H22         10.5244  -9.1798  29.6411 H              1 RES1               0.0000
     23 H23         12.8972  -6.2048  31.0617 H              1 RES1               0.0000
     24 H24         14.3660 -10.4966  33.5852 H              1 RES1               0.0000
     25 H25         13.6403 -10.2543  31.9979 H              1 RES1               0.0000
     26 H26         14.2658  -8.8761  32.9004 H              1 RES1               0.0000
     27 H27          8.1857  -9.3461  36.1713 H              1 RES1               0.0000
     28 H28          7.8745  -5.7918  33.8367 H              1 RES1               0.0000
     29 H29          7.0238  -7.2372  35.6426 H              1 RES1               0.0000
@<TRIPOS>BOND
    1    1    2 1     
    2    1    3 1     
    3    1    4 1     
    4    1    5 1     
    5    2    6 ar    
    6    2    7 ar    
    7    3    8 1     
    8    3    9 2     
    9    4   10 1     
   10    4   11 2     
   11    5   12 1     
   12    5   18 1     
   13    5   19 1     
   14    6   13 ar    
   15    6   20 1     
   16    7   14 ar    
   17    7   21 1     
   18    8   15 1     
   19    8   22 1     
   20   10   15 1     
   21   10   23 1     
   22   12   24 1     
   23   12   25 1     
   24   12   26 1     
   25   13   16 ar    
   26   13   27 1     
   27   14   16 ar    
   28   14   28 1     
   29   15   17 2     
   30   16   29 1     
@<TRIPOS>SUBSTRUCTURE
      1 RES1           1
@<TRIPOS>SET
DONOR_HYDROGENS      STATIC     ATOMS    <user>   **** ""
2 22 23
ATOM$RED        STATIC     ATOMS    COLORGROUP SYSTEM
2 22 23
@<TRIPOS>COMMENT
> <Gold.Version>
2022.3.0

> <Gold.Id.Protein>
unknown|3mvj_clean|pdb

> <Gold.Protein.RotatedTorsions>
[ 10968 10947 10946 10944 ] final   13.91 input   60.01 | X-H torsion
[ 10728 10707 10706 10704 ] final  118.40 input   59.96 | X-H torsion
[ 10960 10936 10937 10938 ] final  -38.45 input   23.31 | X-H torsion
[ 12067 12045 12046 12047 ] final  149.77 input   63.71 | X-H torsion
[ 15542 15533 15534 15535 ] final -113.28 input   83.29 | X-H torsion
[ 15588 15579 15580 15581 ] final  -35.72 input  107.67 | X-H torsion
[ 15633 15624 15625 15626 ] final  123.19 input   84.82 | X-H torsion
[ 10915 10907 10908 10909 ] final -122.53 input  -87.38 | X-H torsion
[ 6151 6129 6130 6131 ] final  138.06 input   27.76 | X-H torsion
[ 6109 6101 6102 6103 ] final  -95.19 input  -93.79 | X-H torsion
[ 5929 5907 5908 5909 ] final  -32.35 input  119.25 | X-H torsion
[ 6001 5979 5980 5981 ] final -153.24 input  112.51 | X-H torsion
[ 6064 6048 6049 6050 ] final   94.43 input  108.26 | X-H torsion
[ 11206 11196 11197 11198 ] final   95.01 input   -0.63 | X-H torsion
[ 11245 11229 11230 11231 ] final  150.40 input  120.69 | X-H torsion
[ 11164 11142 11143 11144 ] final  -10.44 input   33.88 | X-H torsion
[ 11104 11082 11083 11084 ] final -144.34 input   45.00 | X-H torsion
[ 11284 11266 11267 11268 ] final   20.19 input   49.58 | X-H torsion
[ 9439 9421 9422 9423 ] final  -35.49 input  116.39 | X-H torsion
[ 11482 11466 11467 11468 ] final  -67.84 input  126.08 | X-H torsion
[ 11374 11358 11359 11360 ] final  121.92 input   98.08 | X-H torsion
[ 11559 11538 11537 11535 ] final  133.23 input   60.01 | X-H torsion
[ 9349 9335 9336 9337 ] final -135.41 input   84.14 | X-H torsion
[ 9355 9341 9339 9336 ] final  175.11 input   60.02 | X-H torsion
[ 9493 9469 9470 9471 ] final  -17.61 input   75.21 | X-H torsion
[ 7840 7822 7823 7824 ] final  130.04 input  121.36 | X-H torsion
[ 7742 7722 7721 7720 ] final   19.26 input   60.01 | X-H torsion
[ 5728 5706 5707 5708 ] final  -43.92 input  119.20 | X-H torsion
[ 5773 5761 5762 5763 ] final   71.00 input  120.20 | X-H torsion
[ 5777 5766 5765 5762 ] final  -42.65 input   59.99 | X-H torsion
[ 7882 7866 7867 7868 ] final   78.41 input   81.17 | X-H torsion
[ 9501 9480 9479 9477 ] final   47.52 input   60.03 | X-H torsion
[ 7732 7714 7715 7716 ] final   85.24 input  -10.67 | X-H torsion
[ 15083 15054 15053 15052 ] final  171.37 input   60.01 | X-H torsion
[ 9319 9311 9312 9313 ] final  -56.28 input  -66.31 | X-H torsion
[ 15194 15161 15160 15159 ] final   17.97 input   59.99 | X-H torsion
[ 15326 15310 15309 15306 ] final -111.40 input   59.99 | X-H torsion
[ 9292 9280 9281 9282 ] final  121.25 input   22.77 | X-H torsion
[ 7636 7620 7621 7622 ] final   92.08 input   34.37 | X-H torsion
[ 9241 9225 9226 9227 ] final -115.80 input   96.07 | X-H torsion
[ 9544 9528 9529 9530 ] final  -12.39 input   99.68 | X-H torsion
[ 3443 3412 3413 3414 ] final -163.78 input -120.58 | X-H torsion
[ 3504 3478 3479 3480 ] final  -73.33 input   70.69 | X-H torsion
[ 9190 9168 9169 9170 ] final  -68.13 input  115.65 | X-H torsion
[ 9198 9178 9175 9174 ] final   36.00 input   59.98 | X-H torsion
[ 6282 6255 6254 6251 ] final  154.17 input   60.00 | X-H torsion
[ 9196 9176 9175 9174 ] final  137.26 input   60.01 | X-H torsion
[ 12157 12142 12143 12144 ] final   66.19 input  108.55 | X-H torsion
[ 11995 11973 11974 11975 ] final  -11.09 input   68.31 | X-H torsion
[ 11434 11416 11417 11418 ] final -129.88 input  102.35 | X-H torsion
[ 5626 5608 5609 5610 ] final   85.15 input  119.09 | X-H torsion
[ 10774 10756 10757 10758 ] final -171.97 input  129.22 | X-H torsion
[ 10816 10800 10801 10802 ] final  -63.99 input  128.85 | X-H torsion
[ 8641 8619 8620 8621 ] final  -56.32 input   87.35 | X-H torsion
[ 3659 3632 3633 3634 ] final -140.55 input  116.97 | X-H torsion
[ 10029 10008 10007 10005 ] final   65.43 input   60.01 | X-H torsion
[ 16458 15536 15535 15534 ] final   71.55 input    0.00 | X-H torsion
[ 16468 10881 10880 10879 ] final  -52.08 input    0.00 | X-H torsion
[ 16470 10910 10909 10908 ] final   40.64 input    0.00 | X-H torsion
[ 16473 10997 10996 10995 ] final  157.19 input    0.00 | X-H torsion
[ 16475 11976 11975 11974 ] final  -17.28 input    0.00 | X-H torsion
[ 16477 12048 12047 12046 ] final  157.11 input    0.00 | X-H torsion
[ 16480 10939 10938 10937 ] final  119.24 input   -0.00 | X-H torsion
[ 16483 11039 11038 11037 ] final -177.40 input    0.00 | X-H torsion
[ 16492 15582 15581 15580 ] final   -1.64 input    0.00 | X-H torsion
[ 16496 6104 6103 6102 ] final  175.54 input    0.00 | X-H torsion
[ 16499 5910 5909 5908 ] final -174.56 input   -0.00 | X-H torsion
[ 16502 5850 5849 5848 ] final   84.31 input    0.00 | X-H torsion
[ 16505 6051 6050 6049 ] final  150.39 input    0.00 | X-H torsion
[ 16507 5982 5981 5980 ] final  160.18 input    0.00 | X-H torsion
[ 16511 11145 11144 11143 ] final -171.86 input    0.00 | X-H torsion
[ 16514 11199 11198 11197 ] final   36.19 input    0.00 | X-H torsion
[ 16530 11085 11084 11083 ] final  112.25 input   -0.00 | X-H torsion
[ 16538 11232 11231 11230 ] final   93.75 input    0.00 | X-H torsion
[ 16549 11269 11268 11267 ] final  -69.41 input   -0.00 | X-H torsion
[ 16552 11318 11317 11316 ] final   31.99 input    0.00 | X-H torsion
[ 16558 9314 9313 9312 ] final   46.44 input    0.00 | X-H torsion
[ 16561 9338 9337 9336 ] final -115.97 input    0.00 | X-H torsion
[ 16565 9380 9379 9378 ] final  -30.22 input    0.00 | X-H torsion
[ 16570 5709 5708 5707 ] final   58.40 input    0.00 | X-H torsion
[ 16575 7825 7824 7823 ] final  174.05 input    0.00 | X-H torsion
[ 16583 7781 7780 7779 ] final  173.69 input   -0.00 | X-H torsion
[ 16593 9424 9423 9422 ] final -146.85 input   -0.00 | X-H torsion
[ 16597 7659 7658 7657 ] final -172.26 input   -0.00 | X-H torsion
[ 16599 7717 7716 7715 ] final  153.99 input    0.00 | X-H torsion
[ 16602 10532 10531 10530 ] final   96.34 input    0.00 | X-H torsion
[ 16611 7554 7553 7552 ] final   13.48 input    0.00 | X-H torsion
[ 16613 7623 7622 7621 ] final -177.71 input   -0.00 | X-H torsion
[ 16616 9283 9282 9281 ] final  121.83 input    0.00 | X-H torsion
[ 16618 9228 9227 9226 ] final -135.61 input   -0.00 | X-H torsion
[ 16636 3357 3356 3355 ] final  -93.40 input   -0.00 | X-H torsion
[ 16638 3415 3414 3413 ] final   96.39 input   -0.00 | X-H torsion
[ 16646 9102 9101 9100 ] final  121.72 input    0.00 | X-H torsion

> <Gold.Protein.ActiveResidues>
 ARG45   SER53   PHE54   LEU82   LYS83   GLN84   GLU86   HIS87   GLU127  PHE129 
 SER130  HIS131  LEU132  ARG133  ARG134  ILE135  GLY136  ARG137  PHE138  SER139 
 HIS142  ARG165  ASP166  LEU167  LYS168  PRO169  GLU170  ASN171  ASP184  GLY186 
 PHE187  TRP196  TPO197  LEU198  CYS199  GLY200  THR201  PRO202  GLU203  TYR204 
 LEU205  ILE209  ILE210  TYR215  VAL226  LEU227  TYR229  GLU230  MET231  ALA233 
 GLY234  TYR235  PRO236  PRO237  PHE238  PHE239  ALA240  ASP241  GLN242  PRO243 
 ILE244  GLN245  ILE246  TYR247  LYS249  ARG256  PHE257  PRO258  SER259  HIS260 
 PRO313  PHE314  ILE315  LYS317  LYS319  SER325  ASN326  ASP328  ASP329  GLU331 
 GLU332  GLU333  GLU334 

> <Gold.Protein.RotatedAtoms>
   24.4195   23.5554   36.8743 H   0  0  0  0  0  0  0  0  0  0  0  0  # atno 3443 bound_to 3412
   23.6928   22.1743   40.1008 H   0  0  0  0  0  0  0  0  0  0  0  0  # atno 3504 bound_to 3478
   22.3134   19.8312   45.7048 H   0  0  0  0  0  0  0  0  0  0  0  0  # atno 3659 bound_to 3632
   35.8174   -1.1918   41.4687 H   0  0  0  0  0  0  0  0  0  0  0  0  # atno 5626 bound_to 5608
   30.4935   -3.0207   41.0373 H   0  0  0  0  0  0  0  0  0  0  0  0  # atno 5728 bound_to 5706
   31.7721   -2.6452   39.3615 H   0  0  0  0  0  0  0  0  0  0  0  0  # atno 5773 bound_to 5761
   33.9290   -2.4927   35.7421 H   0  0  0  0  0  0  0  0  0  0  0  0  # atno 5777 bound_to 5766
   29.4800   -7.4788   37.3117 H   0  0  0  0  0  0  0  0  0  0  0  0  # atno 5929 bound_to 5907
   31.2446   -7.1126   34.6205 H   0  0  0  0  0  0  0  0  0  0  0  0  # atno 6001 bound_to 5979
   31.5183   -9.6667   36.9786 H   0  0  0  0  0  0  0  0  0  0  0  0  # atno 6064 bound_to 6048
   29.4462  -10.2647   35.9149 H   0  0  0  0  0  0  0  0  0  0  0  0  # atno 6109 bound_to 6101
   26.4268  -12.6848   36.7929 H   0  0  0  0  0  0  0  0  0  0  0  0  # atno 6151 bound_to 6129
   10.3672   24.8778   36.9397 H   0  0  0  0  0  0  0  0  0  0  0  0  # atno 6282 bound_to 6255
   19.7793    7.2464   47.3585 H   0  0  0  0  0  0  0  0  0  0  0  0  # atno 7636 bound_to 7620
   22.4731    2.7678   44.4973 H   0  0  0  0  0  0  0  0  0  0  0  0  # atno 7732 bound_to 7714
   22.1850    5.7138   41.7498 H   0  0  0  0  0  0  0  0  0  0  0  0  # atno 7742 bound_to 7722
   23.4583    6.7109   41.3883 H   0  0  0  0  0  0  0  0  0  0  0  0  # atno 7743 bound_to 7722
   22.1161    6.6951   40.4155 H   0  0  0  0  0  0  0  0  0  0  0  0  # atno 7744 bound_to 7722
   25.4950    1.0961   40.7693 H   0  0  0  0  0  0  0  0  0  0  0  0  # atno 7840 bound_to 7822
   26.2242    2.3559   43.1009 H   0  0  0  0  0  0  0  0  0  0  0  0  # atno 7882 bound_to 7866
   22.6146   13.8602   47.3477 H   0  0  0  0  0  0  0  0  0  0  0  0  # atno 8641 bound_to 8619
    9.6261   15.0137   45.2841 H   0  0  0  0  0  0  0  0  0  0  0  0  # atno 9190 bound_to 9168
   12.1809   18.2380   48.5380 H   0  0  0  0  0  0  0  0  0  0  0  0  # atno 9196 bound_to 9176
   14.9773   17.3945   46.4318 H   0  0  0  0  0  0  0  0  0  0  0  0  # atno 9198 bound_to 9178
   11.2551   14.0221   43.1604 H   0  0  0  0  0  0  0  0  0  0  0  0  # atno 9241 bound_to 9225
   13.7904   12.5038   42.5646 H   0  0  0  0  0  0  0  0  0  0  0  0  # atno 9292 bound_to 9280
   17.4871   10.6650   40.3282 H   0  0  0  0  0  0  0  0  0  0  0  0  # atno 9319 bound_to 9311
   18.4525    7.6677   39.7932 H   0  0  0  0  0  0  0  0  0  0  0  0  # atno 9349 bound_to 9335
   21.4036    5.1231   38.8951 H   0  0  0  0  0  0  0  0  0  0  0  0  # atno 9355 bound_to 9341
   15.3700    3.1792   37.4079 H   0  0  0  0  0  0  0  0  0  0  0  0  # atno 9439 bound_to 9421
   14.9371    2.1390   39.0655 H   0  0  0  0  0  0  0  0  0  0  0  0  # atno 9493 bound_to 9469
   21.3875   -2.2506   41.0643 H   0  0  0  0  0  0  0  0  0  0  0  0  # atno 9501 bound_to 9480
   13.7269    2.1611   41.0647 H   0  0  0  0  0  0  0  0  0  0  0  0  # atno 9544 bound_to 9528
   12.4768   12.5911   46.2939 H   0  0  0  0  0  0  0  0  0  0  0  0  # atno 10029 bound_to 10008
   14.0268  -11.7559   37.5352 H   0  0  0  0  0  0  0  0  0  0  0  0  # atno 10728 bound_to 10707
   18.2507   -7.2611   40.8117 H   0  0  0  0  0  0  0  0  0  0  0  0  # atno 10774 bound_to 10756
   21.7948   -7.8588   40.8529 H   0  0  0  0  0  0  0  0  0  0  0  0  # atno 10816 bound_to 10800
   22.3207  -10.9026   38.6830 H   0  0  0  0  0  0  0  0  0  0  0  0  # atno 10915 bound_to 10907
   21.1837   -8.8661   37.2566 H   0  0  0  0  0  0  0  0  0  0  0  0  # atno 10960 bound_to 10936
   15.7105  -12.9960   34.7828 H   0  0  0  0  0  0  0  0  0  0  0  0  # atno 10968 bound_to 10947
   13.1108   -5.5935   36.7348 H   0  0  0  0  0  0  0  0  0  0  0  0  # atno 11104 bound_to 11082
   12.7456   -3.9958   32.8993 H   0  0  0  0  0  0  0  0  0  0  0  0  # atno 11164 bound_to 11142
   14.1207   -1.7378   30.7444 H   0  0  0  0  0  0  0  0  0  0  0  0  # atno 11206 bound_to 11196
   14.0014   -1.4595   26.1924 H   0  0  0  0  0  0  0  0  0  0  0  0  # atno 11245 bound_to 11229
   13.6246    1.4043   27.5136 H   0  0  0  0  0  0  0  0  0  0  0  0  # atno 11284 bound_to 11266
   11.1821    5.5715   29.2766 H   0  0  0  0  0  0  0  0  0  0  0  0  # atno 11374 bound_to 11358
    8.7973    3.6271   29.4421 H   0  0  0  0  0  0  0  0  0  0  0  0  # atno 11434 bound_to 11416
    9.7273    0.7069   30.9681 H   0  0  0  0  0  0  0  0  0  0  0  0  # atno 11482 bound_to 11466
   12.9073    8.3356   33.6770 H   0  0  0  0  0  0  0  0  0  0  0  0  # atno 11559 bound_to 11538
    9.7790  -10.7221   38.2307 H   0  0  0  0  0  0  0  0  0  0  0  0  # atno 11995 bound_to 11973
   10.4374  -13.7086   38.8801 H   0  0  0  0  0  0  0  0  0  0  0  0  # atno 12067 bound_to 12045
   15.9318  -18.7415   36.7499 H   0  0  0  0  0  0  0  0  0  0  0  0  # atno 12157 bound_to 12142
   26.1480   15.4123   35.3811 H   0  0  0  0  0  0  0  0  0  0  0  0  # atno 15083 bound_to 15054
   27.1961   14.5270   34.4510 H   0  0  0  0  0  0  0  0  0  0  0  0  # atno 15084 bound_to 15054
   26.7014   16.0257   33.9450 H   0  0  0  0  0  0  0  0  0  0  0  0  # atno 15085 bound_to 15054
   31.1164   11.6702   30.5676 H   0  0  0  0  0  0  0  0  0  0  0  0  # atno 15194 bound_to 15161
   31.9905   10.4730   31.3098 H   0  0  0  0  0  0  0  0  0  0  0  0  # atno 15195 bound_to 15161
   32.6753   11.9601   31.0486 H   0  0  0  0  0  0  0  0  0  0  0  0  # atno 15196 bound_to 15161
   28.0558   10.8634   25.8265 H   0  0  0  0  0  0  0  0  0  0  0  0  # atno 15326 bound_to 15310
    7.6904  -12.1923   26.6349 H   0  0  0  0  0  0  0  0  0  0  0  0  # atno 15542 bound_to 15533
    9.1933  -15.1941   27.3841 H   0  0  0  0  0  0  0  0  0  0  0  0  # atno 15588 bound_to 15579
   10.2259  -17.7894   30.2571 H   0  0  0  0  0  0  0  0  0  0  0  0  # atno 15633 bound_to 15624
   11.3183  -14.0529   28.1398 LP  0  0  0  0  0  0  0  0  0  0  0  0  # atno 16458 bound_to 15536
   11.1878  -15.6854   27.5761 LP  0  0  0  0  0  0  0  0  0  0  0  0  # atno 16459 bound_to 15536
   16.9083  -13.6963   35.6328 LP  0  0  0  0  0  0  0  0  0  0  0  0  # atno 16460 bound_to 10947
   16.8615  -13.8452   34.0073 LP  0  0  0  0  0  0  0  0  0  0  0  0  # atno 16461 bound_to 10947
   14.7843  -10.7247   36.5298 LP  0  0  0  0  0  0  0  0  0  0  0  0  # atno 16466 bound_to 10707
   13.3124  -10.3511   37.1302 LP  0  0  0  0  0  0  0  0  0  0  0  0  # atno 16467 bound_to 10707
   21.5047  -13.6736   36.5968 LP  0  0  0  0  0  0  0  0  0  0  0  0  # atno 16468 bound_to 10881
   21.3518  -12.2726   35.5899 LP  0  0  0  0  0  0  0  0  0  0  0  0  # atno 16469 bound_to 10881
   23.3251   -9.1352   34.3272 LP  0  0  0  0  0  0  0  0  0  0  0  0  # atno 16470 bound_to 10910
   22.6284   -7.6487   34.8795 LP  0  0  0  0  0  0  0  0  0  0  0  0  # atno 16471 bound_to 10910
   21.2880   -9.7538   35.7567 LP  0  0  0  0  0  0  0  0  0  0  0  0  # atno 16472 bound_to 10936
   15.2997   -7.2433   35.6553 LP  0  0  0  0  0  0  0  0  0  0  0  0  # atno 16473 bound_to 10997
   16.6206   -6.3201   35.0203 LP  0  0  0  0  0  0  0  0  0  0  0  0  # atno 16474 bound_to 10997
   11.5913  -11.1057   37.2104 LP  0  0  0  0  0  0  0  0  0  0  0  0  # atno 16475 bound_to 11976
   12.5221  -11.9522   38.4008 LP  0  0  0  0  0  0  0  0  0  0  0  0  # atno 16476 bound_to 11976
   12.9059  -16.6937   36.6577 LP  0  0  0  0  0  0  0  0  0  0  0  0  # atno 16477 bound_to 12048
   11.5981  -16.4248   37.7611 LP  0  0  0  0  0  0  0  0  0  0  0  0  # atno 16478 bound_to 12048
   18.9126   -7.8414   38.4574 LP  0  0  0  0  0  0  0  0  0  0  0  0  # atno 16480 bound_to 10939
   18.3878   -9.0557   37.3393 LP  0  0  0  0  0  0  0  0  0  0  0  0  # atno 16481 bound_to 10939
   11.5451   -6.1542   35.6751 LP  0  0  0  0  0  0  0  0  0  0  0  0  # atno 16483 bound_to 11039
   11.9022   -7.4583   36.7576 LP  0  0  0  0  0  0  0  0  0  0  0  0  # atno 16484 bound_to 11039
   11.0229  -14.1070   37.2835 LP  0  0  0  0  0  0  0  0  0  0  0  0  # atno 16485 bound_to 12045
    9.2900  -11.7809   27.2067 LP  0  0  0  0  0  0  0  0  0  0  0  0  # atno 16490 bound_to 15533
    7.8616  -14.4222   28.2238 LP  0  0  0  0  0  0  0  0  0  0  0  0  # atno 16491 bound_to 15579
    8.4704  -17.0061   26.9507 LP  0  0  0  0  0  0  0  0  0  0  0  0  # atno 16492 bound_to 15582
    9.2320  -18.5515   27.1292 LP  0  0  0  0  0  0  0  0  0  0  0  0  # atno 16493 bound_to 15582
    8.9021  -17.9575   29.1248 LP  0  0  0  0  0  0  0  0  0  0  0  0  # atno 16494 bound_to 15624
   21.1392  -11.3237   37.4613 LP  0  0  0  0  0  0  0  0  0  0  0  0  # atno 16495 bound_to 10907
   25.0813  -10.7426   37.4585 LP  0  0  0  0  0  0  0  0  0  0  0  0  # atno 16496 bound_to 6104
   25.7456  -10.0027   36.0403 LP  0  0  0  0  0  0  0  0  0  0  0  0  # atno 16497 bound_to 6104
   27.8237  -12.2626   37.7535 LP  0  0  0  0  0  0  0  0  0  0  0  0  # atno 16498 bound_to 6129
   30.2998   -9.5084   33.5831 LP  0  0  0  0  0  0  0  0  0  0  0  0  # atno 16499 bound_to 5910
   28.7785   -8.6825   33.5256 LP  0  0  0  0  0  0  0  0  0  0  0  0  # atno 16500 bound_to 5910
   29.6940  -11.9427   36.3212 LP  0  0  0  0  0  0  0  0  0  0  0  0  # atno 16501 bound_to 6101
   27.7964   -9.1298   37.0835 LP  0  0  0  0  0  0  0  0  0  0  0  0  # atno 16502 bound_to 5850
   29.4903   -9.4321   36.8845 LP  0  0  0  0  0  0  0  0  0  0  0  0  # atno 16503 bound_to 5850
   29.0693   -5.7927   37.1164 LP  0  0  0  0  0  0  0  0  0  0  0  0  # atno 16504 bound_to 5907
   28.5611  -13.6228   36.4430 LP  0  0  0  0  0  0  0  0  0  0  0  0  # atno 16505 bound_to 6051
   30.2106  -14.1176   36.2586 LP  0  0  0  0  0  0  0  0  0  0  0  0  # atno 16506 bound_to 6051
   32.3381  -12.2268   34.7737 LP  0  0  0  0  0  0  0  0  0  0  0  0  # atno 16507 bound_to 5982
   32.3014  -11.1436   33.4227 LP  0  0  0  0  0  0  0  0  0  0  0  0  # atno 16508 bound_to 5982
   30.8353   -8.1155   35.9960 LP  0  0  0  0  0  0  0  0  0  0  0  0  # atno 16509 bound_to 5979
   32.1728  -10.4419   35.5543 LP  0  0  0  0  0  0  0  0  0  0  0  0  # atno 16510 bound_to 6048
   12.6402   -4.0140   29.6430 LP  0  0  0  0  0  0  0  0  0  0  0  0  # atno 16511 bound_to 11145
   12.6102   -4.4630   31.3156 LP  0  0  0  0  0  0  0  0  0  0  0  0  # atno 16512 bound_to 11145
   15.0911   -2.9731   29.9598 LP  0  0  0  0  0  0  0  0  0  0  0  0  # atno 16513 bound_to 11196
   16.0672   -0.8535   29.2953 LP  0  0  0  0  0  0  0  0  0  0  0  0  # atno 16514 bound_to 11199
   15.8124    0.6102   28.4050 LP  0  0  0  0  0  0  0  0  0  0  0  0  # atno 16515 bound_to 11199
   14.3005   -0.5176   27.6406 LP  0  0  0  0  0  0  0  0  0  0  0  0  # atno 16516 bound_to 11229
   14.0437   -3.9418   34.0611 LP  0  0  0  0  0  0  0  0  0  0  0  0  # atno 16525 bound_to 11142
   15.3830   -2.4947   34.7572 LP  0  0  0  0  0  0  0  0  0  0  0  0  # atno 16530 bound_to 11085
   13.9921   -1.4915   34.9999 LP  0  0  0  0  0  0  0  0  0  0  0  0  # atno 16531 bound_to 11085
   14.3525   -4.3598   36.7232 LP  0  0  0  0  0  0  0  0  0  0  0  0  # atno 16533 bound_to 11082
   16.1874    3.0951   25.4117 LP  0  0  0  0  0  0  0  0  0  0  0  0  # atno 16538 bound_to 11232
   16.8641    2.4727   26.8796 LP  0  0  0  0  0  0  0  0  0  0  0  0  # atno 16539 bound_to 11232
   14.6082    1.9457   26.1638 LP  0  0  0  0  0  0  0  0  0  0  0  0  # atno 16542 bound_to 11266
   16.5030    2.6741   36.1817 LP  0  0  0  0  0  0  0  0  0  0  0  0  # atno 16548 bound_to 9421
   11.5174    2.7646   28.8883 LP  0  0  0  0  0  0  0  0  0  0  0  0  # atno 16549 bound_to 11269
   12.7958    2.2084   29.9161 LP  0  0  0  0  0  0  0  0  0  0  0  0  # atno 16550 bound_to 11269
   11.6938    4.2934   32.9168 LP  0  0  0  0  0  0  0  0  0  0  0  0  # atno 16552 bound_to 11318
   10.4066    3.5647   32.0157 LP  0  0  0  0  0  0  0  0  0  0  0  0  # atno 16553 bound_to 11318
   11.0106    1.8907   30.8282 LP  0  0  0  0  0  0  0  0  0  0  0  0  # atno 16554 bound_to 11466
   11.3918    4.4810   30.6142 LP  0  0  0  0  0  0  0  0  0  0  0  0  # atno 16555 bound_to 11358
   13.4697    7.4939   34.9508 LP  0  0  0  0  0  0  0  0  0  0  0  0  # atno 16556 bound_to 11538
   12.5003    8.7867   35.1864 LP  0  0  0  0  0  0  0  0  0  0  0  0  # atno 16557 bound_to 11538
   17.9146    9.5009   38.5210 LP  0  0  0  0  0  0  0  0  0  0  0  0  # atno 16558 bound_to 9314
   16.8830    8.1981   38.0327 LP  0  0  0  0  0  0  0  0  0  0  0  0  # atno 16559 bound_to 9314
   17.6537    6.2904   40.5124 LP  0  0  0  0  0  0  0  0  0  0  0  0  # atno 16560 bound_to 9335
   16.2631    3.7318   39.0742 LP  0  0  0  0  0  0  0  0  0  0  0  0  # atno 16561 bound_to 9338
   16.0781    5.2210   39.9392 LP  0  0  0  0  0  0  0  0  0  0  0  0  # atno 16562 bound_to 9338
   20.5944    6.4153   39.4646 LP  0  0  0  0  0  0  0  0  0  0  0  0  # atno 16563 bound_to 9341
   20.8059    6.2246   37.8567 LP  0  0  0  0  0  0  0  0  0  0  0  0  # atno 16564 bound_to 9341
   13.4032    3.7470   38.2881 LP  0  0  0  0  0  0  0  0  0  0  0  0  # atno 16565 bound_to 9380
   13.4649    2.1433   37.6367 LP  0  0  0  0  0  0  0  0  0  0  0  0  # atno 16566 bound_to 9380
   16.5978    1.5889   39.0121 LP  0  0  0  0  0  0  0  0  0  0  0  0  # atno 16567 bound_to 9469
   29.0043   -3.5758   37.0333 LP  0  0  0  0  0  0  0  0  0  0  0  0  # atno 16570 bound_to 5709
   30.0541   -4.7861   37.6913 LP  0  0  0  0  0  0  0  0  0  0  0  0  # atno 16571 bound_to 5709
   26.6433    0.5794   41.9791 LP  0  0  0  0  0  0  0  0  0  0  0  0  # atno 16574 bound_to 7822
   29.0827    4.2925   42.7141 LP  0  0  0  0  0  0  0  0  0  0  0  0  # atno 16575 bound_to 7825
   29.3850    3.6687   41.1268 LP  0  0  0  0  0  0  0  0  0  0  0  0  # atno 16576 bound_to 7825
   30.0987   -1.3258   41.1707 LP  0  0  0  0  0  0  0  0  0  0  0  0  # atno 16579 bound_to 5706
   30.6970   -2.3231   38.0202 LP  0  0  0  0  0  0  0  0  0  0  0  0  # atno 16580 bound_to 5761
   35.2533   -1.9680   36.5281 LP  0  0  0  0  0  0  0  0  0  0  0  0  # atno 16581 bound_to 5766
   33.8359   -1.1733   36.6893 LP  0  0  0  0  0  0  0  0  0  0  0  0  # atno 16582 bound_to 5766
   28.6272    0.8100   42.1836 LP  0  0  0  0  0  0  0  0  0  0  0  0  # atno 16583 bound_to 7781
   28.1498   -0.4575   43.2632 LP  0  0  0  0  0  0  0  0  0  0  0  0  # atno 16584 bound_to 7781
   27.6001    3.0763   42.2915 LP  0  0  0  0  0  0  0  0  0  0  0  0  # atno 16585 bound_to 7866
   14.2551   -0.1846   39.9624 LP  0  0  0  0  0  0  0  0  0  0  0  0  # atno 16593 bound_to 9424
   15.0030   -1.0801   38.6823 LP  0  0  0  0  0  0  0  0  0  0  0  0  # atno 16594 bound_to 9424
   20.0602   -3.1894   40.9928 LP  0  0  0  0  0  0  0  0  0  0  0  0  # atno 16595 bound_to 9480
   20.6313   -2.6867   42.4377 LP  0  0  0  0  0  0  0  0  0  0  0  0  # atno 16596 bound_to 9480
   20.3332    2.1121   42.9799 LP  0  0  0  0  0  0  0  0  0  0  0  0  # atno 16597 bound_to 7659
   19.5022    3.1751   44.0659 LP  0  0  0  0  0  0  0  0  0  0  0  0  # atno 16598 bound_to 7659
   25.6617    0.9674   44.1452 LP  0  0  0  0  0  0  0  0  0  0  0  0  # atno 16599 bound_to 7717
   24.6086    2.3378   44.0323 LP  0  0  0  0  0  0  0  0  0  0  0  0  # atno 16600 bound_to 7717
   21.9680    1.2762   45.2607 LP  0  0  0  0  0  0  0  0  0  0  0  0  # atno 16601 bound_to 7714
   18.6227   -4.6821   41.5948 LP  0  0  0  0  0  0  0  0  0  0  0  0  # atno 16602 bound_to 10532
   18.0241   -6.1182   42.3558 LP  0  0  0  0  0  0  0  0  0  0  0  0  # atno 16603 bound_to 10532
   16.3656   10.1867   41.5793 LP  0  0  0  0  0  0  0  0  0  0  0  0  # atno 16604 bound_to 9311
   26.9914   11.3654   26.9507 LP  0  0  0  0  0  0  0  0  0  0  0  0  # atno 16607 bound_to 15310
   26.7698   11.7557   25.3806 LP  0  0  0  0  0  0  0  0  0  0  0  0  # atno 16608 bound_to 15310
   17.3724    8.7673   45.1488 LP  0  0  0  0  0  0  0  0  0  0  0  0  # atno 16611 bound_to 7554
   18.4706    7.6612   44.3934 LP  0  0  0  0  0  0  0  0  0  0  0  0  # atno 16612 bound_to 7554
   22.3144    4.1196   44.5939 LP  0  0  0  0  0  0  0  0  0  0  0  0  # atno 16613 bound_to 7623
   22.2888    5.7790   44.0984 LP  0  0  0  0  0  0  0  0  0  0  0  0  # atno 16614 bound_to 7623
   13.3496   11.3183   41.3742 LP  0  0  0  0  0  0  0  0  0  0  0  0  # atno 16615 bound_to 9280
   15.1109    8.4906   41.8486 LP  0  0  0  0  0  0  0  0  0  0  0  0  # atno 16616 bound_to 9283
   15.2056    9.5056   43.2489 LP  0  0  0  0  0  0  0  0  0  0  0  0  # atno 16617 bound_to 9283
   14.8015   13.5761   40.0593 LP  0  0  0  0  0  0  0  0  0  0  0  0  # atno 16618 bound_to 9228
   13.8532   14.7675   40.8847 LP  0  0  0  0  0  0  0  0  0  0  0  0  # atno 16619 bound_to 9228
   18.4588    6.5489   46.4651 LP  0  0  0  0  0  0  0  0  0  0  0  0  # atno 16620 bound_to 7620
   11.9208   15.0348   41.9035 LP  0  0  0  0  0  0  0  0  0  0  0  0  # atno 16628 bound_to 9225
   14.5640    3.5690   40.4555 LP  0  0  0  0  0  0  0  0  0  0  0  0  # atno 16635 bound_to 9528
   23.0022   20.4071   36.6485 LP  0  0  0  0  0  0  0  0  0  0  0  0  # atno 16636 bound_to 3357
   24.2935   19.9170   37.6936 LP  0  0  0  0  0  0  0  0  0  0  0  0  # atno 16637 bound_to 3357
   22.0929   20.3391   39.7358 LP  0  0  0  0  0  0  0  0  0  0  0  0  # atno 16638 bound_to 3415
   21.7776   21.6810   40.7846 LP  0  0  0  0  0  0  0  0  0  0  0  0  # atno 16639 bound_to 3415
   24.8392   21.9720   37.4865 LP  0  0  0  0  0  0  0  0  0  0  0  0  # atno 16640 bound_to 3412
   25.1928   21.7679   39.2950 LP  0  0  0  0  0  0  0  0  0  0  0  0  # atno 16641 bound_to 3478
    9.0275   15.2445   43.3425 LP  0  0  0  0  0  0  0  0  0  0  0  0  # atno 16646 bound_to 9102
    8.4484   13.7254   43.9400 LP  0  0  0  0  0  0  0  0  0  0  0  0  # atno 16647 bound_to 9102
   10.9491   15.2691   46.3928 LP  0  0  0  0  0  0  0  0  0  0  0  0  # atno 16648 bound_to 9168
   14.8416   15.9241   47.1152 LP  0  0  0  0  0  0  0  0  0  0  0  0  # atno 16649 bound_to 9178
   14.8937   17.2611   48.0513 LP  0  0  0  0  0  0  0  0  0  0  0  0  # atno 16650 bound_to 9178
    9.5430   24.6137   35.5618 LP  0  0  0  0  0  0  0  0  0  0  0  0  # atno 16654 bound_to 6255
   10.8337   23.6857   35.9353 LP  0  0  0  0  0  0  0  0  0  0  0  0  # atno 16655 bound_to 6255
   12.0320   18.8167   47.0240 LP  0  0  0  0  0  0  0  0  0  0  0  0  # atno 16656 bound_to 9176
   13.4644   18.9164   47.8019 LP  0  0  0  0  0  0  0  0  0  0  0  0  # atno 16657 bound_to 9176

> <Gold.Score>
     Fitness  S(hb_ext) S(vdw_ext)  S(hb_int)    S(int)      intcor
     37.63       2.43      26.00       0.00      -0.55      -0.76

> <Gold.Goldscore.Fitness>
37.6343

> <Gold.Goldscore.Internal.Vdw>
-0.7394

> <Gold.Goldscore.Internal.Torsion>
-0.5702

> <Gold.Goldscore.External.Vdw>
26.0049

> <Gold.Goldscore.Internal.HBond>
0.0000

> <Gold.Goldscore.External.HBond>
2.4307

> <Gold.Goldscore.Internal.Correction>
-0.7565

> <Gold.Goldscore.Hbonds>
donor molecule, donor type, donor heavy atom, donor atom, acceptor molecule, acceptor atom, score
      P1  H 11640 11661       L1    17  0.32
      L1  H    10    23       P1 11145  0.25

> <Gold.Goldscore.Internal.Vdw.Weighted>
-0.7394

> <Gold.Goldscore.Internal.Torsion.Weighted>
-0.5702

> <Gold.Goldscore.External.Vdw.Weighted>
35.7567

> <Gold.Goldscore.Internal.HBond.Weighted>
0.0000

> <Gold.Goldscore.External.HBond.Weighted>
2.4307

> <Gold.Goldscore.Internal.Correction.Weighted>
-0.7565

> <Gold.Rescore>
     Score     S(PLP)   S(hbond)     S(cho)   S(metal)  DE(clash)   DE(tors)     intcor
     23.20     -23.32       0.75       0.00       0.00       0.00       1.19       ----

> <Gold.PLP.Fitness>
23.2010

> <Gold.PLP.PLP>
-23.3232

> <Gold.PLP.part.hbond>
-1.9100

> <Gold.PLP.part.metal>
0.0000

> <Gold.PLP.part.buried>
10.1121

> <Gold.PLP.part.nonpolar>
-35.0496

> <Gold.PLP.part.repulsive>
1.6436

> <Gold.PLP.ligand.clash>
0.0000

> <Gold.PLP.ligand.torsion>
1.1912

> <Gold.PLP.Chemscore.Hbond>
0.7534

> <Gold.PLP.Chemscore.CHOScore>
0.0000

> <Gold.PLP.Chemscore.Metal>
0.0000

> <Gold.Chemscore.Hbonds>
donor molecule, donor type, donor heavy atom, donor atom, acceptor molecule, acceptor atom, score
      L1  H    10    23       P1 11145  0.36
      P1  H 11640 11661       L1    17  0.45

> <Gold.PLP.Chemscore.Internal.Correction>
   9.000000E+99

#       Name:                CT1002167954
#       Creating user name   hitesit
#       Creation time:       Sun Apr 16 22:54:21 2023


#       File generated by GOLD software.
#

@<TRIPOS>MOLECULE
CT1002167954|ligand_prepared|mol2|1|dock6
    29    30     1
SMALL
NO_CHARGES


@<TRIPOS>ATOM
      1 C1          18.1886  16.3655  32.6140 C.3            1 RES1               0.0000
      2 C2          19.7148  16.3986  32.3943 C.ar           1 RES1               0.0000
      3 C3          17.7750  14.8993  32.5278 C.2            1 RES1               0.0000
      4 C4          17.9398  17.0030  33.9764 C.2            1 RES1               0.0000
      5 C5          17.3881  17.1645  31.5593 C.3            1 RES1               0.0000
      6 C6          20.2532  16.1901  31.1281 C.ar           1 RES1               0.0000
      7 C7          20.5954  16.6386  33.4458 C.ar           1 RES1               0.0000
      8 N8          17.4491  14.2653  33.6904 N.am           1 RES1               0.0000
      9 O9          17.7730  14.2976  31.4609 O.2            1 RES1               0.0000
     10 N10         17.4356  16.2101  34.9739 N.am           1 RES1               0.0000
     11 O11         18.1914  18.1807  34.2000 O.2            1 RES1               0.0000
     12 C12         15.8991  17.2502  31.8553 C.3            1 RES1               0.0000
     13 C13         21.6221  16.2233  30.9199 C.ar           1 RES1               0.0000
     14 C14         21.9641  16.6711  33.2354 C.ar           1 RES1               0.0000
     15 C15         17.2078  14.8629  34.9014 C.2            1 RES1               0.0000
     16 C16         22.4783  16.4642  31.9731 C.ar           1 RES1               0.0000
     17 O17         16.8047  14.2082  35.8584 O.2            1 RES1               0.0000
     18 H18         17.7959  18.1813  31.5023 H              1 RES1               0.0000
     19 H19         17.5265  16.6923  30.5788 H              1 RES1               0.0000
     20 H20         19.5951  15.9966  30.2875 H              1 RES1               0.0000
     21 H21         20.2134  16.8031  34.4476 H              1 RES1               0.0000
     22 H22         17.3783  13.2533  33.6564 H              1 RES1               0.0000
     23 H23         17.2089  16.6666  35.8517 H              1 RES1               0.0000
     24 H24         15.3849  17.8210  31.0850 H              1 RES1               0.0000
     25 H25         15.4557  16.2574  31.8942 H              1 RES1               0.0000
     26 H26         15.7235  17.7375  32.8122 H              1 RES1               0.0000
     27 H27         22.0219  16.0584  29.9247 H              1 RES1               0.0000
     28 H28         22.6342  16.8605  34.0674 H              1 RES1               0.0000
     29 H29         23.5506  16.4905  31.8097 H              1 RES1               0.0000
@<TRIPOS>BOND
    1    1    2 1     
    2    1    3 1     
    3    1    4 1     
    4    1    5 1     
    5    2    6 ar    
    6    2    7 ar    
    7    3    8 1     
    8    3    9 2     
    9    4   10 1     
   10    4   11 2     
   11    5   12 1     
   12    5   18 1     
   13    5   19 1     
   14    6   13 ar    
   15    6   20 1     
   16    7   14 ar    
   17    7   21 1     
   18    8   15 1     
   19    8   22 1     
   20   10   15 1     
   21   10   23 1     
   22   12   24 1     
   23   12   25 1     
   24   12   26 1     
   25   13   16 ar    
   26   13   27 1     
   27   14   16 ar    
   28   14   28 1     
   29   15   17 2     
   30   16   29 1     
@<TRIPOS>SUBSTRUCTURE
      1 RES1           1
@<TRIPOS>SET
DONOR_HYDROGENS      STATIC     ATOMS    <user>   **** ""
2 22 23
ATOM$RED        STATIC     ATOMS    COLORGROUP SYSTEM
2 22 23
@<TRIPOS>COMMENT
> <Gold.Version>
2022.3.0

> <Gold.Id.Protein>
unknown|3mvj_clean|pdb

> <Gold.Protein.RotatedTorsions>
[ 10968 10947 10946 10944 ] final   97.87 input   60.01 | X-H torsion
[ 10728 10707 10706 10704 ] final   99.20 input   59.96 | X-H torsion
[ 10960 10936 10937 10938 ] final -123.08 input   23.31 | X-H torsion
[ 12067 12045 12046 12047 ] final -100.98 input   63.71 | X-H torsion
[ 15542 15533 15534 15535 ] final -142.44 input   83.29 | X-H torsion
[ 15588 15579 15580 15581 ] final  -96.35 input  107.67 | X-H torsion
[ 15633 15624 15625 15626 ] final   22.76 input   84.82 | X-H torsion
[ 10915 10907 10908 10909 ] final  -42.57 input  -87.38 | X-H torsion
[ 6151 6129 6130 6131 ] final -162.27 input   27.76 | X-H torsion
[ 6109 6101 6102 6103 ] final -102.43 input  -93.79 | X-H torsion
[ 5929 5907 5908 5909 ] final  -77.83 input  119.25 | X-H torsion
[ 6001 5979 5980 5981 ] final  103.90 input  112.51 | X-H torsion
[ 6064 6048 6049 6050 ] final  177.03 input  108.26 | X-H torsion
[ 11206 11196 11197 11198 ] final  -85.25 input   -0.63 | X-H torsion
[ 11245 11229 11230 11231 ] final  161.23 input  120.69 | X-H torsion
[ 11164 11142 11143 11144 ] final   91.28 input   33.88 | X-H torsion
[ 11104 11082 11083 11084 ] final  167.11 input   45.00 | X-H torsion
[ 11284 11266 11267 11268 ] final -153.15 input   49.58 | X-H torsion
[ 9439 9421 9422 9423 ] final -108.88 input  116.39 | X-H torsion
[ 11482 11466 11467 11468 ] final  161.15 input  126.08 | X-H torsion
[ 11374 11358 11359 11360 ] final -110.27 input   98.08 | X-H torsion
[ 11559 11538 11537 11535 ] final  120.25 input   60.01 | X-H torsion
[ 9349 9335 9336 9337 ] final -108.76 input   84.14 | X-H torsion
[ 9355 9341 9339 9336 ] final -139.90 input   60.02 | X-H torsion
[ 9493 9469 9470 9471 ] final  155.14 input   75.21 | X-H torsion
[ 7840 7822 7823 7824 ] final -147.44 input  121.36 | X-H torsion
[ 7742 7722 7721 7720 ] final -134.26 input   60.01 | X-H torsion
[ 5728 5706 5707 5708 ] final   61.33 input  119.20 | X-H torsion
[ 5773 5761 5762 5763 ] final  -78.08 input  120.20 | X-H torsion
[ 5777 5766 5765 5762 ] final  125.88 input   59.99 | X-H torsion
[ 7882 7866 7867 7868 ] final -115.92 input   81.17 | X-H torsion
[ 9501 9480 9479 9477 ] final  -79.40 input   60.03 | X-H torsion
[ 7732 7714 7715 7716 ] final   52.40 input  -10.67 | X-H torsion
[ 15083 15054 15053 15052 ] final  130.13 input   60.01 | X-H torsion
[ 9319 9311 9312 9313 ] final  -78.96 input  -66.31 | X-H torsion
[ 15194 15161 15160 15159 ] final  -20.43 input   59.99 | X-H torsion
[ 15326 15310 15309 15306 ] final   97.71 input   59.99 | X-H torsion
[ 9292 9280 9281 9282 ] final  120.96 input   22.77 | X-H torsion
[ 7636 7620 7621 7622 ] final  -62.89 input   34.37 | X-H torsion
[ 9241 9225 9226 9227 ] final  -39.16 input   96.07 | X-H torsion
[ 9544 9528 9529 9530 ] final  147.25 input   99.68 | X-H torsion
[ 3443 3412 3413 3414 ] final   49.33 input -120.58 | X-H torsion
[ 3504 3478 3479 3480 ] final  108.42 input   70.69 | X-H torsion
[ 9190 9168 9169 9170 ] final   87.49 input  115.65 | X-H torsion
[ 9198 9178 9175 9174 ] final  135.67 input   59.98 | X-H torsion
[ 6282 6255 6254 6251 ] final    7.73 input   60.00 | X-H torsion
[ 9196 9176 9175 9174 ] final   24.62 input   60.01 | X-H torsion
[ 12157 12142 12143 12144 ] final   53.46 input  108.55 | X-H torsion
[ 11995 11973 11974 11975 ] final -128.84 input   68.31 | X-H torsion
[ 11434 11416 11417 11418 ] final  -94.82 input  102.35 | X-H torsion
[ 5626 5608 5609 5610 ] final   75.26 input  119.09 | X-H torsion
[ 10774 10756 10757 10758 ] final  175.37 input  129.22 | X-H torsion
[ 10816 10800 10801 10802 ] final  149.66 input  128.85 | X-H torsion
[ 8641 8619 8620 8621 ] final  178.52 input   87.35 | X-H torsion
[ 3659 3632 3633 3634 ] final -178.58 input  116.97 | X-H torsion
[ 10029 10008 10007 10005 ] final  -59.72 input   60.01 | X-H torsion
[ 16458 15536 15535 15534 ] final  -93.06 input    0.00 | X-H torsion
[ 16468 10881 10880 10879 ] final  133.36 input    0.00 | X-H torsion
[ 16470 10910 10909 10908 ] final -150.71 input    0.00 | X-H torsion
[ 16473 10997 10996 10995 ] final -115.52 input    0.00 | X-H torsion
[ 16475 11976 11975 11974 ] final   57.42 input    0.00 | X-H torsion
[ 16477 12048 12047 12046 ] final  148.82 input    0.00 | X-H torsion
[ 16480 10939 10938 10937 ] final   78.46 input   -0.00 | X-H torsion
[ 16483 11039 11038 11037 ] final  129.09 input    0.00 | X-H torsion
[ 16492 15582 15581 15580 ] final  -98.71 input    0.00 | X-H torsion
[ 16496 6104 6103 6102 ] final  170.01 input    0.00 | X-H torsion
[ 16499 5910 5909 5908 ] final   20.82 input   -0.00 | X-H torsion
[ 16502 5850 5849 5848 ] final  -43.87 input    0.00 | X-H torsion
[ 16505 6051 6050 6049 ] final  -12.98 input    0.00 | X-H torsion
[ 16507 5982 5981 5980 ] final  -21.43 input    0.00 | X-H torsion
[ 16511 11145 11144 11143 ] final  -57.85 input    0.00 | X-H torsion
[ 16514 11199 11198 11197 ] final -174.57 input    0.00 | X-H torsion
[ 16530 11085 11084 11083 ] final  -48.04 input   -0.00 | X-H torsion
[ 16538 11232 11231 11230 ] final  172.75 input    0.00 | X-H torsion
[ 16549 11269 11268 11267 ] final  102.45 input   -0.00 | X-H torsion
[ 16552 11318 11317 11316 ] final  175.57 input    0.00 | X-H torsion
[ 16558 9314 9313 9312 ] final   13.84 input    0.00 | X-H torsion
[ 16561 9338 9337 9336 ] final  -81.87 input    0.00 | X-H torsion
[ 16565 9380 9379 9378 ] final   72.86 input    0.00 | X-H torsion
[ 16570 5709 5708 5707 ] final  -35.47 input    0.00 | X-H torsion
[ 16575 7825 7824 7823 ] final  178.36 input    0.00 | X-H torsion
[ 16583 7781 7780 7779 ] final  -95.75 input   -0.00 | X-H torsion
[ 16593 9424 9423 9422 ] final   79.89 input   -0.00 | X-H torsion
[ 16597 7659 7658 7657 ] final  -60.69 input   -0.00 | X-H torsion
[ 16599 7717 7716 7715 ] final  131.94 input    0.00 | X-H torsion
[ 16602 10532 10531 10530 ] final   56.08 input    0.00 | X-H torsion
[ 16611 7554 7553 7552 ] final  -28.34 input    0.00 | X-H torsion
[ 16613 7623 7622 7621 ] final -150.84 input   -0.00 | X-H torsion
[ 16616 9283 9282 9281 ] final  154.32 input    0.00 | X-H torsion
[ 16618 9228 9227 9226 ] final  120.64 input   -0.00 | X-H torsion
[ 16636 3357 3356 3355 ] final  -53.78 input   -0.00 | X-H torsion
[ 16638 3415 3414 3413 ] final -129.67 input   -0.00 | X-H torsion
[ 16646 9102 9101 9100 ] final  -69.21 input    0.00 | X-H torsion

> <Gold.Protein.ActiveResidues>
 ARG45   SER53   PHE54   LEU82   LYS83   GLN84   GLU86   HIS87   GLU127  PHE129 
 SER130  HIS131  LEU132  ARG133  ARG134  ILE135  GLY136  ARG137  PHE138  SER139 
 HIS142  ARG165  ASP166  LEU167  LYS168  PRO169  GLU170  ASN171  ASP184  GLY186 
 PHE187  TRP196  TPO197  LEU198  CYS199  GLY200  THR201  PRO202  GLU203  TYR204 
 LEU205  ILE209  ILE210  TYR215  VAL226  LEU227  TYR229  GLU230  MET231  ALA233 
 GLY234  TYR235  PRO236  PRO237  PHE238  PHE239  ALA240  ASP241  GLN242  PRO243 
 ILE244  GLN245  ILE246  TYR247  LYS249  ARG256  PHE257  PRO258  SER259  HIS260 
 PRO313  PHE314  ILE315  LYS317  LYS319  SER325  ASN326  ASP328  ASP329  GLU331 
 GLU332  GLU333  GLU334 

> <Gold.Protein.RotatedAtoms>
   24.4995   21.8775   37.1334 H   0  0  0  0  0  0  0  0  0  0  0  0  # atno 3443 bound_to 3412
   25.2090   21.7281   39.2834 H   0  0  0  0  0  0  0  0  0  0  0  0  # atno 3504 bound_to 3478
   22.3729   19.7634   45.1357 H   0  0  0  0  0  0  0  0  0  0  0  0  # atno 3659 bound_to 3632
   35.7805   -1.3368   41.4924 H   0  0  0  0  0  0  0  0  0  0  0  0  # atno 5626 bound_to 5608
   30.9779   -1.7407   40.7494 H   0  0  0  0  0  0  0  0  0  0  0  0  # atno 5728 bound_to 5706
   30.5579   -2.7461   38.1612 H   0  0  0  0  0  0  0  0  0  0  0  0  # atno 5773 bound_to 5761
   34.5774   -1.1897   36.9037 H   0  0  0  0  0  0  0  0  0  0  0  0  # atno 5777 bound_to 5766
   28.8082   -7.3661   37.3409 H   0  0  0  0  0  0  0  0  0  0  0  0  # atno 5929 bound_to 5907
   31.6043   -7.3420   35.9455 H   0  0  0  0  0  0  0  0  0  0  0  0  # atno 6001 bound_to 5979
   32.5819  -10.0998   36.7551 H   0  0  0  0  0  0  0  0  0  0  0  0  # atno 6064 bound_to 6048
   29.4797  -10.2917   35.8128 H   0  0  0  0  0  0  0  0  0  0  0  0  # atno 6109 bound_to 6101
   26.6274  -11.8395   36.9249 H   0  0  0  0  0  0  0  0  0  0  0  0  # atno 6151 bound_to 6129
    9.7389   24.2828   35.3702 H   0  0  0  0  0  0  0  0  0  0  0  0  # atno 6282 bound_to 6255
   18.5905    6.2540   46.6620 H   0  0  0  0  0  0  0  0  0  0  0  0  # atno 7636 bound_to 7620
   22.8878    2.5587   44.6889 H   0  0  0  0  0  0  0  0  0  0  0  0  # atno 7732 bound_to 7714
   22.5996    6.9593   40.4286 H   0  0  0  0  0  0  0  0  0  0  0  0  # atno 7742 bound_to 7722
   21.8233    5.8177   41.3453 H   0  0  0  0  0  0  0  0  0  0  0  0  # atno 7743 bound_to 7722
   23.3348    6.3417   41.7799 H   0  0  0  0  0  0  0  0  0  0  0  0  # atno 7744 bound_to 7722
   26.3584    0.3186   40.7244 H   0  0  0  0  0  0  0  0  0  0  0  0  # atno 7840 bound_to 7822
   27.4790    3.2542   42.2364 H   0  0  0  0  0  0  0  0  0  0  0  0  # atno 7882 bound_to 7866
   22.6952   13.2459   45.9060 H   0  0  0  0  0  0  0  0  0  0  0  0  # atno 8641 bound_to 8619
   10.9596   14.9019   46.3616 H   0  0  0  0  0  0  0  0  0  0  0  0  # atno 9190 bound_to 9168
   11.9459   18.7624   47.0887 H   0  0  0  0  0  0  0  0  0  0  0  0  # atno 9196 bound_to 9176
   14.9199   17.5273   47.8551 H   0  0  0  0  0  0  0  0  0  0  0  0  # atno 9198 bound_to 9178
   12.2906   14.3433   43.0269 H   0  0  0  0  0  0  0  0  0  0  0  0  # atno 9241 bound_to 9225
   13.7908   12.5007   42.5675 H   0  0  0  0  0  0  0  0  0  0  0  0  # atno 9292 bound_to 9280
   17.6570   10.7651   40.6142 H   0  0  0  0  0  0  0  0  0  0  0  0  # atno 9319 bound_to 9311
   18.0600    7.7305   39.7053 H   0  0  0  0  0  0  0  0  0  0  0  0  # atno 9349 bound_to 9335
   21.3521    5.2787   38.1975 H   0  0  0  0  0  0  0  0  0  0  0  0  # atno 9355 bound_to 9341
   15.1546    2.9730   36.4023 H   0  0  0  0  0  0  0  0  0  0  0  0  # atno 9439 bound_to 9421
   16.6536    1.6868   39.0402 H   0  0  0  0  0  0  0  0  0  0  0  0  # atno 9493 bound_to 9469
   20.0153   -3.2110   41.0949 H   0  0  0  0  0  0  0  0  0  0  0  0  # atno 9501 bound_to 9480
   14.3772    3.5319   40.2114 H   0  0  0  0  0  0  0  0  0  0  0  0  # atno 9544 bound_to 9528
   12.9460   11.2844   45.3792 H   0  0  0  0  0  0  0  0  0  0  0  0  # atno 10029 bound_to 10008
   14.3050  -11.7813   37.3961 H   0  0  0  0  0  0  0  0  0  0  0  0  # atno 10728 bound_to 10707
   18.2997   -7.0956   40.9030 H   0  0  0  0  0  0  0  0  0  0  0  0  # atno 10774 bound_to 10756
   21.7000   -7.0845   42.3358 H   0  0  0  0  0  0  0  0  0  0  0  0  # atno 10816 bound_to 10800
   21.4430  -10.2960   38.2688 H   0  0  0  0  0  0  0  0  0  0  0  0  # atno 10915 bound_to 10907
   21.9812   -8.8590   36.3779 H   0  0  0  0  0  0  0  0  0  0  0  0  # atno 10960 bound_to 10936
   16.3838  -13.5406   33.8782 H   0  0  0  0  0  0  0  0  0  0  0  0  # atno 10968 bound_to 10947
   13.0013   -5.0523   37.2140 H   0  0  0  0  0  0  0  0  0  0  0  0  # atno 11104 bound_to 11082
   13.8035   -4.7277   33.3297 H   0  0  0  0  0  0  0  0  0  0  0  0  # atno 11164 bound_to 11142
   15.0910   -2.9949   29.8955 H   0  0  0  0  0  0  0  0  0  0  0  0  # atno 11206 bound_to 11196
   14.1451   -1.5381   26.2331 H   0  0  0  0  0  0  0  0  0  0  0  0  # atno 11245 bound_to 11229
   14.7019    2.0116   26.2088 H   0  0  0  0  0  0  0  0  0  0  0  0  # atno 11284 bound_to 11266
   11.5174    5.2230   30.7549 H   0  0  0  0  0  0  0  0  0  0  0  0  # atno 11374 bound_to 11358
    8.8118    3.5955   29.9718 H   0  0  0  0  0  0  0  0  0  0  0  0  # atno 11434 bound_to 11416
   11.2241    1.2275   30.6205 H   0  0  0  0  0  0  0  0  0  0  0  0  # atno 11482 bound_to 11466
   13.0334    8.1658   33.6703 H   0  0  0  0  0  0  0  0  0  0  0  0  # atno 11559 bound_to 11538
    8.3032  -11.0531   37.9870 H   0  0  0  0  0  0  0  0  0  0  0  0  # atno 11995 bound_to 11973
   11.0636  -13.1844   37.6956 H   0  0  0  0  0  0  0  0  0  0  0  0  # atno 12067 bound_to 12045
   16.0115  -18.6879   36.9209 H   0  0  0  0  0  0  0  0  0  0  0  0  # atno 12157 bound_to 12142
   26.0923   15.9603   34.9928 H   0  0  0  0  0  0  0  0  0  0  0  0  # atno 15083 bound_to 15054
   26.8574   14.4904   35.0328 H   0  0  0  0  0  0  0  0  0  0  0  0  # atno 15084 bound_to 15054
   27.0954   15.5146   33.7517 H   0  0  0  0  0  0  0  0  0  0  0  0  # atno 15085 bound_to 15054
   31.5377   12.1379   30.5624 H   0  0  0  0  0  0  0  0  0  0  0  0  # atno 15194 bound_to 15161
   31.4175   10.5626   31.0648 H   0  0  0  0  0  0  0  0  0  0  0  0  # atno 15195 bound_to 15161
   32.8273   11.4029   31.2988 H   0  0  0  0  0  0  0  0  0  0  0  0  # atno 15196 bound_to 15161
   26.6519   11.6214   26.6869 H   0  0  0  0  0  0  0  0  0  0  0  0  # atno 15326 bound_to 15310
    7.8862  -11.9943   26.2874 H   0  0  0  0  0  0  0  0  0  0  0  0  # atno 15542 bound_to 15533
    9.3482  -14.5076   27.9511 H   0  0  0  0  0  0  0  0  0  0  0  0  # atno 15588 bound_to 15579
    8.9809  -18.3462   30.1725 H   0  0  0  0  0  0  0  0  0  0  0  0  # atno 15633 bound_to 15624
   11.2487  -15.5878   27.3747 LP  0  0  0  0  0  0  0  0  0  0  0  0  # atno 16458 bound_to 15536
   11.2573  -14.1505   28.3412 LP  0  0  0  0  0  0  0  0  0  0  0  0  # atno 16459 bound_to 15536
   15.8699  -13.0431   35.3397 LP  0  0  0  0  0  0  0  0  0  0  0  0  # atno 16460 bound_to 10947
   17.2219  -13.9499   35.2114 LP  0  0  0  0  0  0  0  0  0  0  0  0  # atno 16461 bound_to 10947
   14.6076  -10.4691   36.4825 LP  0  0  0  0  0  0  0  0  0  0  0  0  # atno 16466 bound_to 10707
   13.2088  -10.5812   37.3177 LP  0  0  0  0  0  0  0  0  0  0  0  0  # atno 16467 bound_to 10707
   21.4336  -12.2654   35.5943 LP  0  0  0  0  0  0  0  0  0  0  0  0  # atno 16468 bound_to 10881
   21.4229  -13.6808   36.5925 LP  0  0  0  0  0  0  0  0  0  0  0  0  # atno 16469 bound_to 10881
   22.4990   -7.6903   34.7752 LP  0  0  0  0  0  0  0  0  0  0  0  0  # atno 16470 bound_to 10910
   23.4544   -9.0936   34.4315 LP  0  0  0  0  0  0  0  0  0  0  0  0  # atno 16471 bound_to 10910
   20.5055   -9.7607   36.6188 LP  0  0  0  0  0  0  0  0  0  0  0  0  # atno 16472 bound_to 10936
   15.4008   -6.1286   35.2353 LP  0  0  0  0  0  0  0  0  0  0  0  0  # atno 16473 bound_to 10997
   16.5196   -7.4348   35.4403 LP  0  0  0  0  0  0  0  0  0  0  0  0  # atno 16474 bound_to 10997
   11.4990  -11.0423   38.2551 LP  0  0  0  0  0  0  0  0  0  0  0  0  # atno 16475 bound_to 11976
   12.6144  -12.0156   37.3560 LP  0  0  0  0  0  0  0  0  0  0  0  0  # atno 16476 bound_to 11976
   12.8530  -16.6046   36.5875 LP  0  0  0  0  0  0  0  0  0  0  0  0  # atno 16477 bound_to 12048
   11.6510  -16.5139   37.8313 LP  0  0  0  0  0  0  0  0  0  0  0  0  # atno 16478 bound_to 12048
   19.3598   -8.2303   38.3442 LP  0  0  0  0  0  0  0  0  0  0  0  0  # atno 16480 bound_to 10939
   17.9406   -8.6667   37.4525 LP  0  0  0  0  0  0  0  0  0  0  0  0  # atno 16481 bound_to 10939
   11.2443   -6.1070   36.3930 LP  0  0  0  0  0  0  0  0  0  0  0  0  # atno 16483 bound_to 11039
   12.2030   -7.5056   36.0397 LP  0  0  0  0  0  0  0  0  0  0  0  0  # atno 16484 bound_to 11039
   10.4093  -14.6205   38.4440 LP  0  0  0  0  0  0  0  0  0  0  0  0  # atno 16485 bound_to 12045
    9.0989  -11.9742   27.5460 LP  0  0  0  0  0  0  0  0  0  0  0  0  # atno 16490 bound_to 15533
    7.7132  -15.0800   27.6806 LP  0  0  0  0  0  0  0  0  0  0  0  0  # atno 16491 bound_to 15579
    8.1425  -18.2213   27.2679 LP  0  0  0  0  0  0  0  0  0  0  0  0  # atno 16492 bound_to 15582
    9.5599  -17.3362   26.8120 LP  0  0  0  0  0  0  0  0  0  0  0  0  # atno 16493 bound_to 15582
   10.1074  -17.4185   29.2067 LP  0  0  0  0  0  0  0  0  0  0  0  0  # atno 16494 bound_to 15624
   21.9869  -11.9096   37.8612 LP  0  0  0  0  0  0  0  0  0  0  0  0  # atno 16495 bound_to 10907
   25.0375  -10.7920   37.4073 LP  0  0  0  0  0  0  0  0  0  0  0  0  # atno 16496 bound_to 6104
   25.7894   -9.9533   36.0915 LP  0  0  0  0  0  0  0  0  0  0  0  0  # atno 16497 bound_to 6104
   27.6275  -13.0896   37.6243 LP  0  0  0  0  0  0  0  0  0  0  0  0  # atno 16498 bound_to 6129
   28.8839   -8.5652   33.3557 LP  0  0  0  0  0  0  0  0  0  0  0  0  # atno 16499 bound_to 5910
   30.1944   -9.6257   33.7530 LP  0  0  0  0  0  0  0  0  0  0  0  0  # atno 16500 bound_to 5910
   29.6609  -11.9159   36.4222 LP  0  0  0  0  0  0  0  0  0  0  0  0  # atno 16501 bound_to 6101
   29.1997   -9.6100   37.5603 LP  0  0  0  0  0  0  0  0  0  0  0  0  # atno 16502 bound_to 5850
   28.0870   -8.9519   36.4076 LP  0  0  0  0  0  0  0  0  0  0  0  0  # atno 16503 bound_to 5850
   29.7279   -5.9032   37.0877 LP  0  0  0  0  0  0  0  0  0  0  0  0  # atno 16504 bound_to 5907
   30.1993  -14.1221   36.5087 LP  0  0  0  0  0  0  0  0  0  0  0  0  # atno 16505 bound_to 6051
   28.5724  -13.6183   36.1930 LP  0  0  0  0  0  0  0  0  0  0  0  0  # atno 16506 bound_to 6051
   32.2774  -11.1468   33.4212 LP  0  0  0  0  0  0  0  0  0  0  0  0  # atno 16507 bound_to 5982
   32.3622  -12.2236   34.7752 LP  0  0  0  0  0  0  0  0  0  0  0  0  # atno 16508 bound_to 5982
   30.4876   -7.8937   34.7153 LP  0  0  0  0  0  0  0  0  0  0  0  0  # atno 16509 bound_to 5979
   31.1381  -10.0205   35.7717 LP  0  0  0  0  0  0  0  0  0  0  0  0  # atno 16510 bound_to 6048
   13.1599   -4.8899   30.6790 LP  0  0  0  0  0  0  0  0  0  0  0  0  # atno 16511 bound_to 11145
   12.0905   -3.5872   30.2795 LP  0  0  0  0  0  0  0  0  0  0  0  0  # atno 16512 bound_to 11145
   14.1698   -1.7795   30.7658 LP  0  0  0  0  0  0  0  0  0  0  0  0  # atno 16513 bound_to 11196
   16.1252    0.3744   28.1649 LP  0  0  0  0  0  0  0  0  0  0  0  0  # atno 16514 bound_to 11199
   15.7544   -0.6177   29.5355 LP  0  0  0  0  0  0  0  0  0  0  0  0  # atno 16515 bound_to 11199
   14.1628   -0.4422   27.6015 LP  0  0  0  0  0  0  0  0  0  0  0  0  # atno 16516 bound_to 11229
   12.9932   -3.2150   33.6338 LP  0  0  0  0  0  0  0  0  0  0  0  0  # atno 16525 bound_to 11142
   14.0158   -1.6116   35.2701 LP  0  0  0  0  0  0  0  0  0  0  0  0  # atno 16530 bound_to 11085
   15.3592   -2.3746   34.4870 LP  0  0  0  0  0  0  0  0  0  0  0  0  # atno 16531 bound_to 11085
   14.4586   -4.8839   36.2591 LP  0  0  0  0  0  0  0  0  0  0  0  0  # atno 16533 bound_to 11082
   16.0704    3.4567   26.4457 LP  0  0  0  0  0  0  0  0  0  0  0  0  # atno 16538 bound_to 11232
   16.9811    2.1111   25.8456 LP  0  0  0  0  0  0  0  0  0  0  0  0  # atno 16539 bound_to 11232
   13.5856    1.3693   27.4022 LP  0  0  0  0  0  0  0  0  0  0  0  0  # atno 16542 bound_to 11266
   16.7157    2.8778   37.1746 LP  0  0  0  0  0  0  0  0  0  0  0  0  # atno 16548 bound_to 9421
   12.8239    2.1312   29.8246 LP  0  0  0  0  0  0  0  0  0  0  0  0  # atno 16549 bound_to 11269
   11.4892    2.8418   28.9798 LP  0  0  0  0  0  0  0  0  0  0  0  0  # atno 16550 bound_to 11269
   10.2317    4.0404   32.2060 LP  0  0  0  0  0  0  0  0  0  0  0  0  # atno 16552 bound_to 11318
   11.8686    3.8177   32.7266 LP  0  0  0  0  0  0  0  0  0  0  0  0  # atno 16553 bound_to 11318
    9.5667    1.3885   31.1636 LP  0  0  0  0  0  0  0  0  0  0  0  0  # atno 16554 bound_to 11466
   11.0542    4.8320   29.1255 LP  0  0  0  0  0  0  0  0  0  0  0  0  # atno 16555 bound_to 11358
   13.4036    7.5702   35.1385 LP  0  0  0  0  0  0  0  0  0  0  0  0  # atno 16556 bound_to 11538
   12.4394    8.8814   35.0054 LP  0  0  0  0  0  0  0  0  0  0  0  0  # atno 16557 bound_to 11538
   17.4741    9.6012   38.7002 LP  0  0  0  0  0  0  0  0  0  0  0  0  # atno 16558 bound_to 9314
   17.3236    8.0978   37.8535 LP  0  0  0  0  0  0  0  0  0  0  0  0  # atno 16559 bound_to 9314
   18.0375    6.2291   40.5983 LP  0  0  0  0  0  0  0  0  0  0  0  0  # atno 16560 bound_to 9335
   16.6770    3.7887   39.3630 LP  0  0  0  0  0  0  0  0  0  0  0  0  # atno 16561 bound_to 9338
   15.6642    5.1641   39.6505 LP  0  0  0  0  0  0  0  0  0  0  0  0  # atno 16562 bound_to 9338
   20.9403    5.8188   39.6766 LP  0  0  0  0  0  0  0  0  0  0  0  0  # atno 16563 bound_to 9341
   20.5118    6.6645   38.3470 LP  0  0  0  0  0  0  0  0  0  0  0  0  # atno 16564 bound_to 9341
   12.9842    3.0153   37.2257 LP  0  0  0  0  0  0  0  0  0  0  0  0  # atno 16565 bound_to 9380
   13.8839    2.8750   38.6991 LP  0  0  0  0  0  0  0  0  0  0  0  0  # atno 16566 bound_to 9380
   14.9366    2.0265   39.0366 LP  0  0  0  0  0  0  0  0  0  0  0  0  # atno 16567 bound_to 9469
   28.9829   -4.3914   38.0005 LP  0  0  0  0  0  0  0  0  0  0  0  0  # atno 16570 bound_to 5709
   30.0755   -3.9705   36.7241 LP  0  0  0  0  0  0  0  0  0  0  0  0  # atno 16571 bound_to 5709
   25.7966    1.3419   42.0231 LP  0  0  0  0  0  0  0  0  0  0  0  0  # atno 16574 bound_to 7822
   29.1172    4.2425   42.7377 LP  0  0  0  0  0  0  0  0  0  0  0  0  # atno 16575 bound_to 7825
   29.3505    3.7188   41.1033 LP  0  0  0  0  0  0  0  0  0  0  0  0  # atno 16576 bound_to 7825
   29.6223   -2.5848   41.4539 LP  0  0  0  0  0  0  0  0  0  0  0  0  # atno 16579 bound_to 5706
   31.8761   -2.2252   39.1858 LP  0  0  0  0  0  0  0  0  0  0  0  0  # atno 16580 bound_to 5761
   33.4524   -1.9439   36.0023 LP  0  0  0  0  0  0  0  0  0  0  0  0  # atno 16581 bound_to 5766
   34.9835   -2.5103   36.0446 LP  0  0  0  0  0  0  0  0  0  0  0  0  # atno 16582 bound_to 5766
   28.1856    0.7588   43.3313 LP  0  0  0  0  0  0  0  0  0  0  0  0  # atno 16583 bound_to 7781
   28.5913   -0.4062   42.1155 LP  0  0  0  0  0  0  0  0  0  0  0  0  # atno 16584 bound_to 7781
   26.3898    2.2100   43.1253 LP  0  0  0  0  0  0  0  0  0  0  0  0  # atno 16585 bound_to 7866
   15.3862   -1.0469   39.2518 LP  0  0  0  0  0  0  0  0  0  0  0  0  # atno 16593 bound_to 9424
   13.8720   -0.2178   39.3930 LP  0  0  0  0  0  0  0  0  0  0  0  0  # atno 16594 bound_to 9424
   20.7246   -2.6214   42.4356 LP  0  0  0  0  0  0  0  0  0  0  0  0  # atno 16595 bound_to 9480
   21.3489   -2.2875   40.9640 LP  0  0  0  0  0  0  0  0  0  0  0  0  # atno 16596 bound_to 9480
   19.3595    2.2125   44.0255 LP  0  0  0  0  0  0  0  0  0  0  0  0  # atno 16597 bound_to 7659
   20.4759    3.0746   43.0203 LP  0  0  0  0  0  0  0  0  0  0  0  0  # atno 16598 bound_to 7659
   25.4779    0.9287   44.4182 LP  0  0  0  0  0  0  0  0  0  0  0  0  # atno 16599 bound_to 7717
   24.7924    2.3765   43.7593 LP  0  0  0  0  0  0  0  0  0  0  0  0  # atno 16600 bound_to 7717
   21.5658    1.4789   45.0750 LP  0  0  0  0  0  0  0  0  0  0  0  0  # atno 16601 bound_to 7714
   18.0859   -4.8213   41.3765 LP  0  0  0  0  0  0  0  0  0  0  0  0  # atno 16602 bound_to 10532
   18.5609   -5.9789   42.5741 LP  0  0  0  0  0  0  0  0  0  0  0  0  # atno 16603 bound_to 10532
   16.1994   10.0889   41.2995 LP  0  0  0  0  0  0  0  0  0  0  0  0  # atno 16604 bound_to 9311
   27.1588   11.5456   25.1422 LP  0  0  0  0  0  0  0  0  0  0  0  0  # atno 16607 bound_to 15310
   28.0161   10.8121   26.3227 LP  0  0  0  0  0  0  0  0  0  0  0  0  # atno 16608 bound_to 15310
   17.0876    8.2383   45.0036 LP  0  0  0  0  0  0  0  0  0  0  0  0  # atno 16611 bound_to 7554
   18.7554    8.1903   44.5386 LP  0  0  0  0  0  0  0  0  0  0  0  0  # atno 16612 bound_to 7554
   22.0768    4.1165   44.2692 LP  0  0  0  0  0  0  0  0  0  0  0  0  # atno 16613 bound_to 7623
   22.5264    5.7821   44.4232 LP  0  0  0  0  0  0  0  0  0  0  0  0  # atno 16614 bound_to 7623
   13.3493   11.3214   41.3712 LP  0  0  0  0  0  0  0  0  0  0  0  0  # atno 16615 bound_to 9280
   15.5251    8.3753   42.0717 LP  0  0  0  0  0  0  0  0  0  0  0  0  # atno 16616 bound_to 9283
   14.7913    9.6209   43.0257 LP  0  0  0  0  0  0  0  0  0  0  0  0  # atno 16617 bound_to 9283
   14.7786   14.3301   41.1940 LP  0  0  0  0  0  0  0  0  0  0  0  0  # atno 16618 bound_to 9228
   13.8760   14.0135   39.7500 LP  0  0  0  0  0  0  0  0  0  0  0  0  # atno 16619 bound_to 9228
   19.6485    7.5420   47.1621 LP  0  0  0  0  0  0  0  0  0  0  0  0  # atno 16620 bound_to 7620
   10.9040   14.7193   42.0346 LP  0  0  0  0  0  0  0  0  0  0  0  0  # atno 16628 bound_to 9225
   13.9291    2.2307   41.2885 LP  0  0  0  0  0  0  0  0  0  0  0  0  # atno 16635 bound_to 9528
   23.4056   20.1117   36.3411 LP  0  0  0  0  0  0  0  0  0  0  0  0  # atno 16636 bound_to 3357
   23.8901   20.2125   38.0010 LP  0  0  0  0  0  0  0  0  0  0  0  0  # atno 16637 bound_to 3357
   22.1862   21.2174   41.0627 LP  0  0  0  0  0  0  0  0  0  0  0  0  # atno 16638 bound_to 3415
   21.6842   20.8026   39.4577 LP  0  0  0  0  0  0  0  0  0  0  0  0  # atno 16639 bound_to 3415
   24.7614   23.6035   37.2346 LP  0  0  0  0  0  0  0  0  0  0  0  0  # atno 16640 bound_to 3412
   23.7262   22.1995   40.0856 LP  0  0  0  0  0  0  0  0  0  0  0  0  # atno 16641 bound_to 3478
    8.5979   13.6697   43.8978 LP  0  0  0  0  0  0  0  0  0  0  0  0  # atno 16646 bound_to 9102
    8.8780   15.3002   43.3847 LP  0  0  0  0  0  0  0  0  0  0  0  0  # atno 16647 bound_to 9102
    9.6350   15.3794   45.3309 LP  0  0  0  0  0  0  0  0  0  0  0  0  # atno 16648 bound_to 9168
   14.9649   17.0965   46.2866 LP  0  0  0  0  0  0  0  0  0  0  0  0  # atno 16649 bound_to 9178
   14.8282   15.9549   47.4463 LP  0  0  0  0  0  0  0  0  0  0  0  0  # atno 16650 bound_to 9178
   10.9850   23.8290   36.3131 LP  0  0  0  0  0  0  0  0  0  0  0  0  # atno 16654 bound_to 6255
   10.0248   25.0700   36.7653 LP  0  0  0  0  0  0  0  0  0  0  0  0  # atno 16655 bound_to 6255
   13.4461   18.9571   47.6894 LP  0  0  0  0  0  0  0  0  0  0  0  0  # atno 16656 bound_to 9176
   12.2868   18.2483   48.5951 LP  0  0  0  0  0  0  0  0  0  0  0  0  # atno 16657 bound_to 9176

> <Gold.Score>
     Fitness  S(hb_ext) S(vdw_ext)  S(hb_int)    S(int)      intcor
     35.55       8.09      20.99       0.00      -1.40      -0.76

> <Gold.Goldscore.Fitness>
35.5495

> <Gold.Goldscore.Internal.Vdw>
-1.7428

> <Gold.Goldscore.Internal.Torsion>
-0.4198

> <Gold.Goldscore.External.Vdw>
20.9905

> <Gold.Goldscore.Internal.HBond>
0.0000

> <Gold.Goldscore.External.HBond>
8.0917

> <Gold.Goldscore.Internal.Correction>
-0.7585

> <Gold.Goldscore.Hbonds>
donor molecule, donor type, donor heavy atom, donor atom, acceptor molecule, acceptor atom, score
      P1  H  5975  6022       L1     9  1.00
      P1  H  5978  6026       L1     9  0.02
      P1  H  5795  5829       L1     9  1.00

> <Gold.Goldscore.Internal.Vdw.Weighted>
-1.7428

> <Gold.Goldscore.Internal.Torsion.Weighted>
-0.4198

> <Gold.Goldscore.External.Vdw.Weighted>
28.8619

> <Gold.Goldscore.Internal.HBond.Weighted>
0.0000

> <Gold.Goldscore.External.HBond.Weighted>
8.0917

> <Gold.Goldscore.Internal.Correction.Weighted>
-0.7585

> <Gold.Rescore>
     Score     S(PLP)   S(hbond)     S(cho)   S(metal)  DE(clash)   DE(tors)     intcor
     35.47     -33.94       1.00       0.00       0.00       1.45       0.02       ----

> <Gold.PLP.Fitness>
35.4658

> <Gold.PLP.PLP>
-33.9424

> <Gold.PLP.part.hbond>
-1.0000

> <Gold.PLP.part.metal>
0.0000

> <Gold.PLP.part.buried>
-3.6425

> <Gold.PLP.part.nonpolar>
-30.7519

> <Gold.PLP.part.repulsive>
0.0329

> <Gold.PLP.ligand.clash>
1.4456

> <Gold.PLP.ligand.torsion>
0.0155

> <Gold.PLP.Chemscore.Hbond>
1.0000

> <Gold.PLP.Chemscore.CHOScore>
0.0000

> <Gold.PLP.Chemscore.Metal>
0.0000

> <Gold.Chemscore.Hbonds>
donor molecule, donor type, donor heavy atom, donor atom, acceptor molecule, acceptor atom, score
      P1  H  5975  6022       L1     9  1.00
      P1  H  5795  5829       L1     9  0.65

> <Gold.PLP.Chemscore.Internal.Correction>
   9.000000E+99

#       Name:                CT1002167954
#       Creating user name   hitesit
#       Creation time:       Sun Apr 16 22:54:18 2023


#       File generated by GOLD software.
#

@<TRIPOS>MOLECULE
CT1002167954|ligand_prepared|mol2|1|dock5
    29    30     1
SMALL
NO_CHARGES


@<TRIPOS>ATOM
      1 C1          11.1941  -8.2741  33.2761 C.3            1 RES1               0.0000
      2 C2          11.1578  -9.2024  32.0449 C.ar           1 RES1               0.0000
      3 C3          11.0921  -9.1806  34.4993 C.2            1 RES1               0.0000
      4 C4          12.5023  -7.4963  33.1855 C.2            1 RES1               0.0000
      5 C5          10.0335  -7.2532  33.3232 C.3            1 RES1               0.0000
      6 C6          10.9508  -8.6819  30.7709 C.ar           1 RES1               0.0000
      7 C7          11.3321 -10.5784  32.1667 C.ar           1 RES1               0.0000
      8 N8          12.2214  -9.3727  35.2393 N.am           1 RES1               0.0000
      9 O9          10.0465  -9.7497  34.7874 O.2            1 RES1               0.0000
     10 N10         13.4499  -7.7192  34.1499 N.am           1 RES1               0.0000
     11 O11         12.7277  -6.7047  32.2784 O.2            1 RES1               0.0000
     12 C12          9.8366  -6.6113  34.6875 C.3            1 RES1               0.0000
     13 C13         10.9221  -9.5067  29.6586 C.ar           1 RES1               0.0000
     14 C14         11.3027 -11.4015  31.0531 C.ar           1 RES1               0.0000
     15 C15         13.3811  -8.6448  35.1553 C.2            1 RES1               0.0000
     16 C16         11.0984 -10.8668  29.7989 C.ar           1 RES1               0.0000
     17 O17         14.2976  -8.8247  35.9521 O.2            1 RES1               0.0000
     18 H18         10.2273  -6.4640  32.5863 H              1 RES1               0.0000
     19 H19          9.1048  -7.7607  33.0345 H              1 RES1               0.0000
     20 H20         10.8077  -7.6143  30.6413 H              1 RES1               0.0000
     21 H21         11.4932 -11.0212  33.1437 H              1 RES1               0.0000
     22 H22         12.2020 -10.1275  35.9177 H              1 RES1               0.0000
     23 H23         14.2839  -7.1416  34.1152 H              1 RES1               0.0000
     24 H24          9.0104  -5.9038  34.6653 H              1 RES1               0.0000
     25 H25          9.6169  -7.3653  35.4405 H              1 RES1               0.0000
     26 H26         10.7328  -6.0763  34.9950 H              1 RES1               0.0000
     27 H27         10.7596  -9.0812  28.6739 H              1 RES1               0.0000
     28 H28         11.4413 -12.4714  31.1682 H              1 RES1               0.0000
     29 H29         11.0762 -11.5127  28.9273 H              1 RES1               0.0000
@<TRIPOS>BOND
    1    1    2 1     
    2    1    3 1     
    3    1    4 1     
    4    1    5 1     
    5    2    6 ar    
    6    2    7 ar    
    7    3    8 1     
    8    3    9 2     
    9    4   10 1     
   10    4   11 2     
   11    5   12 1     
   12    5   18 1     
   13    5   19 1     
   14    6   13 ar    
   15    6   20 1     
   16    7   14 ar    
   17    7   21 1     
   18    8   15 1     
   19    8   22 1     
   20   10   15 1     
   21   10   23 1     
   22   12   24 1     
   23   12   25 1     
   24   12   26 1     
   25   13   16 ar    
   26   13   27 1     
   27   14   16 ar    
   28   14   28 1     
   29   15   17 2     
   30   16   29 1     
@<TRIPOS>SUBSTRUCTURE
      1 RES1           1
@<TRIPOS>SET
DONOR_HYDROGENS      STATIC     ATOMS    <user>   **** ""
2 22 23
ATOM$RED        STATIC     ATOMS    COLORGROUP SYSTEM
2 22 23
@<TRIPOS>COMMENT
> <Gold.Version>
2022.3.0

> <Gold.Id.Protein>
unknown|3mvj_clean|pdb

> <Gold.Protein.RotatedTorsions>
[ 10968 10947 10946 10944 ] final   96.93 input   60.01 | X-H torsion
[ 10728 10707 10706 10704 ] final   56.76 input   59.96 | X-H torsion
[ 10960 10936 10937 10938 ] final  -29.80 input   23.31 | X-H torsion
[ 12067 12045 12046 12047 ] final -127.10 input   63.71 | X-H torsion
[ 15542 15533 15534 15535 ] final  -42.95 input   83.29 | X-H torsion
[ 15588 15579 15580 15581 ] final  153.15 input  107.67 | X-H torsion
[ 15633 15624 15625 15626 ] final  -30.01 input   84.82 | X-H torsion
[ 10915 10907 10908 10909 ] final  -19.76 input  -87.38 | X-H torsion
[ 6151 6129 6130 6131 ] final  -42.41 input   27.76 | X-H torsion
[ 6109 6101 6102 6103 ] final -158.34 input  -93.79 | X-H torsion
[ 5929 5907 5908 5909 ] final  160.18 input  119.25 | X-H torsion
[ 6001 5979 5980 5981 ] final  112.66 input  112.51 | X-H torsion
[ 6064 6048 6049 6050 ] final -168.48 input  108.26 | X-H torsion
[ 11206 11196 11197 11198 ] final  174.04 input   -0.63 | X-H torsion
[ 11245 11229 11230 11231 ] final   23.78 input  120.69 | X-H torsion
[ 11164 11142 11143 11144 ] final  138.61 input   33.88 | X-H torsion
[ 11104 11082 11083 11084 ] final  -69.35 input   45.00 | X-H torsion
[ 11284 11266 11267 11268 ] final  -41.60 input   49.58 | X-H torsion
[ 9439 9421 9422 9423 ] final  171.48 input  116.39 | X-H torsion
[ 11482 11466 11467 11468 ] final -169.07 input  126.08 | X-H torsion
[ 11374 11358 11359 11360 ] final  105.28 input   98.08 | X-H torsion
[ 11559 11538 11537 11535 ] final   23.57 input   60.01 | X-H torsion
[ 9349 9335 9336 9337 ] final  154.48 input   84.14 | X-H torsion
[ 9355 9341 9339 9336 ] final   88.85 input   60.02 | X-H torsion
[ 9493 9469 9470 9471 ] final  177.91 input   75.21 | X-H torsion
[ 7840 7822 7823 7824 ] final  111.54 input  121.36 | X-H torsion
[ 7742 7722 7721 7720 ] final  -14.51 input   60.01 | X-H torsion
[ 5728 5706 5707 5708 ] final  105.11 input  119.20 | X-H torsion
[ 5773 5761 5762 5763 ] final  104.75 input  120.20 | X-H torsion
[ 5777 5766 5765 5762 ] final  -24.37 input   59.99 | X-H torsion
[ 7882 7866 7867 7868 ] final   22.11 input   81.17 | X-H torsion
[ 9501 9480 9479 9477 ] final  140.18 input   60.03 | X-H torsion
[ 7732 7714 7715 7716 ] final   72.28 input  -10.67 | X-H torsion
[ 15083 15054 15053 15052 ] final  178.14 input   60.01 | X-H torsion
[ 9319 9311 9312 9313 ] final   33.42 input  -66.31 | X-H torsion
[ 15194 15161 15160 15159 ] final  111.91 input   59.99 | X-H torsion
[ 15326 15310 15309 15306 ] final  -61.05 input   59.99 | X-H torsion
[ 9292 9280 9281 9282 ] final   71.89 input   22.77 | X-H torsion
[ 7636 7620 7621 7622 ] final   31.46 input   34.37 | X-H torsion
[ 9241 9225 9226 9227 ] final  167.68 input   96.07 | X-H torsion
[ 9544 9528 9529 9530 ] final  -22.78 input   99.68 | X-H torsion
[ 3443 3412 3413 3414 ] final  109.89 input -120.58 | X-H torsion
[ 3504 3478 3479 3480 ] final   77.59 input   70.69 | X-H torsion
[ 9190 9168 9169 9170 ] final   50.84 input  115.65 | X-H torsion
[ 9198 9178 9175 9174 ] final  125.98 input   59.98 | X-H torsion
[ 6282 6255 6254 6251 ] final -124.35 input   60.00 | X-H torsion
[ 9196 9176 9175 9174 ] final  -28.69 input   60.01 | X-H torsion
[ 12157 12142 12143 12144 ] final  122.55 input  108.55 | X-H torsion
[ 11995 11973 11974 11975 ] final   95.14 input   68.31 | X-H torsion
[ 11434 11416 11417 11418 ] final   47.55 input  102.35 | X-H torsion
[ 5626 5608 5609 5610 ] final -146.74 input  119.09 | X-H torsion
[ 10774 10756 10757 10758 ] final  -29.77 input  129.22 | X-H torsion
[ 10816 10800 10801 10802 ] final  -93.42 input  128.85 | X-H torsion
[ 8641 8619 8620 8621 ] final   -6.90 input   87.35 | X-H torsion
[ 3659 3632 3633 3634 ] final -137.59 input  116.97 | X-H torsion
[ 10029 10008 10007 10005 ] final  -13.16 input   60.01 | X-H torsion
[ 16458 15536 15535 15534 ] final   77.27 input    0.00 | X-H torsion
[ 16468 10881 10880 10879 ] final  -22.72 input    0.00 | X-H torsion
[ 16470 10910 10909 10908 ] final  -21.33 input    0.00 | X-H torsion
[ 16473 10997 10996 10995 ] final  123.54 input    0.00 | X-H torsion
[ 16475 11976 11975 11974 ] final   84.67 input    0.00 | X-H torsion
[ 16477 12048 12047 12046 ] final  -84.58 input    0.00 | X-H torsion
[ 16480 10939 10938 10937 ] final -142.18 input   -0.00 | X-H torsion
[ 16483 11039 11038 11037 ] final  116.55 input    0.00 | X-H torsion
[ 16492 15582 15581 15580 ] final -101.41 input    0.00 | X-H torsion
[ 16496 6104 6103 6102 ] final -116.90 input    0.00 | X-H torsion
[ 16499 5910 5909 5908 ] final -163.26 input   -0.00 | X-H torsion
[ 16502 5850 5849 5848 ] final -136.65 input    0.00 | X-H torsion
[ 16505 6051 6050 6049 ] final  -90.14 input    0.00 | X-H torsion
[ 16507 5982 5981 5980 ] final  -60.60 input    0.00 | X-H torsion
[ 16511 11145 11144 11143 ] final  156.23 input    0.00 | X-H torsion
[ 16514 11199 11198 11197 ] final  123.47 input    0.00 | X-H torsion
[ 16530 11085 11084 11083 ] final  -63.52 input   -0.00 | X-H torsion
[ 16538 11232 11231 11230 ] final  -97.31 input    0.00 | X-H torsion
[ 16549 11269 11268 11267 ] final -100.10 input   -0.00 | X-H torsion
[ 16552 11318 11317 11316 ] final  150.23 input    0.00 | X-H torsion
[ 16558 9314 9313 9312 ] final   95.34 input    0.00 | X-H torsion
[ 16561 9338 9337 9336 ] final -143.64 input    0.00 | X-H torsion
[ 16565 9380 9379 9378 ] final -166.18 input    0.00 | X-H torsion
[ 16570 5709 5708 5707 ] final -125.04 input    0.00 | X-H torsion
[ 16575 7825 7824 7823 ] final -175.75 input    0.00 | X-H torsion
[ 16583 7781 7780 7779 ] final  -35.41 input   -0.00 | X-H torsion
[ 16593 9424 9423 9422 ] final  -72.18 input   -0.00 | X-H torsion
[ 16597 7659 7658 7657 ] final  140.20 input   -0.00 | X-H torsion
[ 16599 7717 7716 7715 ] final  112.69 input    0.00 | X-H torsion
[ 16602 10532 10531 10530 ] final   -7.41 input    0.00 | X-H torsion
[ 16611 7554 7553 7552 ] final  138.98 input    0.00 | X-H torsion
[ 16613 7623 7622 7621 ] final  -93.03 input   -0.00 | X-H torsion
[ 16616 9283 9282 9281 ] final  -85.92 input    0.00 | X-H torsion
[ 16618 9228 9227 9226 ] final  162.09 input   -0.00 | X-H torsion
[ 16636 3357 3356 3355 ] final  124.94 input   -0.00 | X-H torsion
[ 16638 3415 3414 3413 ] final -157.75 input   -0.00 | X-H torsion
[ 16646 9102 9101 9100 ] final -122.83 input    0.00 | X-H torsion

> <Gold.Protein.ActiveResidues>
 ARG45   SER53   PHE54   LEU82   LYS83   GLN84   GLU86   HIS87   GLU127  PHE129 
 SER130  HIS131  LEU132  ARG133  ARG134  ILE135  GLY136  ARG137  PHE138  SER139 
 HIS142  ARG165  ASP166  LEU167  LYS168  PRO169  GLU170  ASN171  ASP184  GLY186 
 PHE187  TRP196  TPO197  LEU198  CYS199  GLY200  THR201  PRO202  GLU203  TYR204 
 LEU205  ILE209  ILE210  TYR215  VAL226  LEU227  TYR229  GLU230  MET231  ALA233 
 GLY234  TYR235  PRO236  PRO237  PHE238  PHE239  ALA240  ASP241  GLN242  PRO243 
 ILE244  GLN245  ILE246  TYR247  LYS249  ARG256  PHE257  PRO258  SER259  HIS260 
 PRO313  PHE314  ILE315  LYS317  LYS319  SER325  ASN326  ASP328  ASP329  GLU331 
 GLU332  GLU333  GLU334 

> <Gold.Protein.RotatedAtoms>
   24.0626   22.4328   36.5853 H   0  0  0  0  0  0  0  0  0  0  0  0  # atno 3443 bound_to 3412
   25.3274   22.0903   39.5638 H   0  0  0  0  0  0  0  0  0  0  0  0  # atno 3504 bound_to 3478
   22.3240   19.8416   45.7480 H   0  0  0  0  0  0  0  0  0  0  0  0  # atno 3659 bound_to 3632
   35.8228   -0.3803   42.8254 H   0  0  0  0  0  0  0  0  0  0  0  0  # atno 5626 bound_to 5608
   30.5174   -1.3264   40.9658 H   0  0  0  0  0  0  0  0  0  0  0  0  # atno 5728 bound_to 5706
   31.9087   -2.1884   39.1668 H   0  0  0  0  0  0  0  0  0  0  0  0  # atno 5773 bound_to 5761
   33.6948   -2.3189   35.8002 H   0  0  0  0  0  0  0  0  0  0  0  0  # atno 5777 bound_to 5766
   28.8847   -5.8394   37.1345 H   0  0  0  0  0  0  0  0  0  0  0  0  # atno 5929 bound_to 5907
   31.6486   -7.2546   35.8513 H   0  0  0  0  0  0  0  0  0  0  0  0  # atno 6001 bound_to 5979
   32.6657  -10.2004   36.5738 H   0  0  0  0  0  0  0  0  0  0  0  0  # atno 6064 bound_to 6048
   29.7475  -10.8703   35.2939 H   0  0  0  0  0  0  0  0  0  0  0  0  # atno 6109 bound_to 6101
   27.8357  -12.2511   37.7655 H   0  0  0  0  0  0  0  0  0  0  0  0  # atno 6151 bound_to 6129
   10.9969   23.9387   36.4772 H   0  0  0  0  0  0  0  0  0  0  0  0  # atno 6282 bound_to 6255
   19.6161    6.3854   47.4092 H   0  0  0  0  0  0  0  0  0  0  0  0  # atno 7636 bound_to 7620
   22.6550    2.7123   44.5611 H   0  0  0  0  0  0  0  0  0  0  0  0  # atno 7732 bound_to 7714
   21.8220    5.8197   41.3425 H   0  0  0  0  0  0  0  0  0  0  0  0  # atno 7742 bound_to 7722
   23.3331    6.3388   41.7820 H   0  0  0  0  0  0  0  0  0  0  0  0  # atno 7743 bound_to 7722
   22.6041    6.9609   40.4294 H   0  0  0  0  0  0  0  0  0  0  0  0  # atno 7744 bound_to 7722
   25.4101    1.2589   40.9852 H   0  0  0  0  0  0  0  0  0  0  0  0  # atno 7840 bound_to 7822
   26.9706    1.9747   43.1717 H   0  0  0  0  0  0  0  0  0  0  0  0  # atno 7882 bound_to 7866
   22.5894   13.1947   47.6679 H   0  0  0  0  0  0  0  0  0  0  0  0  # atno 8641 bound_to 8619
   10.7492   14.4477   46.1275 H   0  0  0  0  0  0  0  0  0  0  0  0  # atno 9190 bound_to 9168
   12.7258   19.0450   46.9540 H   0  0  0  0  0  0  0  0  0  0  0  0  # atno 9196 bound_to 9176
   14.9328   17.6279   47.7338 H   0  0  0  0  0  0  0  0  0  0  0  0  # atno 9198 bound_to 9178
   10.7355   14.4870   42.3211 H   0  0  0  0  0  0  0  0  0  0  0  0  # atno 9241 bound_to 9225
   13.7602   11.8277   42.8106 H   0  0  0  0  0  0  0  0  0  0  0  0  # atno 9292 bound_to 9280
   16.3700   10.1142   40.3428 H   0  0  0  0  0  0  0  0  0  0  0  0  # atno 9319 bound_to 9311
   18.9193    6.9205   40.2966 H   0  0  0  0  0  0  0  0  0  0  0  0  # atno 9349 bound_to 9335
   20.8442    5.9759   39.6694 H   0  0  0  0  0  0  0  0  0  0  0  0  # atno 9355 bound_to 9341
   16.1549    2.6944   35.9718 H   0  0  0  0  0  0  0  0  0  0  0  0  # atno 9439 bound_to 9421
   16.5190    1.3635   39.0138 H   0  0  0  0  0  0  0  0  0  0  0  0  # atno 9493 bound_to 9469
   20.9887   -2.4399   42.3447 H   0  0  0  0  0  0  0  0  0  0  0  0  # atno 9501 bound_to 9480
   13.8197    2.1798   41.1939 H   0  0  0  0  0  0  0  0  0  0  0  0  # atno 9544 bound_to 9528
   12.5559   11.9112   45.3250 H   0  0  0  0  0  0  0  0  0  0  0  0  # atno 10029 bound_to 10008
   14.7772  -11.5188   36.9869 H   0  0  0  0  0  0  0  0  0  0  0  0  # atno 10728 bound_to 10707
   19.1359   -8.4133   41.6452 H   0  0  0  0  0  0  0  0  0  0  0  0  # atno 10774 bound_to 10756
   22.0085   -7.4765   40.9298 H   0  0  0  0  0  0  0  0  0  0  0  0  # atno 10816 bound_to 10800
   21.2119  -10.3863   38.0189 H   0  0  0  0  0  0  0  0  0  0  0  0  # atno 10915 bound_to 10907
   21.0709   -8.9336   37.2771 H   0  0  0  0  0  0  0  0  0  0  0  0  # atno 10960 bound_to 10936
   16.3711  -13.5320   33.8795 H   0  0  0  0  0  0  0  0  0  0  0  0  # atno 10968 bound_to 10947
   13.9886   -5.5480   36.1028 H   0  0  0  0  0  0  0  0  0  0  0  0  # atno 11104 bound_to 11082
   14.0923   -4.3527   33.8479 H   0  0  0  0  0  0  0  0  0  0  0  0  # atno 11164 bound_to 11142
   13.8775   -2.8401   30.5484 H   0  0  0  0  0  0  0  0  0  0  0  0  # atno 11206 bound_to 11196
   13.6579   -0.2997   27.2386 H   0  0  0  0  0  0  0  0  0  0  0  0  # atno 11245 bound_to 11229
   14.5226    1.5932   27.6265 H   0  0  0  0  0  0  0  0  0  0  0  0  # atno 11284 bound_to 11266
   11.1379    5.3567   29.1555 H   0  0  0  0  0  0  0  0  0  0  0  0  # atno 11374 bound_to 11358
   10.3829    3.0357   29.9331 H   0  0  0  0  0  0  0  0  0  0  0  0  # atno 11434 bound_to 11416
   11.0436    0.8090   30.5735 H   0  0  0  0  0  0  0  0  0  0  0  0  # atno 11482 bound_to 11466
   13.4977    7.4628   34.7865 H   0  0  0  0  0  0  0  0  0  0  0  0  # atno 11559 bound_to 11538
    9.3921  -10.4787   36.8743 H   0  0  0  0  0  0  0  0  0  0  0  0  # atno 11995 bound_to 11973
   10.9424  -13.0530   38.0521 H   0  0  0  0  0  0  0  0  0  0  0  0  # atno 12067 bound_to 12045
   15.2314  -18.7688   36.2960 H   0  0  0  0  0  0  0  0  0  0  0  0  # atno 12157 bound_to 12142
   26.1853   15.3098   35.4101 H   0  0  0  0  0  0  0  0  0  0  0  0  # atno 15083 bound_to 15054
   27.2302   14.5743   34.3543 H   0  0  0  0  0  0  0  0  0  0  0  0  # atno 15084 bound_to 15054
   26.6300   16.0810   34.0127 H   0  0  0  0  0  0  0  0  0  0  0  0  # atno 15085 bound_to 15054
   31.5884   10.4907   31.1534 H   0  0  0  0  0  0  0  0  0  0  0  0  # atno 15194 bound_to 15161
   32.8214   11.5961   31.2300 H   0  0  0  0  0  0  0  0  0  0  0  0  # atno 15195 bound_to 15161
   31.3723   12.0159   30.5428 H   0  0  0  0  0  0  0  0  0  0  0  0  # atno 15196 bound_to 15161
   27.6749   11.2031   25.2149 H   0  0  0  0  0  0  0  0  0  0  0  0  # atno 15326 bound_to 15310
    8.0482  -12.3883   27.5684 H   0  0  0  0  0  0  0  0  0  0  0  0  # atno 15542 bound_to 15533
    7.9343  -14.3468   28.3241 H   0  0  0  0  0  0  0  0  0  0  0  0  # atno 15588 bound_to 15579
    8.7518  -18.1718   29.4365 H   0  0  0  0  0  0  0  0  0  0  0  0  # atno 15633 bound_to 15624
   11.2959  -14.0826   28.2179 LP  0  0  0  0  0  0  0  0  0  0  0  0  # atno 16458 bound_to 15536
   11.2101  -15.6557   27.4981 LP  0  0  0  0  0  0  0  0  0  0  0  0  # atno 16459 bound_to 15536
   15.8779  -13.0470   35.3523 LP  0  0  0  0  0  0  0  0  0  0  0  0  # atno 16460 bound_to 10947
   17.2266  -13.9546   35.1975 LP  0  0  0  0  0  0  0  0  0  0  0  0  # atno 16461 bound_to 10947
   14.0317  -10.1238   36.6045 LP  0  0  0  0  0  0  0  0  0  0  0  0  # atno 16466 bound_to 10707
   13.3092  -11.1907   37.6077 LP  0  0  0  0  0  0  0  0  0  0  0  0  # atno 16467 bound_to 10707
   21.0739  -13.6374   36.5213 LP  0  0  0  0  0  0  0  0  0  0  0  0  # atno 16468 bound_to 10881
   21.7826  -12.3088   35.6655 LP  0  0  0  0  0  0  0  0  0  0  0  0  # atno 16469 bound_to 10881
   23.7510   -8.6198   34.9173 LP  0  0  0  0  0  0  0  0  0  0  0  0  # atno 16470 bound_to 10910
   22.2025   -8.1640   34.2894 LP  0  0  0  0  0  0  0  0  0  0  0  0  # atno 16471 bound_to 10910
   21.3986   -9.6875   35.7366 LP  0  0  0  0  0  0  0  0  0  0  0  0  # atno 16472 bound_to 10936
   15.7033   -7.5403   35.6672 LP  0  0  0  0  0  0  0  0  0  0  0  0  # atno 16473 bound_to 10997
   16.2170   -6.0231   35.0083 LP  0  0  0  0  0  0  0  0  0  0  0  0  # atno 16474 bound_to 10997
   11.7121  -11.2363   38.5442 LP  0  0  0  0  0  0  0  0  0  0  0  0  # atno 16475 bound_to 11976
   12.4014  -11.8216   37.0670 LP  0  0  0  0  0  0  0  0  0  0  0  0  # atno 16476 bound_to 11976
   12.2231  -17.0311   37.9350 LP  0  0  0  0  0  0  0  0  0  0  0  0  # atno 16477 bound_to 12048
   12.2809  -16.0874   36.4838 LP  0  0  0  0  0  0  0  0  0  0  0  0  # atno 16478 bound_to 12048
   17.8375   -8.1734   37.7808 LP  0  0  0  0  0  0  0  0  0  0  0  0  # atno 16480 bound_to 10939
   19.4629   -8.7236   38.0159 LP  0  0  0  0  0  0  0  0  0  0  0  0  # atno 16481 bound_to 10939
   11.2270   -6.1874   36.5632 LP  0  0  0  0  0  0  0  0  0  0  0  0  # atno 16483 bound_to 11039
   12.2203   -7.4251   35.8695 LP  0  0  0  0  0  0  0  0  0  0  0  0  # atno 16484 bound_to 11039
   10.5281  -14.7493   38.0947 LP  0  0  0  0  0  0  0  0  0  0  0  0  # atno 16485 bound_to 12045
    8.9407  -11.5896   26.2953 LP  0  0  0  0  0  0  0  0  0  0  0  0  # atno 16490 bound_to 15533
    9.0679  -15.2341   27.3232 LP  0  0  0  0  0  0  0  0  0  0  0  0  # atno 16491 bound_to 15579
    8.1655  -18.2549   27.2705 LP  0  0  0  0  0  0  0  0  0  0  0  0  # atno 16492 bound_to 15582
    9.5368  -17.3026   26.8093 LP  0  0  0  0  0  0  0  0  0  0  0  0  # atno 16493 bound_to 15582
   10.3291  -17.5873   29.9192 LP  0  0  0  0  0  0  0  0  0  0  0  0  # atno 16494 bound_to 15624
   22.2101  -11.8224   38.1026 LP  0  0  0  0  0  0  0  0  0  0  0  0  # atno 16495 bound_to 10907
   25.7212  -10.0232   37.4796 LP  0  0  0  0  0  0  0  0  0  0  0  0  # atno 16496 bound_to 6104
   25.1057  -10.7221   36.0192 LP  0  0  0  0  0  0  0  0  0  0  0  0  # atno 16497 bound_to 6104
   26.4452  -12.6870   36.8018 LP  0  0  0  0  0  0  0  0  0  0  0  0  # atno 16498 bound_to 6129
   30.2273   -9.5980   33.7088 LP  0  0  0  0  0  0  0  0  0  0  0  0  # atno 16499 bound_to 5910
   28.8510   -8.5929   33.3999 LP  0  0  0  0  0  0  0  0  0  0  0  0  # atno 16500 bound_to 5910
   29.3961  -11.3436   36.9354 LP  0  0  0  0  0  0  0  0  0  0  0  0  # atno 16501 bound_to 6101
   29.2556   -9.1986   36.3770 LP  0  0  0  0  0  0  0  0  0  0  0  0  # atno 16502 bound_to 5850
   28.0311   -9.3632   37.5909 LP  0  0  0  0  0  0  0  0  0  0  0  0  # atno 16503 bound_to 5850
   29.6529   -7.4000   37.2901 LP  0  0  0  0  0  0  0  0  0  0  0  0  # atno 16504 bound_to 5907
   29.7213  -13.9468   35.5561 LP  0  0  0  0  0  0  0  0  0  0  0  0  # atno 16505 bound_to 6051
   29.0504  -13.7937   37.1455 LP  0  0  0  0  0  0  0  0  0  0  0  0  # atno 16506 bound_to 6051
   31.7460  -11.3450   33.5459 LP  0  0  0  0  0  0  0  0  0  0  0  0  # atno 16507 bound_to 5982
   32.8935  -12.0254   34.6506 LP  0  0  0  0  0  0  0  0  0  0  0  0  # atno 16508 bound_to 5982
   30.4448   -7.9782   34.8063 LP  0  0  0  0  0  0  0  0  0  0  0  0  # atno 16509 bound_to 5979
   31.0566   -9.9227   35.9481 LP  0  0  0  0  0  0  0  0  0  0  0  0  # atno 16510 bound_to 6048
   12.3250   -3.7240   29.8507 LP  0  0  0  0  0  0  0  0  0  0  0  0  # atno 16511 bound_to 11145
   12.9254   -4.7531   31.1078 LP  0  0  0  0  0  0  0  0  0  0  0  0  # atno 16512 bound_to 11145
   15.3220   -1.9264   30.1460 LP  0  0  0  0  0  0  0  0  0  0  0  0  # atno 16513 bound_to 11196
   16.5217   -0.4158   28.2801 LP  0  0  0  0  0  0  0  0  0  0  0  0  # atno 16514 bound_to 11199
   15.3580    0.1725   29.4202 LP  0  0  0  0  0  0  0  0  0  0  0  0  # atno 16515 bound_to 11199
   14.6298   -1.6294   26.6377 LP  0  0  0  0  0  0  0  0  0  0  0  0  # atno 16516 bound_to 11229
   12.7063   -3.5874   33.1191 LP  0  0  0  0  0  0  0  0  0  0  0  0  # atno 16525 bound_to 11142
   13.9902   -1.5128   35.0603 LP  0  0  0  0  0  0  0  0  0  0  0  0  # atno 16530 bound_to 11085
   15.3848   -2.4735   34.6968 LP  0  0  0  0  0  0  0  0  0  0  0  0  # atno 16531 bound_to 11085
   13.5026   -4.4039   37.3351 LP  0  0  0  0  0  0  0  0  0  0  0  0  # atno 16533 bound_to 11082
   16.7814    2.5984   26.9520 LP  0  0  0  0  0  0  0  0  0  0  0  0  # atno 16538 bound_to 11232
   16.2701    2.9694   25.3393 LP  0  0  0  0  0  0  0  0  0  0  0  0  # atno 16539 bound_to 11232
   13.7558    1.7665   26.0566 LP  0  0  0  0  0  0  0  0  0  0  0  0  # atno 16542 bound_to 11266
   15.7280    3.1528   37.5997 LP  0  0  0  0  0  0  0  0  0  0  0  0  # atno 16548 bound_to 9421
   11.4822    3.0138   29.2714 LP  0  0  0  0  0  0  0  0  0  0  0  0  # atno 16549 bound_to 11269
   12.8310    1.9592   29.5330 LP  0  0  0  0  0  0  0  0  0  0  0  0  # atno 16550 bound_to 11269
   10.2997    4.3569   32.4048 LP  0  0  0  0  0  0  0  0  0  0  0  0  # atno 16552 bound_to 11318
   11.8006    3.5013   32.5277 LP  0  0  0  0  0  0  0  0  0  0  0  0  # atno 16553 bound_to 11318
    9.7409    1.7922   31.2089 LP  0  0  0  0  0  0  0  0  0  0  0  0  # atno 16554 bound_to 11466
   11.4363    4.6974   30.7362 LP  0  0  0  0  0  0  0  0  0  0  0  0  # atno 16555 bound_to 11358
   12.5659    8.6898   35.3096 LP  0  0  0  0  0  0  0  0  0  0  0  0  # atno 16556 bound_to 11538
   12.8094    8.4700   33.7099 LP  0  0  0  0  0  0  0  0  0  0  0  0  # atno 16557 bound_to 11538
   18.2405    8.9939   38.1329 LP  0  0  0  0  0  0  0  0  0  0  0  0  # atno 16558 bound_to 9314
   16.5572    8.7051   38.4208 LP  0  0  0  0  0  0  0  0  0  0  0  0  # atno 16559 bound_to 9314
   17.1972    7.0211   40.0201 LP  0  0  0  0  0  0  0  0  0  0  0  0  # atno 16560 bound_to 9335
   15.8966    3.8758   38.9461 LP  0  0  0  0  0  0  0  0  0  0  0  0  # atno 16561 bound_to 9338
   16.4447    5.0769   40.0673 LP  0  0  0  0  0  0  0  0  0  0  0  0  # atno 16562 bound_to 9338
   20.5669    6.5889   38.1874 LP  0  0  0  0  0  0  0  0  0  0  0  0  # atno 16563 bound_to 9341
   21.3966    5.1924   38.3541 LP  0  0  0  0  0  0  0  0  0  0  0  0  # atno 16564 bound_to 9341
   13.7823    2.1891   38.2014 LP  0  0  0  0  0  0  0  0  0  0  0  0  # atno 16565 bound_to 9380
   13.0858    3.7012   37.7234 LP  0  0  0  0  0  0  0  0  0  0  0  0  # atno 16566 bound_to 9380
   15.0669    2.3394   39.0622 LP  0  0  0  0  0  0  0  0  0  0  0  0  # atno 16567 bound_to 9469
   30.0881   -4.7748   37.6538 LP  0  0  0  0  0  0  0  0  0  0  0  0  # atno 16570 bound_to 5709
   28.9703   -3.5871   37.0708 LP  0  0  0  0  0  0  0  0  0  0  0  0  # atno 16571 bound_to 5709
   26.7266    0.4198   41.7673 LP  0  0  0  0  0  0  0  0  0  0  0  0  # atno 16574 bound_to 7822
   29.1654    4.1719   42.7623 LP  0  0  0  0  0  0  0  0  0  0  0  0  # atno 16575 bound_to 7825
   29.3023    3.7894   41.0786 LP  0  0  0  0  0  0  0  0  0  0  0  0  # atno 16576 bound_to 7825
   30.0752   -2.9923   41.2410 LP  0  0  0  0  0  0  0  0  0  0  0  0  # atno 16579 bound_to 5706
   30.5644   -2.7668   38.2092 LP  0  0  0  0  0  0  0  0  0  0  0  0  # atno 16580 bound_to 5761
   35.2235   -2.2031   36.3448 LP  0  0  0  0  0  0  0  0  0  0  0  0  # atno 16581 bound_to 5766
   34.1016   -1.1132   36.8140 LP  0  0  0  0  0  0  0  0  0  0  0  0  # atno 16582 bound_to 5766
   28.0824   -0.0912   43.4881 LP  0  0  0  0  0  0  0  0  0  0  0  0  # atno 16583 bound_to 7781
   28.6946    0.4437   41.9587 LP  0  0  0  0  0  0  0  0  0  0  0  0  # atno 16584 bound_to 7781
   26.8801    3.4441   42.2231 LP  0  0  0  0  0  0  0  0  0  0  0  0  # atno 16585 bound_to 7866
   13.8670   -0.3714   39.0044 LP  0  0  0  0  0  0  0  0  0  0  0  0  # atno 16593 bound_to 9424
   15.3911   -0.8934   39.6404 LP  0  0  0  0  0  0  0  0  0  0  0  0  # atno 16594 bound_to 9424
   21.1642   -2.4338   40.7269 LP  0  0  0  0  0  0  0  0  0  0  0  0  # atno 16595 bound_to 9480
   19.9290   -3.2517   41.4140 LP  0  0  0  0  0  0  0  0  0  0  0  0  # atno 16596 bound_to 9480
   20.5198    2.7817   42.9160 LP  0  0  0  0  0  0  0  0  0  0  0  0  # atno 16597 bound_to 7659
   19.3156    2.5055   44.1298 LP  0  0  0  0  0  0  0  0  0  0  0  0  # atno 16598 bound_to 7659
   25.2754    0.9817   44.6182 LP  0  0  0  0  0  0  0  0  0  0  0  0  # atno 16599 bound_to 7717
   24.9949    2.3234   43.5593 LP  0  0  0  0  0  0  0  0  0  0  0  0  # atno 16600 bound_to 7717
   21.7916    1.3300   45.1989 LP  0  0  0  0  0  0  0  0  0  0  0  0  # atno 16601 bound_to 7714
   17.5519   -5.5246   41.6022 LP  0  0  0  0  0  0  0  0  0  0  0  0  # atno 16602 bound_to 10532
   19.0950   -5.2757   42.3485 LP  0  0  0  0  0  0  0  0  0  0  0  0  # atno 16603 bound_to 10532
   17.4583   10.7255   41.5650 LP  0  0  0  0  0  0  0  0  0  0  0  0  # atno 16604 bound_to 9311
   27.6683   10.9544   26.8233 LP  0  0  0  0  0  0  0  0  0  0  0  0  # atno 16607 bound_to 15310
   26.4765   11.8246   26.1240 LP  0  0  0  0  0  0  0  0  0  0  0  0  # atno 16608 bound_to 15310
   18.7589    8.3671   44.6116 LP  0  0  0  0  0  0  0  0  0  0  0  0  # atno 16611 bound_to 7554
   17.0841    8.0614   44.9306 LP  0  0  0  0  0  0  0  0  0  0  0  0  # atno 16612 bound_to 7554
   21.7824    4.6682   43.7126 LP  0  0  0  0  0  0  0  0  0  0  0  0  # atno 16613 bound_to 7623
   22.8208    5.2303   44.9797 LP  0  0  0  0  0  0  0  0  0  0  0  0  # atno 16614 bound_to 7623
   13.3803   12.0035   41.1248 LP  0  0  0  0  0  0  0  0  0  0  0  0  # atno 16615 bound_to 9280
   15.5528    9.2784   43.2668 LP  0  0  0  0  0  0  0  0  0  0  0  0  # atno 16616 bound_to 9283
   14.7636    8.7178   41.8306 LP  0  0  0  0  0  0  0  0  0  0  0  0  # atno 16617 bound_to 9283
   15.0619   13.9101   40.8487 LP  0  0  0  0  0  0  0  0  0  0  0  0  # atno 16618 bound_to 9228
   13.5928   14.4335   40.0952 LP  0  0  0  0  0  0  0  0  0  0  0  0  # atno 16619 bound_to 9228
   18.6221    7.4105   46.4143 LP  0  0  0  0  0  0  0  0  0  0  0  0  # atno 16620 bound_to 7620
   12.4310   14.5782   42.7276 LP  0  0  0  0  0  0  0  0  0  0  0  0  # atno 16628 bound_to 9225
   14.4734    3.5507   40.3293 LP  0  0  0  0  0  0  0  0  0  0  0  0  # atno 16635 bound_to 9528
   23.9060   20.2025   37.9967 LP  0  0  0  0  0  0  0  0  0  0  0  0  # atno 16636 bound_to 3357
   23.3897   20.1217   36.3454 LP  0  0  0  0  0  0  0  0  0  0  0  0  # atno 16637 bound_to 3357
   22.3736   20.8485   40.9894 LP  0  0  0  0  0  0  0  0  0  0  0  0  # atno 16638 bound_to 3415
   21.4969   21.1715   39.5310 LP  0  0  0  0  0  0  0  0  0  0  0  0  # atno 16639 bound_to 3415
   25.1862   23.0637   37.7675 LP  0  0  0  0  0  0  0  0  0  0  0  0  # atno 16640 bound_to 3412
   23.6117   21.8491   39.8144 LP  0  0  0  0  0  0  0  0  0  0  0  0  # atno 16641 bound_to 3478
    9.3003   13.8280   43.5945 LP  0  0  0  0  0  0  0  0  0  0  0  0  # atno 16646 bound_to 9102
    8.1756   15.1419   43.6879 LP  0  0  0  0  0  0  0  0  0  0  0  0  # atno 16647 bound_to 9102
    9.8423   15.8269   45.5616 LP  0  0  0  0  0  0  0  0  0  0  0  0  # atno 16648 bound_to 9168
   14.9549   16.9398   46.2594 LP  0  0  0  0  0  0  0  0  0  0  0  0  # atno 16649 bound_to 9178
   14.8252   16.0102   47.5957 LP  0  0  0  0  0  0  0  0  0  0  0  0  # atno 16650 bound_to 9178
    9.8787   25.1099   36.6368 LP  0  0  0  0  0  0  0  0  0  0  0  0  # atno 16654 bound_to 6255
    9.8636   24.1356   35.3264 LP  0  0  0  0  0  0  0  0  0  0  0  0  # atno 16655 bound_to 6255
   13.2487   18.5970   48.4289 LP  0  0  0  0  0  0  0  0  0  0  0  0  # atno 16656 bound_to 9176
   11.6993   18.3240   47.9912 LP  0  0  0  0  0  0  0  0  0  0  0  0  # atno 16657 bound_to 9176

> <Gold.Score>
     Fitness  S(hb_ext) S(vdw_ext)  S(hb_int)    S(int)      intcor
     34.82       1.15      25.86       0.00      -1.89      -0.76

> <Gold.Goldscore.Fitness>
34.8204

> <Gold.Goldscore.Internal.Vdw>
-1.8819

> <Gold.Goldscore.Internal.Torsion>
-0.7678

> <Gold.Goldscore.External.Vdw>
25.8635

> <Gold.Goldscore.Internal.HBond>
0.0000

> <Gold.Goldscore.External.HBond>
1.1493

> <Gold.Goldscore.Internal.Correction>
-0.7585

> <Gold.Goldscore.Hbonds>
donor molecule, donor type, donor heavy atom, donor atom, acceptor molecule, acceptor atom, score
      P1  H 11973 11995       L1     9  0.38
      L1  H     8    22       P1 11976  0.20

> <Gold.Goldscore.Internal.Vdw.Weighted>
-1.8819

> <Gold.Goldscore.Internal.Torsion.Weighted>
-0.7678

> <Gold.Goldscore.External.Vdw.Weighted>
35.5624

> <Gold.Goldscore.Internal.HBond.Weighted>
0.0000

> <Gold.Goldscore.External.HBond.Weighted>
1.1493

> <Gold.Goldscore.Internal.Correction.Weighted>
-0.7585

> <Gold.Rescore>
     Score     S(PLP)   S(hbond)     S(cho)   S(metal)  DE(clash)   DE(tors)     intcor
     16.41     -18.39       0.00       0.00       0.00       0.82       0.58       ----

> <Gold.PLP.Fitness>
16.4077

> <Gold.PLP.PLP>
-18.3853

> <Gold.PLP.part.hbond>
-2.0349

> <Gold.PLP.part.metal>
0.0000

> <Gold.PLP.part.buried>
11.5561

> <Gold.PLP.part.nonpolar>
-31.0071

> <Gold.PLP.part.repulsive>
1.4360

> <Gold.PLP.ligand.clash>
0.8185

> <Gold.PLP.ligand.torsion>
0.5796

> <Gold.PLP.Chemscore.Hbond>
0.0000

> <Gold.PLP.Chemscore.CHOScore>
0.0000

> <Gold.PLP.Chemscore.Metal>
0.0000

> <Gold.Chemscore.Hbonds>
donor molecule, donor type, donor heavy atom, donor atom, acceptor molecule, acceptor atom, score
      P1  H 11973 11995       L1     9  0.49

> <Gold.PLP.Chemscore.Internal.Correction>
   9.000000E+99

#       Name:                CT1002167954
#       Creating user name   hitesit
#       Creation time:       Sun Apr 16 22:54:08 2023


#       File generated by GOLD software.
#

@<TRIPOS>MOLECULE
CT1002167954|ligand_prepared|mol2|1|dock1
    29    30     1
SMALL
NO_CHARGES


@<TRIPOS>ATOM
      1 C1          18.9761  14.4615  32.7767 C.3            1 RES1               0.0000
      2 C2          20.0789  14.1482  31.7450 C.ar           1 RES1               0.0000
      3 C3          19.4752  15.6531  33.5887 C.2            1 RES1               0.0000
      4 C4          17.7094  14.7413  31.9756 C.2            1 RES1               0.0000
      5 C5          18.6794  13.2951  33.7478 C.3            1 RES1               0.0000
      6 C6          20.9497  15.1445  31.3138 C.ar           1 RES1               0.0000
      7 C7          20.2392  12.8693  31.2182 C.ar           1 RES1               0.0000
      8 N8          18.8969  16.8654  33.3524 N.am           1 RES1               0.0000
      9 O9          20.3894  15.5385  34.3958 O.2            1 RES1               0.0000
     10 N10         17.1893  16.0083  32.0185 N.am           1 RES1               0.0000
     11 O11         17.1664  13.8803  31.2943 O.2            1 RES1               0.0000
     12 C12         17.8257  13.6931  34.9415 C.3            1 RES1               0.0000
     13 C13         21.9465  14.8716  30.3918 C.ar           1 RES1               0.0000
     14 C14         21.2366  12.5987  30.2960 C.ar           1 RES1               0.0000
     15 C15         17.7428  17.0909  32.6460 C.2            1 RES1               0.0000
     16 C16         22.0910  13.5987  29.8826 C.ar           1 RES1               0.0000
     17 O17         17.2442  18.2115  32.5938 O.2            1 RES1               0.0000
     18 H18         18.1654  12.4983  33.1960 H              1 RES1               0.0000
     19 H19         19.6308  12.8895  34.1137 H              1 RES1               0.0000
     20 H20         20.8497  16.1528  31.7016 H              1 RES1               0.0000
     21 H21         19.5780  12.0673  31.5282 H              1 RES1               0.0000
     22 H22         19.3659  17.6796  33.7364 H              1 RES1               0.0000
     23 H23         16.3077  16.1583  31.5382 H              1 RES1               0.0000
     24 H24         17.6475  12.8382  35.5904 H              1 RES1               0.0000
     25 H25         18.3183  14.4664  35.5273 H              1 RES1               0.0000
     26 H26         16.8616  14.0776  34.6151 H              1 RES1               0.0000
     27 H27         22.6154  15.6624  30.0686 H              1 RES1               0.0000
     28 H28         21.3463  11.5955  29.8975 H              1 RES1               0.0000
     29 H29         22.8722  13.3851  29.1606 H              1 RES1               0.0000
@<TRIPOS>BOND
    1    1    2 1     
    2    1    3 1     
    3    1    4 1     
    4    1    5 1     
    5    2    6 ar    
    6    2    7 ar    
    7    3    8 1     
    8    3    9 2     
    9    4   10 1     
   10    4   11 2     
   11    5   12 1     
   12    5   18 1     
   13    5   19 1     
   14    6   13 ar    
   15    6   20 1     
   16    7   14 ar    
   17    7   21 1     
   18    8   15 1     
   19    8   22 1     
   20   10   15 1     
   21   10   23 1     
   22   12   24 1     
   23   12   25 1     
   24   12   26 1     
   25   13   16 ar    
   26   13   27 1     
   27   14   16 ar    
   28   14   28 1     
   29   15   17 2     
   30   16   29 1     
@<TRIPOS>SUBSTRUCTURE
      1 RES1           1
@<TRIPOS>SET
DONOR_HYDROGENS      STATIC     ATOMS    <user>   **** ""
2 22 23
ATOM$RED        STATIC     ATOMS    COLORGROUP SYSTEM
2 22 23
@<TRIPOS>COMMENT
> <Gold.Version>
2022.3.0

> <Gold.Id.Protein>
unknown|3mvj_clean|pdb

> <Gold.Protein.RotatedTorsions>
[ 10968 10947 10946 10944 ] final  152.75 input   60.01 | X-H torsion
[ 10728 10707 10706 10704 ] final  100.77 input   59.96 | X-H torsion
[ 10960 10936 10937 10938 ] final  -83.53 input   23.31 | X-H torsion
[ 12067 12045 12046 12047 ] final -176.73 input   63.71 | X-H torsion
[ 15542 15533 15534 15535 ] final  -50.00 input   83.29 | X-H torsion
[ 15588 15579 15580 15581 ] final  -24.63 input  107.67 | X-H torsion
[ 15633 15624 15625 15626 ] final   32.62 input   84.82 | X-H torsion
[ 10915 10907 10908 10909 ] final  -21.52 input  -87.38 | X-H torsion
[ 6151 6129 6130 6131 ] final  158.61 input   27.76 | X-H torsion
[ 6109 6101 6102 6103 ] final   94.62 input  -93.79 | X-H torsion
[ 5929 5907 5908 5909 ] final  -20.19 input  119.25 | X-H torsion
[ 6001 5979 5980 5981 ] final  112.35 input  112.51 | X-H torsion
[ 6064 6048 6049 6050 ] final   90.01 input  108.26 | X-H torsion
[ 11206 11196 11197 11198 ] final  -70.94 input   -0.63 | X-H torsion
[ 11245 11229 11230 11231 ] final -131.13 input  120.69 | X-H torsion
[ 11164 11142 11143 11144 ] final  -90.85 input   33.88 | X-H torsion
[ 11104 11082 11083 11084 ] final -160.14 input   45.00 | X-H torsion
[ 11284 11266 11267 11268 ] final  -71.35 input   49.58 | X-H torsion
[ 9439 9421 9422 9423 ] final   53.26 input  116.39 | X-H torsion
[ 11482 11466 11467 11468 ] final  100.70 input  126.08 | X-H torsion
[ 11374 11358 11359 11360 ] final  155.67 input   98.08 | X-H torsion
[ 11559 11538 11537 11535 ] final   76.77 input   60.01 | X-H torsion
[ 9349 9335 9336 9337 ] final  -79.02 input   84.14 | X-H torsion
[ 9355 9341 9339 9336 ] final  110.54 input   60.02 | X-H torsion
[ 9493 9469 9470 9471 ] final  -65.39 input   75.21 | X-H torsion
[ 7840 7822 7823 7824 ] final   67.07 input  121.36 | X-H torsion
[ 7742 7722 7721 7720 ] final  102.36 input   60.01 | X-H torsion
[ 5728 5706 5707 5708 ] final   61.59 input  119.20 | X-H torsion
[ 5773 5761 5762 5763 ] final  -72.38 input  120.20 | X-H torsion
[ 5777 5766 5765 5762 ] final -155.71 input   59.99 | X-H torsion
[ 7882 7866 7867 7868 ] final  117.64 input   81.17 | X-H torsion
[ 9501 9480 9479 9477 ] final  -83.48 input   60.03 | X-H torsion
[ 7732 7714 7715 7716 ] final   18.88 input  -10.67 | X-H torsion
[ 15083 15054 15053 15052 ] final  107.79 input   60.01 | X-H torsion
[ 9319 9311 9312 9313 ] final  -74.76 input  -66.31 | X-H torsion
[ 15194 15161 15160 15159 ] final   89.23 input   59.99 | X-H torsion
[ 15326 15310 15309 15306 ] final   83.65 input   59.99 | X-H torsion
[ 9292 9280 9281 9282 ] final  147.80 input   22.77 | X-H torsion
[ 7636 7620 7621 7622 ] final   67.99 input   34.37 | X-H torsion
[ 9241 9225 9226 9227 ] final  -70.01 input   96.07 | X-H torsion
[ 9544 9528 9529 9530 ] final  130.46 input   99.68 | X-H torsion
[ 3443 3412 3413 3414 ] final -114.93 input -120.58 | X-H torsion
[ 3504 3478 3479 3480 ] final -133.26 input   70.69 | X-H torsion
[ 9190 9168 9169 9170 ] final   86.14 input  115.65 | X-H torsion
[ 9198 9178 9175 9174 ] final  -62.51 input   59.98 | X-H torsion
[ 6282 6255 6254 6251 ] final   78.22 input   60.00 | X-H torsion
[ 9196 9176 9175 9174 ] final  -35.40 input   60.01 | X-H torsion
[ 12157 12142 12143 12144 ] final   38.14 input  108.55 | X-H torsion
[ 11995 11973 11974 11975 ] final  -93.44 input   68.31 | X-H torsion
[ 11434 11416 11417 11418 ] final  165.49 input  102.35 | X-H torsion
[ 5626 5608 5609 5610 ] final   57.14 input  119.09 | X-H torsion
[ 10774 10756 10757 10758 ] final -138.17 input  129.22 | X-H torsion
[ 10816 10800 10801 10802 ] final  -89.23 input  128.85 | X-H torsion
[ 8641 8619 8620 8621 ] final   73.15 input   87.35 | X-H torsion
[ 3659 3632 3633 3634 ] final  -28.00 input  116.97 | X-H torsion
[ 10029 10008 10007 10005 ] final  -87.81 input   60.01 | X-H torsion
[ 16458 15536 15535 15534 ] final  -24.03 input    0.00 | X-H torsion
[ 16468 10881 10880 10879 ] final   73.03 input    0.00 | X-H torsion
[ 16470 10910 10909 10908 ] final -161.92 input    0.00 | X-H torsion
[ 16473 10997 10996 10995 ] final  -90.82 input    0.00 | X-H torsion
[ 16475 11976 11975 11974 ] final  -56.45 input    0.00 | X-H torsion
[ 16477 12048 12047 12046 ] final   92.48 input    0.00 | X-H torsion
[ 16480 10939 10938 10937 ] final  -52.41 input   -0.00 | X-H torsion
[ 16483 11039 11038 11037 ] final  102.38 input    0.00 | X-H torsion
[ 16492 15582 15581 15580 ] final -117.06 input    0.00 | X-H torsion
[ 16496 6104 6103 6102 ] final   -1.55 input    0.00 | X-H torsion
[ 16499 5910 5909 5908 ] final  -61.46 input   -0.00 | X-H torsion
[ 16502 5850 5849 5848 ] final  -90.36 input    0.00 | X-H torsion
[ 16505 6051 6050 6049 ] final  158.42 input    0.00 | X-H torsion
[ 16507 5982 5981 5980 ] final   14.87 input    0.00 | X-H torsion
[ 16511 11145 11144 11143 ] final  132.97 input    0.00 | X-H torsion
[ 16514 11199 11198 11197 ] final    1.99 input    0.00 | X-H torsion
[ 16530 11085 11084 11083 ] final  -75.02 input   -0.00 | X-H torsion
[ 16538 11232 11231 11230 ] final   97.92 input    0.00 | X-H torsion
[ 16549 11269 11268 11267 ] final   10.79 input   -0.00 | X-H torsion
[ 16552 11318 11317 11316 ] final  175.25 input    0.00 | X-H torsion
[ 16558 9314 9313 9312 ] final   20.78 input    0.00 | X-H torsion
[ 16561 9338 9337 9336 ] final  124.41 input    0.00 | X-H torsion
[ 16565 9380 9379 9378 ] final  -34.23 input    0.00 | X-H torsion
[ 16570 5709 5708 5707 ] final -136.84 input    0.00 | X-H torsion
[ 16575 7825 7824 7823 ] final  130.22 input    0.00 | X-H torsion
[ 16583 7781 7780 7779 ] final  171.08 input   -0.00 | X-H torsion
[ 16593 9424 9423 9422 ] final  -21.71 input   -0.00 | X-H torsion
[ 16597 7659 7658 7657 ] final   90.74 input   -0.00 | X-H torsion
[ 16599 7717 7716 7715 ] final   57.36 input    0.00 | X-H torsion
[ 16602 10532 10531 10530 ] final -106.44 input    0.00 | X-H torsion
[ 16611 7554 7553 7552 ] final   85.05 input    0.00 | X-H torsion
[ 16613 7623 7622 7621 ] final  -78.15 input   -0.00 | X-H torsion
[ 16616 9283 9282 9281 ] final   71.01 input    0.00 | X-H torsion
[ 16618 9228 9227 9226 ] final -101.95 input   -0.00 | X-H torsion
[ 16636 3357 3356 3355 ] final -128.72 input   -0.00 | X-H torsion
[ 16638 3415 3414 3413 ] final  -54.27 input   -0.00 | X-H torsion
[ 16646 9102 9101 9100 ] final   63.97 input    0.00 | X-H torsion

> <Gold.Protein.ActiveResidues>
 ARG45   SER53   PHE54   LEU82   LYS83   GLN84   GLU86   HIS87   GLU127  PHE129 
 SER130  HIS131  LEU132  ARG133  ARG134  ILE135  GLY136  ARG137  PHE138  SER139 
 HIS142  ARG165  ASP166  LEU167  LYS168  PRO169  GLU170  ASN171  ASP184  GLY186 
 PHE187  TRP196  TPO197  LEU198  CYS199  GLY200  THR201  PRO202  GLU203  TYR204 
 LEU205  ILE209  ILE210  TYR215  VAL226  LEU227  TYR229  GLU230  MET231  ALA233 
 GLY234  TYR235  PRO236  PRO237  PHE238  PHE239  ALA240  ASP241  GLN242  PRO243 
 ILE244  GLN245  ILE246  TYR247  LYS249  ARG256  PHE257  PRO258  SER259  HIS260 
 PRO313  PHE314  ILE315  LYS317  LYS319  SER325  ASN326  ASP328  ASP329  GLU331 
 GLU332  GLU333  GLU334 

> <Gold.Protein.RotatedAtoms>
   24.9066   23.5615   37.4224 H   0  0  0  0  0  0  0  0  0  0  0  0  # atno 3443 bound_to 3412
   23.7152   21.5060   39.5151 H   0  0  0  0  0  0  0  0  0  0  0  0  # atno 3504 bound_to 3478
   23.6101   20.3589   46.1555 H   0  0  0  0  0  0  0  0  0  0  0  0  # atno 3659 bound_to 3632
   35.7092   -1.5818   41.5999 H   0  0  0  0  0  0  0  0  0  0  0  0  # atno 5626 bound_to 5608
   30.9762   -1.7373   40.7502 H   0  0  0  0  0  0  0  0  0  0  0  0  # atno 5728 bound_to 5706
   30.5539   -2.8189   38.2109 H   0  0  0  0  0  0  0  0  0  0  0  0  # atno 5773 bound_to 5761
   35.2456   -2.0595   36.4606 H   0  0  0  0  0  0  0  0  0  0  0  0  # atno 5777 bound_to 5766
   29.6555   -7.4179   37.2921 H   0  0  0  0  0  0  0  0  0  0  0  0  # atno 5929 bound_to 5907
   31.6473   -7.2576   35.8549 H   0  0  0  0  0  0  0  0  0  0  0  0  # atno 6001 bound_to 5979
   31.4590   -9.6612   36.9451 H   0  0  0  0  0  0  0  0  0  0  0  0  # atno 6064 bound_to 6048
   29.7507  -11.9640   36.1839 H   0  0  0  0  0  0  0  0  0  0  0  0  # atno 6109 bound_to 6101
   26.4113  -12.3703   36.7795 H   0  0  0  0  0  0  0  0  0  0  0  0  # atno 6151 bound_to 6129
    9.5589   25.0266   36.1327 H   0  0  0  0  0  0  0  0  0  0  0  0  # atno 6282 bound_to 6255
   19.8042    6.8956   47.4481 H   0  0  0  0  0  0  0  0  0  0  0  0  # atno 7636 bound_to 7620
   23.0896    2.1642   44.9462 H   0  0  0  0  0  0  0  0  0  0  0  0  # atno 7732 bound_to 7714
   23.3070    6.3037   41.8095 H   0  0  0  0  0  0  0  0  0  0  0  0  # atno 7742 bound_to 7722
   22.6517    6.9763   40.4441 H   0  0  0  0  0  0  0  0  0  0  0  0  # atno 7743 bound_to 7722
   21.7997    5.8399   41.2990 H   0  0  0  0  0  0  0  0  0  0  0  0  # atno 7744 bound_to 7722
   25.4887    1.4485   41.6201 H   0  0  0  0  0  0  0  0  0  0  0  0  # atno 7840 bound_to 7822
   26.0531    2.8563   42.8207 H   0  0  0  0  0  0  0  0  0  0  0  0  # atno 7882 bound_to 7866
   22.6241   12.3108   46.9535 H   0  0  0  0  0  0  0  0  0  0  0  0  # atno 8641 bound_to 8619
   10.9563   14.8821   46.3563 H   0  0  0  0  0  0  0  0  0  0  0  0  # atno 9190 bound_to 9168
   12.8284   19.0607   46.9890 H   0  0  0  0  0  0  0  0  0  0  0  0  # atno 9196 bound_to 9176
   14.8624   16.0244   46.7802 H   0  0  0  0  0  0  0  0  0  0  0  0  # atno 9198 bound_to 9178
   11.9294   14.1237   43.2291 H   0  0  0  0  0  0  0  0  0  0  0  0  # atno 9241 bound_to 9225
   13.7329   12.7200   42.2379 H   0  0  0  0  0  0  0  0  0  0  0  0  # atno 9292 bound_to 9280
   17.6336   10.7502   40.5557 H   0  0  0  0  0  0  0  0  0  0  0  0  # atno 9319 bound_to 9311
   17.6230    7.6104   39.7201 H   0  0  0  0  0  0  0  0  0  0  0  0  # atno 9349 bound_to 9335
   21.0265    5.6758   39.6389 H   0  0  0  0  0  0  0  0  0  0  0  0  # atno 9355 bound_to 9341
   16.5786    2.9648   37.3918 H   0  0  0  0  0  0  0  0  0  0  0  0  # atno 9439 bound_to 9421
   15.0059    1.4241   39.0093 H   0  0  0  0  0  0  0  0  0  0  0  0  # atno 9493 bound_to 9469
   19.9916   -3.2233   41.1559 H   0  0  0  0  0  0  0  0  0  0  0  0  # atno 9501 bound_to 9480
   14.1962    3.4216   40.0640 H   0  0  0  0  0  0  0  0  0  0  0  0  # atno 9544 bound_to 9528
   13.1912   11.0352   45.6698 H   0  0  0  0  0  0  0  0  0  0  0  0  # atno 10029 bound_to 10008
   14.2830  -11.7827   37.4090 H   0  0  0  0  0  0  0  0  0  0  0  0  # atno 10728 bound_to 10707
   18.2532   -7.7667   40.7152 H   0  0  0  0  0  0  0  0  0  0  0  0  # atno 10774 bound_to 10756
   21.9835   -7.5304   40.9059 H   0  0  0  0  0  0  0  0  0  0  0  0  # atno 10816 bound_to 10800
   21.2273  -10.3750   38.0385 H   0  0  0  0  0  0  0  0  0  0  0  0  # atno 10915 bound_to 10907
   21.7323   -8.7038   36.8973 H   0  0  0  0  0  0  0  0  0  0  0  0  # atno 10960 bound_to 10936
   17.0639  -13.9526   34.2127 H   0  0  0  0  0  0  0  0  0  0  0  0  # atno 10968 bound_to 10947
   13.0178   -5.4506   36.9098 H   0  0  0  0  0  0  0  0  0  0  0  0  # atno 11104 bound_to 11082
   13.0002   -3.2127   33.6716 H   0  0  0  0  0  0  0  0  0  0  0  0  # atno 11164 bound_to 11142
   15.2370   -2.8263   29.8710 H   0  0  0  0  0  0  0  0  0  0  0  0  # atno 11206 bound_to 11196
   14.8656   -1.5216   26.9210 H   0  0  0  0  0  0  0  0  0  0  0  0  # atno 11245 bound_to 11229
   14.8571    1.7484   27.3476 H   0  0  0  0  0  0  0  0  0  0  0  0  # atno 11284 bound_to 11266
   11.2986    5.8524   29.6769 H   0  0  0  0  0  0  0  0  0  0  0  0  # atno 11374 bound_to 11358
    9.4586    3.4225   28.8030 H   0  0  0  0  0  0  0  0  0  0  0  0  # atno 11434 bound_to 11416
   10.9202    2.0187   30.9151 H   0  0  0  0  0  0  0  0  0  0  0  0  # atno 11482 bound_to 11466
   13.3929    7.6594   33.9785 H   0  0  0  0  0  0  0  0  0  0  0  0  # atno 11559 bound_to 11538
    8.6629  -11.0616   38.3953 H   0  0  0  0  0  0  0  0  0  0  0  0  # atno 11995 bound_to 11973
   10.6223  -13.2791   38.6804 H   0  0  0  0  0  0  0  0  0  0  0  0  # atno 12067 bound_to 12045
   16.0536  -18.6061   37.1378 H   0  0  0  0  0  0  0  0  0  0  0  0  # atno 12157 bound_to 12142
   26.1889   16.1371   34.6815 H   0  0  0  0  0  0  0  0  0  0  0  0  # atno 15083 bound_to 15054
   26.6237   14.6507   35.2722 H   0  0  0  0  0  0  0  0  0  0  0  0  # atno 15084 bound_to 15054
   27.2324   15.1778   33.8236 H   0  0  0  0  0  0  0  0  0  0  0  0  # atno 15085 bound_to 15054
   31.2921   10.6522   30.9867 H   0  0  0  0  0  0  0  0  0  0  0  0  # atno 15194 bound_to 15161
   32.8004   11.2387   31.3463 H   0  0  0  0  0  0  0  0  0  0  0  0  # atno 15195 bound_to 15161
   31.6895   12.2119   30.5931 H   0  0  0  0  0  0  0  0  0  0  0  0  # atno 15196 bound_to 15161
   26.5510   11.7147   26.5034 H   0  0  0  0  0  0  0  0  0  0  0  0  # atno 15326 bound_to 15310
    7.9659  -12.3944   27.4976 H   0  0  0  0  0  0  0  0  0  0  0  0  # atno 15542 bound_to 15533
    9.0702  -15.2955   27.3170 H   0  0  0  0  0  0  0  0  0  0  0  0  # atno 15588 bound_to 15579
    9.0876  -18.3376   30.2815 H   0  0  0  0  0  0  0  0  0  0  0  0  # atno 15633 bound_to 15624
   11.4664  -14.6923   27.0375 LP  0  0  0  0  0  0  0  0  0  0  0  0  # atno 16458 bound_to 15536
   11.0396  -15.0460   28.6784 LP  0  0  0  0  0  0  0  0  0  0  0  0  # atno 16459 bound_to 15536
   15.7368  -13.0502   34.4810 LP  0  0  0  0  0  0  0  0  0  0  0  0  # atno 16460 bound_to 10947
   16.6700  -13.5278   35.7332 LP  0  0  0  0  0  0  0  0  0  0  0  0  # atno 16461 bound_to 10947
   14.6247  -10.4883   36.4839 LP  0  0  0  0  0  0  0  0  0  0  0  0  # atno 16466 bound_to 10707
   13.2139  -10.5605   37.3032 LP  0  0  0  0  0  0  0  0  0  0  0  0  # atno 16467 bound_to 10707
   20.6817  -12.6600   35.7856 LP  0  0  0  0  0  0  0  0  0  0  0  0  # atno 16468 bound_to 10881
   22.1747  -13.2862   36.4012 LP  0  0  0  0  0  0  0  0  0  0  0  0  # atno 16469 bound_to 10881
   22.3896   -7.7583   34.6655 LP  0  0  0  0  0  0  0  0  0  0  0  0  # atno 16470 bound_to 10910
   23.5638   -9.0255   34.5412 LP  0  0  0  0  0  0  0  0  0  0  0  0  # atno 16471 bound_to 10910
   20.7497   -9.9130   36.1092 LP  0  0  0  0  0  0  0  0  0  0  0  0  # atno 16472 bound_to 10936
   15.7171   -5.9823   35.1099 LP  0  0  0  0  0  0  0  0  0  0  0  0  # atno 16473 bound_to 10997
   16.2032   -7.5811   35.5657 LP  0  0  0  0  0  0  0  0  0  0  0  0  # atno 16474 bound_to 10997
   11.9806  -11.4464   36.9469 LP  0  0  0  0  0  0  0  0  0  0  0  0  # atno 16475 bound_to 11976
   12.1328  -11.6115   38.6643 LP  0  0  0  0  0  0  0  0  0  0  0  0  # atno 16476 bound_to 11976
   12.2435  -16.0671   36.4968 LP  0  0  0  0  0  0  0  0  0  0  0  0  # atno 16477 bound_to 12048
   12.2605  -17.0514   37.9219 LP  0  0  0  0  0  0  0  0  0  0  0  0  # atno 16478 bound_to 12048
   18.5043   -9.1030   37.3503 LP  0  0  0  0  0  0  0  0  0  0  0  0  # atno 16480 bound_to 10939
   18.7961   -7.7941   38.4464 LP  0  0  0  0  0  0  0  0  0  0  0  0  # atno 16481 bound_to 10939
   11.2359   -6.3137   36.7354 LP  0  0  0  0  0  0  0  0  0  0  0  0  # atno 16483 bound_to 11039
   12.2114   -7.2989   35.6973 LP  0  0  0  0  0  0  0  0  0  0  0  0  # atno 16484 bound_to 11039
   10.8417  -14.5278   37.4791 LP  0  0  0  0  0  0  0  0  0  0  0  0  # atno 16485 bound_to 12045
    9.0211  -11.5836   26.3644 LP  0  0  0  0  0  0  0  0  0  0  0  0  # atno 16490 bound_to 15533
    7.9796  -14.3251   28.2881 LP  0  0  0  0  0  0  0  0  0  0  0  0  # atno 16491 bound_to 15579
    8.3270  -18.4266   27.2757 LP  0  0  0  0  0  0  0  0  0  0  0  0  # atno 16492 bound_to 15582
    9.3753  -17.1309   26.8042 LP  0  0  0  0  0  0  0  0  0  0  0  0  # atno 16493 bound_to 15582
   10.0041  -17.4268   29.1011 LP  0  0  0  0  0  0  0  0  0  0  0  0  # atno 16494 bound_to 15624
   22.1952  -11.8333   38.0837 LP  0  0  0  0  0  0  0  0  0  0  0  0  # atno 16495 bound_to 10907
   25.7213  -10.0302   36.0159 LP  0  0  0  0  0  0  0  0  0  0  0  0  # atno 16496 bound_to 6104
   25.1056  -10.7152   37.4828 LP  0  0  0  0  0  0  0  0  0  0  0  0  # atno 16497 bound_to 6104
   27.8389  -12.5702   37.7665 LP  0  0  0  0  0  0  0  0  0  0  0  0  # atno 16498 bound_to 6129
   28.9696   -9.3914   34.1358 LP  0  0  0  0  0  0  0  0  0  0  0  0  # atno 16499 bound_to 5910
   30.1087   -8.7994   32.9729 LP  0  0  0  0  0  0  0  0  0  0  0  0  # atno 16500 bound_to 5910
   29.3928  -10.2619   36.0552 LP  0  0  0  0  0  0  0  0  0  0  0  0  # atno 16501 bound_to 6101
   29.4905   -9.4593   36.9604 LP  0  0  0  0  0  0  0  0  0  0  0  0  # atno 16502 bound_to 5850
   27.7962   -9.1025   37.0076 LP  0  0  0  0  0  0  0  0  0  0  0  0  # atno 16503 bound_to 5850
   28.8973   -5.8525   37.1355 LP  0  0  0  0  0  0  0  0  0  0  0  0  # atno 16504 bound_to 5907
   28.5579  -13.6180   36.3219 LP  0  0  0  0  0  0  0  0  0  0  0  0  # atno 16505 bound_to 6051
   30.2138  -14.1224   36.3797 LP  0  0  0  0  0  0  0  0  0  0  0  0  # atno 16506 bound_to 6051
   32.7925  -11.1790   33.5783 LP  0  0  0  0  0  0  0  0  0  0  0  0  # atno 16507 bound_to 5982
   31.8471  -12.1915   34.6181 LP  0  0  0  0  0  0  0  0  0  0  0  0  # atno 16508 bound_to 5982
   30.4460   -7.9754   34.8028 LP  0  0  0  0  0  0  0  0  0  0  0  0  # atno 16509 bound_to 5979
   32.2305  -10.4473   35.5869 LP  0  0  0  0  0  0  0  0  0  0  0  0  # atno 16510 bound_to 6048
   12.1478   -3.6071   30.1279 LP  0  0  0  0  0  0  0  0  0  0  0  0  # atno 16511 bound_to 11145
   13.1025   -4.8699   30.8306 LP  0  0  0  0  0  0  0  0  0  0  0  0  # atno 16512 bound_to 11145
   14.0312   -1.9395   30.7891 LP  0  0  0  0  0  0  0  0  0  0  0  0  # atno 16513 bound_to 11196
   15.7212   -0.5810   29.5511 LP  0  0  0  0  0  0  0  0  0  0  0  0  # atno 16514 bound_to 11199
   16.1585    0.3377   28.1493 LP  0  0  0  0  0  0  0  0  0  0  0  0  # atno 16515 bound_to 11199
   13.4721   -0.4580   26.9421 LP  0  0  0  0  0  0  0  0  0  0  0  0  # atno 16516 bound_to 11229
   13.7909   -4.7194   33.2942 LP  0  0  0  0  0  0  0  0  0  0  0  0  # atno 16525 bound_to 11142
   14.0040   -1.4616   34.8950 LP  0  0  0  0  0  0  0  0  0  0  0  0  # atno 16530 bound_to 11085
   15.3710   -2.5247   34.8620 LP  0  0  0  0  0  0  0  0  0  0  0  0  # atno 16531 bound_to 11085
   14.4425   -4.4981   36.5536 LP  0  0  0  0  0  0  0  0  0  0  0  0  # atno 16533 bound_to 11082
   16.1594    3.1396   25.4462 LP  0  0  0  0  0  0  0  0  0  0  0  0  # atno 16538 bound_to 11232
   16.8921    2.4282   26.8451 LP  0  0  0  0  0  0  0  0  0  0  0  0  # atno 16539 bound_to 11232
   13.4383    1.6192   26.3214 LP  0  0  0  0  0  0  0  0  0  0  0  0  # atno 16542 bound_to 11266
   15.3097    2.8858   36.1977 LP  0  0  0  0  0  0  0  0  0  0  0  0  # atno 16548 bound_to 9421
   12.2887    1.9775   28.7141 LP  0  0  0  0  0  0  0  0  0  0  0  0  # atno 16549 bound_to 11269
   12.0244    2.9955   30.0903 LP  0  0  0  0  0  0  0  0  0  0  0  0  # atno 16550 bound_to 11269
   10.2316    4.0447   32.2082 LP  0  0  0  0  0  0  0  0  0  0  0  0  # atno 16552 bound_to 11318
   11.8688    3.8135   32.7243 LP  0  0  0  0  0  0  0  0  0  0  0  0  # atno 16553 bound_to 11318
    9.8598    0.6252   30.8794 LP  0  0  0  0  0  0  0  0  0  0  0  0  # atno 16554 bound_to 11466
   11.2745    4.1982   30.2111 LP  0  0  0  0  0  0  0  0  0  0  0  0  # atno 16555 bound_to 11358
   13.0448    8.0285   35.5245 LP  0  0  0  0  0  0  0  0  0  0  0  0  # atno 16556 bound_to 11538
   12.4361    8.9333   34.3090 LP  0  0  0  0  0  0  0  0  0  0  0  0  # atno 16557 bound_to 11538
   17.5750    9.5998   38.6719 LP  0  0  0  0  0  0  0  0  0  0  0  0  # atno 16558 bound_to 9314
   17.2227    8.0992   37.8818 LP  0  0  0  0  0  0  0  0  0  0  0  0  # atno 16559 bound_to 9314
   18.4649    6.3465   40.5839 LP  0  0  0  0  0  0  0  0  0  0  0  0  # atno 16560 bound_to 9335
   15.4585    4.9546   39.3881 LP  0  0  0  0  0  0  0  0  0  0  0  0  # atno 16561 bound_to 9338
   16.8828    3.9981   39.6254 LP  0  0  0  0  0  0  0  0  0  0  0  0  # atno 16562 bound_to 9338
   20.4754    6.7090   38.5085 LP  0  0  0  0  0  0  0  0  0  0  0  0  # atno 16563 bound_to 9341
   21.3046    5.3744   38.0638 LP  0  0  0  0  0  0  0  0  0  0  0  0  # atno 16564 bound_to 9341
   13.4360    3.7270   38.3349 LP  0  0  0  0  0  0  0  0  0  0  0  0  # atno 16565 bound_to 9380
   13.4321    2.1633   37.5899 LP  0  0  0  0  0  0  0  0  0  0  0  0  # atno 16566 bound_to 9380
   16.5312    2.2808   39.0665 LP  0  0  0  0  0  0  0  0  0  0  0  0  # atno 16567 bound_to 9469
   30.1889   -4.7201   37.5175 LP  0  0  0  0  0  0  0  0  0  0  0  0  # atno 16570 bound_to 5709
   28.8695   -3.6418   37.2071 LP  0  0  0  0  0  0  0  0  0  0  0  0  # atno 16571 bound_to 5709
   26.6495    0.2338   41.1446 LP  0  0  0  0  0  0  0  0  0  0  0  0  # atno 16574 bound_to 7822
   28.8106    4.6579   42.2554 LP  0  0  0  0  0  0  0  0  0  0  0  0  # atno 16575 bound_to 7825
   29.6571    3.3034   41.5855 LP  0  0  0  0  0  0  0  0  0  0  0  0  # atno 16576 bound_to 7825
   29.6240   -2.5881   41.4531 LP  0  0  0  0  0  0  0  0  0  0  0  0  # atno 16579 bound_to 5706
   31.8800   -2.1545   39.1375 LP  0  0  0  0  0  0  0  0  0  0  0  0  # atno 16580 bound_to 5761
   33.9320   -1.1416   36.7418 LP  0  0  0  0  0  0  0  0  0  0  0  0  # atno 16581 bound_to 5766
   33.8305   -2.4361   35.7516 LP  0  0  0  0  0  0  0  0  0  0  0  0  # atno 16582 bound_to 5766
   28.6360    0.7826   42.1568 LP  0  0  0  0  0  0  0  0  0  0  0  0  # atno 16583 bound_to 7781
   28.1409   -0.4301   43.2901 LP  0  0  0  0  0  0  0  0  0  0  0  0  # atno 16584 bound_to 7781
   27.7651    2.5937   42.5616 LP  0  0  0  0  0  0  0  0  0  0  0  0  # atno 16585 bound_to 7866
   14.2820   -0.7692   38.5408 LP  0  0  0  0  0  0  0  0  0  0  0  0  # atno 16593 bound_to 9424
   14.9762   -0.4956   40.1039 LP  0  0  0  0  0  0  0  0  0  0  0  0  # atno 16594 bound_to 9424
   20.7794   -2.5835   42.4279 LP  0  0  0  0  0  0  0  0  0  0  0  0  # atno 16595 bound_to 9480
   21.3179   -2.3130   40.9102 LP  0  0  0  0  0  0  0  0  0  0  0  0  # atno 16596 bound_to 9480
   20.2998    3.3770   43.2657 LP  0  0  0  0  0  0  0  0  0  0  0  0  # atno 16597 bound_to 7659
   19.5356    1.9102   43.7801 LP  0  0  0  0  0  0  0  0  0  0  0  0  # atno 16598 bound_to 7659
   24.6900    1.4968   44.8151 LP  0  0  0  0  0  0  0  0  0  0  0  0  # atno 16599 bound_to 7717
   25.5803    1.8083   43.3624 LP  0  0  0  0  0  0  0  0  0  0  0  0  # atno 16600 bound_to 7717
   21.3702    1.8614   44.8255 LP  0  0  0  0  0  0  0  0  0  0  0  0  # atno 16601 bound_to 7714
   18.3267   -6.0806   42.5110 LP  0  0  0  0  0  0  0  0  0  0  0  0  # atno 16602 bound_to 10532
   18.3201   -4.7196   41.4397 LP  0  0  0  0  0  0  0  0  0  0  0  0  # atno 16603 bound_to 10532
   16.2223   10.1034   41.3568 LP  0  0  0  0  0  0  0  0  0  0  0  0  # atno 16604 bound_to 9311
   27.3542   11.4251   25.1178 LP  0  0  0  0  0  0  0  0  0  0  0  0  # atno 16607 bound_to 15310
   27.9223   10.8387   26.5320 LP  0  0  0  0  0  0  0  0  0  0  0  0  # atno 16608 bound_to 15310
   18.3521    8.9415   44.9602 LP  0  0  0  0  0  0  0  0  0  0  0  0  # atno 16611 bound_to 7554
   17.4909    7.4871   44.5819 LP  0  0  0  0  0  0  0  0  0  0  0  0  # atno 16612 bound_to 7554
   21.7841    4.8849   43.6547 LP  0  0  0  0  0  0  0  0  0  0  0  0  # atno 16613 bound_to 7623
   22.8191    5.0136   45.0376 LP  0  0  0  0  0  0  0  0  0  0  0  0  # atno 16614 bound_to 7623
   13.4080   11.0991   41.7053 LP  0  0  0  0  0  0  0  0  0  0  0  0  # atno 16615 bound_to 9280
   14.5411    8.9585   41.9424 LP  0  0  0  0  0  0  0  0  0  0  0  0  # atno 16616 bound_to 9283
   15.7753    9.0377   43.1550 LP  0  0  0  0  0  0  0  0  0  0  0  0  # atno 16617 bound_to 9283
   14.4001   13.6665   39.7724 LP  0  0  0  0  0  0  0  0  0  0  0  0  # atno 16618 bound_to 9228
   14.2545   14.6771   41.1715 LP  0  0  0  0  0  0  0  0  0  0  0  0  # atno 16619 bound_to 9228
   18.4338    6.8999   46.3754 LP  0  0  0  0  0  0  0  0  0  0  0  0  # atno 16620 bound_to 7620
   11.2587   14.9349   41.8360 LP  0  0  0  0  0  0  0  0  0  0  0  0  # atno 16628 bound_to 9225
   14.1059    2.3384   41.4324 LP  0  0  0  0  0  0  0  0  0  0  0  0  # atno 16635 bound_to 9528
   22.8897   20.5789   37.1321 LP  0  0  0  0  0  0  0  0  0  0  0  0  # atno 16636 bound_to 3357
   24.4060   19.7453   37.2100 LP  0  0  0  0  0  0  0  0  0  0  0  0  # atno 16637 bound_to 3357
   21.5526   21.7705   40.4189 LP  0  0  0  0  0  0  0  0  0  0  0  0  # atno 16638 bound_to 3415
   22.3179   20.2495   40.1015 LP  0  0  0  0  0  0  0  0  0  0  0  0  # atno 16639 bound_to 3415
   24.3656   21.9661   36.9535 LP  0  0  0  0  0  0  0  0  0  0  0  0  # atno 16640 bound_to 3412
   25.1711   22.4143   39.8615 LP  0  0  0  0  0  0  0  0  0  0  0  0  # atno 16641 bound_to 3478
    8.2492   15.1999   43.6458 LP  0  0  0  0  0  0  0  0  0  0  0  0  # atno 16646 bound_to 9102
    9.2266   13.7700   43.6367 LP  0  0  0  0  0  0  0  0  0  0  0  0  # atno 16647 bound_to 9102
    9.6382   15.3988   45.3362 LP  0  0  0  0  0  0  0  0  0  0  0  0  # atno 16648 bound_to 9168
   14.8652   16.9216   48.1377 LP  0  0  0  0  0  0  0  0  0  0  0  0  # atno 16649 bound_to 9178
   14.9858   17.6437   46.6780 LP  0  0  0  0  0  0  0  0  0  0  0  0  # atno 16650 bound_to 9178
   10.3376   23.7770   35.4400 LP  0  0  0  0  0  0  0  0  0  0  0  0  # atno 16654 bound_to 6255
   10.8534   24.3725   36.8703 LP  0  0  0  0  0  0  0  0  0  0  0  0  # atno 16655 bound_to 6255
   13.1747   18.5485   48.4947 LP  0  0  0  0  0  0  0  0  0  0  0  0  # atno 16656 bound_to 9176
   11.6700   18.3568   47.8901 LP  0  0  0  0  0  0  0  0  0  0  0  0  # atno 16657 bound_to 9176

> <Gold.Score>
     Fitness  S(hb_ext) S(vdw_ext)  S(hb_int)    S(int)      intcor
     32.51       6.03      19.88       0.00      -0.86      -0.77

> <Gold.Goldscore.Fitness>
32.5068

> <Gold.Goldscore.Internal.Vdw>
-1.0052

> <Gold.Goldscore.Internal.Torsion>
-0.6195

> <Gold.Goldscore.External.Vdw>
19.8822

> <Gold.Goldscore.Internal.HBond>
0.0000

> <Gold.Goldscore.External.HBond>
6.0282

> <Gold.Goldscore.Internal.Correction>
-0.7653

> <Gold.Goldscore.Hbonds>
donor molecule, donor type, donor heavy atom, donor atom, acceptor molecule, acceptor atom, score
      P1  H  5975  6022       L1    11  0.96
      P1  H  5795  5829       L1    11  0.13

> <Gold.Goldscore.Internal.Vdw.Weighted>
-1.0052

> <Gold.Goldscore.Internal.Torsion.Weighted>
-0.6195

> <Gold.Goldscore.External.Vdw.Weighted>
27.3380

> <Gold.Goldscore.Internal.HBond.Weighted>
0.0000

> <Gold.Goldscore.External.HBond.Weighted>
6.0282

> <Gold.Goldscore.Internal.Correction.Weighted>
-0.7653

> <Gold.Rescore>
     Score     S(PLP)   S(hbond)     S(cho)   S(metal)  DE(clash)   DE(tors)     intcor
     37.31     -32.37       2.41       0.00       0.00       0.00       1.14       ----

> <Gold.PLP.Fitness>
37.3093

> <Gold.PLP.PLP>
-32.3704

> <Gold.PLP.part.hbond>
-3.0000

> <Gold.PLP.part.metal>
0.0000

> <Gold.PLP.part.buried>
-2.2951

> <Gold.PLP.part.nonpolar>
-27.2017

> <Gold.PLP.part.repulsive>
0.1019

> <Gold.PLP.ligand.clash>
0.0000

> <Gold.PLP.ligand.torsion>
1.1405

> <Gold.PLP.Chemscore.Hbond>
2.4066

> <Gold.PLP.Chemscore.CHOScore>
0.0000

> <Gold.PLP.Chemscore.Metal>
0.0000

> <Gold.Chemscore.Hbonds>
donor molecule, donor type, donor heavy atom, donor atom, acceptor molecule, acceptor atom, score
      P1  H  5975  6022       L1    11  1.00
      P1  H  5795  5829       L1    11  0.06

> <Gold.PLP.Chemscore.Internal.Correction>
   9.000000E+99

#       Name:                CT1002167954
#       Creating user name   hitesit
#       Creation time:       Sun Apr 16 22:54:10 2023


#       File generated by GOLD software.
#

@<TRIPOS>MOLECULE
CT1002167954|ligand_prepared|mol2|1|dock2
    29    30     1
SMALL
NO_CHARGES


@<TRIPOS>ATOM
      1 C1           9.3957  16.3271  39.0426 C.3            1 RES1               0.0000
      2 C2           8.7599  14.9404  39.2696 C.ar           1 RES1               0.0000
      3 C3          10.8024  16.2548  39.6294 C.2            1 RES1               0.0000
      4 C4           9.3610  16.5712  37.5380 C.2            1 RES1               0.0000
      5 C5           8.6349  17.4837  39.7319 C.3            1 RES1               0.0000
      6 C6           8.2583  14.5867  40.5186 C.ar           1 RES1               0.0000
      7 C7           8.6657  14.0069  38.2409 C.ar           1 RES1               0.0000
      8 N8          11.8484  16.1903  38.7567 N.am           1 RES1               0.0000
      9 O9          10.9888  16.2149  40.8393 O.2            1 RES1               0.0000
     10 N10         10.5562  16.6460  36.8719 N.am           1 RES1               0.0000
     11 O11          8.3090  16.6828  36.9206 O.2            1 RES1               0.0000
     12 C12          9.1051  18.8660  39.3072 C.3            1 RES1               0.0000
     13 C13          7.6807  13.3459  40.7309 C.ar           1 RES1               0.0000
     14 C14          8.0879  12.7664  38.4554 C.ar           1 RES1               0.0000
     15 C15         11.7974  16.4360  37.4081 C.2            1 RES1               0.0000
     16 C16          7.5947  12.4352  39.6995 C.ar           1 RES1               0.0000
     17 O17         12.8226  16.4665  36.7334 O.2            1 RES1               0.0000
     18 H18          7.5661  17.3887  39.5038 H              1 RES1               0.0000
     19 H19          8.7557  17.3880  40.8181 H              1 RES1               0.0000
     20 H20          8.3193  15.2894  41.3430 H              1 RES1               0.0000
     21 H21          9.0480  14.2453  37.2542 H              1 RES1               0.0000
     22 H22         12.7521  15.9358  39.1424 H              1 RES1               0.0000
     23 H23         10.5170  16.8801  35.8850 H              1 RES1               0.0000
     24 H24          8.5388  19.6405  39.8202 H              1 RES1               0.0000
     25 H25         10.1583  19.0043  39.5423 H              1 RES1               0.0000
     26 H26          8.9758  19.0050  38.2358 H              1 RES1               0.0000
     27 H27          7.2952  13.0896  41.7122 H              1 RES1               0.0000
     28 H28          8.0229  12.0526  37.6409 H              1 RES1               0.0000
     29 H29          7.1418  11.4634  39.8659 H              1 RES1               0.0000
@<TRIPOS>BOND
    1    1    2 1     
    2    1    3 1     
    3    1    4 1     
    4    1    5 1     
    5    2    6 ar    
    6    2    7 ar    
    7    3    8 1     
    8    3    9 2     
    9    4   10 1     
   10    4   11 2     
   11    5   12 1     
   12    5   18 1     
   13    5   19 1     
   14    6   13 ar    
   15    6   20 1     
   16    7   14 ar    
   17    7   21 1     
   18    8   15 1     
   19    8   22 1     
   20   10   15 1     
   21   10   23 1     
   22   12   24 1     
   23   12   25 1     
   24   12   26 1     
   25   13   16 ar    
   26   13   27 1     
   27   14   16 ar    
   28   14   28 1     
   29   15   17 2     
   30   16   29 1     
@<TRIPOS>SUBSTRUCTURE
      1 RES1           1
@<TRIPOS>SET
DONOR_HYDROGENS      STATIC     ATOMS    <user>   **** ""
2 22 23
ATOM$RED        STATIC     ATOMS    COLORGROUP SYSTEM
2 22 23
@<TRIPOS>COMMENT
> <Gold.Version>
2022.3.0

> <Gold.Id.Protein>
unknown|3mvj_clean|pdb

> <Gold.Protein.RotatedTorsions>
[ 10968 10947 10946 10944 ] final   91.89 input   60.01 | X-H torsion
[ 10728 10707 10706 10704 ] final  -80.48 input   59.96 | X-H torsion
[ 10960 10936 10937 10938 ] final  -25.60 input   23.31 | X-H torsion
[ 12067 12045 12046 12047 ] final  -10.64 input   63.71 | X-H torsion
[ 15542 15533 15534 15535 ] final   83.46 input   83.29 | X-H torsion
[ 15588 15579 15580 15581 ] final   41.86 input  107.67 | X-H torsion
[ 15633 15624 15625 15626 ] final   -6.42 input   84.82 | X-H torsion
[ 10915 10907 10908 10909 ] final  164.60 input  -87.38 | X-H torsion
[ 6151 6129 6130 6131 ] final  -57.79 input   27.76 | X-H torsion
[ 6109 6101 6102 6103 ] final  -43.01 input  -93.79 | X-H torsion
[ 5929 5907 5908 5909 ] final   51.78 input  119.25 | X-H torsion
[ 6001 5979 5980 5981 ] final -153.10 input  112.51 | X-H torsion
[ 6064 6048 6049 6050 ] final  123.84 input  108.26 | X-H torsion
[ 11206 11196 11197 11198 ] final -149.54 input   -0.63 | X-H torsion
[ 11245 11229 11230 11231 ] final  -89.77 input  120.69 | X-H torsion
[ 11164 11142 11143 11144 ] final -119.28 input   33.88 | X-H torsion
[ 11104 11082 11083 11084 ] final  139.31 input   45.00 | X-H torsion
[ 11284 11266 11267 11268 ] final  -79.76 input   49.58 | X-H torsion
[ 9439 9421 9422 9423 ] final  129.21 input  116.39 | X-H torsion
[ 11482 11466 11467 11468 ] final  -37.06 input  126.08 | X-H torsion
[ 11374 11358 11359 11360 ] final   71.83 input   98.08 | X-H torsion
[ 11559 11538 11537 11535 ] final  -56.66 input   60.01 | X-H torsion
[ 9349 9335 9336 9337 ] final  -70.56 input   84.14 | X-H torsion
[ 9355 9341 9339 9336 ] final  179.61 input   60.02 | X-H torsion
[ 9493 9469 9470 9471 ] final  137.12 input   75.21 | X-H torsion
[ 7840 7822 7823 7824 ] final -172.55 input  121.36 | X-H torsion
[ 7742 7722 7721 7720 ] final  -53.85 input   60.01 | X-H torsion
[ 5728 5706 5707 5708 ] final   61.56 input  119.20 | X-H torsion
[ 5773 5761 5762 5763 ] final -177.92 input  120.20 | X-H torsion
[ 5777 5766 5765 5762 ] final -152.34 input   59.99 | X-H torsion
[ 7882 7866 7867 7868 ] final   30.56 input   81.17 | X-H torsion
[ 9501 9480 9479 9477 ] final  -81.65 input   60.03 | X-H torsion
[ 7732 7714 7715 7716 ] final -113.25 input  -10.67 | X-H torsion
[ 15083 15054 15053 15052 ] final -149.60 input   60.01 | X-H torsion
[ 9319 9311 9312 9313 ] final -146.54 input  -66.31 | X-H torsion
[ 15194 15161 15160 15159 ] final   93.64 input   59.99 | X-H torsion
[ 15326 15310 15309 15306 ] final -166.36 input   59.99 | X-H torsion
[ 9292 9280 9281 9282 ] final -113.83 input   22.77 | X-H torsion
[ 7636 7620 7621 7622 ] final    4.47 input   34.37 | X-H torsion
[ 9241 9225 9226 9227 ] final   79.22 input   96.07 | X-H torsion
[ 9544 9528 9529 9530 ] final -171.78 input   99.68 | X-H torsion
[ 3443 3412 3413 3414 ] final  -13.82 input -120.58 | X-H torsion
[ 3504 3478 3479 3480 ] final  -47.55 input   70.69 | X-H torsion
[ 9190 9168 9169 9170 ] final    1.57 input  115.65 | X-H torsion
[ 9198 9178 9175 9174 ] final   90.78 input   59.98 | X-H torsion
[ 6282 6255 6254 6251 ] final  -83.49 input   60.00 | X-H torsion
[ 9196 9176 9175 9174 ] final  -83.63 input   60.01 | X-H torsion
[ 12157 12142 12143 12144 ] final  -95.49 input  108.55 | X-H torsion
[ 11995 11973 11974 11975 ] final -169.38 input   68.31 | X-H torsion
[ 11434 11416 11417 11418 ] final -156.56 input  102.35 | X-H torsion
[ 5626 5608 5609 5610 ] final   40.22 input  119.09 | X-H torsion
[ 10774 10756 10757 10758 ] final -129.73 input  129.22 | X-H torsion
[ 10816 10800 10801 10802 ] final  -70.66 input  128.85 | X-H torsion
[ 8641 8619 8620 8621 ] final  -85.80 input   87.35 | X-H torsion
[ 3659 3632 3633 3634 ] final  -28.05 input  116.97 | X-H torsion
[ 10029 10008 10007 10005 ] final  -37.17 input   60.01 | X-H torsion
[ 16458 15536 15535 15534 ] final -170.30 input    0.00 | X-H torsion
[ 16468 10881 10880 10879 ] final  -22.66 input    0.00 | X-H torsion
[ 16470 10910 10909 10908 ] final -166.18 input    0.00 | X-H torsion
[ 16473 10997 10996 10995 ] final    4.33 input    0.00 | X-H torsion
[ 16475 11976 11975 11974 ] final  159.99 input    0.00 | X-H torsion
[ 16477 12048 12047 12046 ] final  116.56 input    0.00 | X-H torsion
[ 16480 10939 10938 10937 ] final  179.80 input   -0.00 | X-H torsion
[ 16483 11039 11038 11037 ] final  158.76 input    0.00 | X-H torsion
[ 16492 15582 15581 15580 ] final  -12.79 input    0.00 | X-H torsion
[ 16496 6104 6103 6102 ] final  171.44 input    0.00 | X-H torsion
[ 16499 5910 5909 5908 ] final  141.88 input   -0.00 | X-H torsion
[ 16502 5850 5849 5848 ] final  162.87 input    0.00 | X-H torsion
[ 16505 6051 6050 6049 ] final   15.90 input    0.00 | X-H torsion
[ 16507 5982 5981 5980 ] final   -1.56 input    0.00 | X-H torsion
[ 16511 11145 11144 11143 ] final -160.62 input    0.00 | X-H torsion
[ 16514 11199 11198 11197 ] final  -16.96 input    0.00 | X-H torsion
[ 16530 11085 11084 11083 ] final -138.13 input   -0.00 | X-H torsion
[ 16538 11232 11231 11230 ] final  130.54 input    0.00 | X-H torsion
[ 16549 11269 11268 11267 ] final  -76.18 input   -0.00 | X-H torsion
[ 16552 11318 11317 11316 ] final  -49.45 input    0.00 | X-H torsion
[ 16558 9314 9313 9312 ] final -174.59 input    0.00 | X-H torsion
[ 16561 9338 9337 9336 ] final   88.40 input    0.00 | X-H torsion
[ 16565 9380 9379 9378 ] final   40.55 input    0.00 | X-H torsion
[ 16570 5709 5708 5707 ] final  157.27 input    0.00 | X-H torsion
[ 16575 7825 7824 7823 ] final    1.69 input    0.00 | X-H torsion
[ 16583 7781 7780 7779 ] final  106.62 input   -0.00 | X-H torsion
[ 16593 9424 9423 9422 ] final  -19.96 input   -0.00 | X-H torsion
[ 16597 7659 7658 7657 ] final  161.46 input   -0.00 | X-H torsion
[ 16599 7717 7716 7715 ] final -129.63 input    0.00 | X-H torsion
[ 16602 10532 10531 10530 ] final  111.78 input    0.00 | X-H torsion
[ 16611 7554 7553 7552 ] final  -59.42 input    0.00 | X-H torsion
[ 16613 7623 7622 7621 ] final  -35.50 input   -0.00 | X-H torsion
[ 16616 9283 9282 9281 ] final   41.84 input    0.00 | X-H torsion
[ 16618 9228 9227 9226 ] final   27.83 input   -0.00 | X-H torsion
[ 16636 3357 3356 3355 ] final  -19.98 input   -0.00 | X-H torsion
[ 16638 3415 3414 3413 ] final -151.12 input   -0.00 | X-H torsion
[ 16646 9102 9101 9100 ] final -118.29 input    0.00 | X-H torsion

> <Gold.Protein.ActiveResidues>
 ARG45   SER53   PHE54   LEU82   LYS83   GLN84   GLU86   HIS87   GLU127  PHE129 
 SER130  HIS131  LEU132  ARG133  ARG134  ILE135  GLY136  ARG137  PHE138  SER139 
 HIS142  ARG165  ASP166  LEU167  LYS168  PRO169  GLU170  ASN171  ASP184  GLY186 
 PHE187  TRP196  TPO197  LEU198  CYS199  GLY200  THR201  PRO202  GLU203  TYR204 
 LEU205  ILE209  ILE210  TYR215  VAL226  LEU227  TYR229  GLU230  MET231  ALA233 
 GLY234  TYR235  PRO236  PRO237  PHE238  PHE239  ALA240  ASP241  GLN242  PRO243 
 ILE244  GLN245  ILE246  TYR247  LYS249  ARG256  PHE257  PRO258  SER259  HIS260 
 PRO313  PHE314  ILE315  LYS317  LYS319  SER325  ASN326  ASP328  ASP329  GLU331 
 GLU332  GLU333  GLU334 

> <Gold.Protein.RotatedAtoms>
   25.0836   22.2449   37.7545 H   0  0  0  0  0  0  0  0  0  0  0  0  # atno 3443 bound_to 3412
   23.9493   22.4354   40.2543 H   0  0  0  0  0  0  0  0  0  0  0  0  # atno 3504 bound_to 3478
   23.6096   20.3588   46.1560 H   0  0  0  0  0  0  0  0  0  0  0  0  # atno 3659 bound_to 3632
   35.6434   -1.7682   41.7667 H   0  0  0  0  0  0  0  0  0  0  0  0  # atno 5626 bound_to 5608
   30.9764   -1.7376   40.7501 H   0  0  0  0  0  0  0  0  0  0  0  0  # atno 5728 bound_to 5706
   31.4199   -1.7059   38.2965 H   0  0  0  0  0  0  0  0  0  0  0  0  # atno 5773 bound_to 5761
   35.2406   -2.1028   36.4270 H   0  0  0  0  0  0  0  0  0  0  0  0  # atno 5777 bound_to 5766
   30.1445   -6.5169   37.1412 H   0  0  0  0  0  0  0  0  0  0  0  0  # atno 5929 bound_to 5907
   31.2431   -7.1136   34.6194 H   0  0  0  0  0  0  0  0  0  0  0  0  # atno 6001 bound_to 5979
   31.9452   -9.7607   37.0856 H   0  0  0  0  0  0  0  0  0  0  0  0  # atno 6064 bound_to 6048
   29.2941  -10.4630   36.6445 H   0  0  0  0  0  0  0  0  0  0  0  0  # atno 6109 bound_to 6101
   27.7633  -12.0321   37.7135 H   0  0  0  0  0  0  0  0  0  0  0  0  # atno 6151 bound_to 6129
   10.8086   23.6840   35.9056 H   0  0  0  0  0  0  0  0  0  0  0  0  # atno 6282 bound_to 6255
   19.3418    6.1296   47.2539 H   0  0  0  0  0  0  0  0  0  0  0  0  # atno 7636 bound_to 7620
   21.7094    1.3358   45.1626 H   0  0  0  0  0  0  0  0  0  0  0  0  # atno 7732 bound_to 7714
   21.7282    6.1724   40.8119 H   0  0  0  0  0  0  0  0  0  0  0  0  # atno 7742 bound_to 7722
   22.8775    5.9287   41.9807 H   0  0  0  0  0  0  0  0  0  0  0  0  # atno 7743 bound_to 7722
   23.1532    7.0178   40.7617 H   0  0  0  0  0  0  0  0  0  0  0  0  # atno 7744 bound_to 7722
   26.0677    0.5079   40.5616 H   0  0  0  0  0  0  0  0  0  0  0  0  # atno 7840 bound_to 7822
   26.8417    1.9909   43.1912 H   0  0  0  0  0  0  0  0  0  0  0  0  # atno 7882 bound_to 7866
   22.6406   14.0488   46.9402 H   0  0  0  0  0  0  0  0  0  0  0  0  # atno 8641 bound_to 8619
   10.2072   14.2866   45.6615 H   0  0  0  0  0  0  0  0  0  0  0  0  # atno 9190 bound_to 9168
   13.3822   19.0071   47.5149 H   0  0  0  0  0  0  0  0  0  0  0  0  # atno 9196 bound_to 9176
   14.9702   17.7949   47.1943 H   0  0  0  0  0  0  0  0  0  0  0  0  # atno 9198 bound_to 9178
   11.7081   15.0477   41.8209 H   0  0  0  0  0  0  0  0  0  0  0  0  # atno 9241 bound_to 9225
   13.3505   12.0932   41.1589 H   0  0  0  0  0  0  0  0  0  0  0  0  # atno 9292 bound_to 9280
   17.4727   10.7284   41.5783 H   0  0  0  0  0  0  0  0  0  0  0  0  # atno 9319 bound_to 9311
   17.5147    7.5428   39.7462 H   0  0  0  0  0  0  0  0  0  0  0  0  # atno 9349 bound_to 9335
   21.4117    5.1170   38.8223 H   0  0  0  0  0  0  0  0  0  0  0  0  # atno 9355 bound_to 9341
   16.6632    2.6973   36.3487 H   0  0  0  0  0  0  0  0  0  0  0  0  # atno 9439 bound_to 9421
   16.6640    1.9643   39.0623 H   0  0  0  0  0  0  0  0  0  0  0  0  # atno 9493 bound_to 9469
   20.0018   -3.2181   41.1282 H   0  0  0  0  0  0  0  0  0  0  0  0  # atno 9501 bound_to 9480
   14.7098    3.5580   40.7328 H   0  0  0  0  0  0  0  0  0  0  0  0  # atno 9544 bound_to 9528
   12.7421   11.5720   45.2800 H   0  0  0  0  0  0  0  0  0  0  0  0  # atno 10029 bound_to 10008
   13.7830  -10.1085   36.7363 H   0  0  0  0  0  0  0  0  0  0  0  0  # atno 10728 bound_to 10707
   18.2843   -7.8926   40.7275 H   0  0  0  0  0  0  0  0  0  0  0  0  # atno 10774 bound_to 10756
   21.8501   -7.7732   40.8514 H   0  0  0  0  0  0  0  0  0  0  0  0  # atno 10816 bound_to 10800
   22.2775  -11.8071   38.1361 H   0  0  0  0  0  0  0  0  0  0  0  0  # atno 10915 bound_to 10907
   21.0175   -8.9696   37.2806 H   0  0  0  0  0  0  0  0  0  0  0  0  # atno 10960 bound_to 10936
   16.3036  -13.4862   33.8909 H   0  0  0  0  0  0  0  0  0  0  0  0  # atno 10968 bound_to 10947
   13.1727   -4.6861   37.3521 H   0  0  0  0  0  0  0  0  0  0  0  0  # atno 11104 bound_to 11082
   13.3275   -3.2324   33.9489 H   0  0  0  0  0  0  0  0  0  0  0  0  # atno 11164 bound_to 11142
   14.2304   -3.1813   30.2731 H   0  0  0  0  0  0  0  0  0  0  0  0  # atno 11206 bound_to 11196
   14.8943   -1.1260   27.4132 H   0  0  0  0  0  0  0  0  0  0  0  0  # atno 11245 bound_to 11229
   14.9192    1.7920   27.2397 H   0  0  0  0  0  0  0  0  0  0  0  0  # atno 11284 bound_to 11266
   11.0942    4.8618   29.1151 H   0  0  0  0  0  0  0  0  0  0  0  0  # atno 11374 bound_to 11358
    8.9842    3.5781   29.0843 H   0  0  0  0  0  0  0  0  0  0  0  0  # atno 11434 bound_to 11416
    9.5426    1.1120   31.1283 H   0  0  0  0  0  0  0  0  0  0  0  0  # atno 11482 bound_to 11466
   12.9117    8.2029   35.5372 H   0  0  0  0  0  0  0  0  0  0  0  0  # atno 11559 bound_to 11538
    8.2501  -10.9135   37.3852 H   0  0  0  0  0  0  0  0  0  0  0  0  # atno 11995 bound_to 11973
   10.9305  -14.3808   37.3542 H   0  0  0  0  0  0  0  0  0  0  0  0  # atno 12067 bound_to 12045
   14.6266  -18.0434   37.6755 H   0  0  0  0  0  0  0  0  0  0  0  0  # atno 12157 bound_to 12142
   26.4470   14.8474   35.3893 H   0  0  0  0  0  0  0  0  0  0  0  0  # atno 15083 bound_to 15054
   27.2828   14.9276   33.9601 H   0  0  0  0  0  0  0  0  0  0  0  0  # atno 15084 bound_to 15054
   26.3159   16.1900   34.4273 H   0  0  0  0  0  0  0  0  0  0  0  0  # atno 15085 bound_to 15054
   31.3433   10.6110   31.0201 H   0  0  0  0  0  0  0  0  0  0  0  0  # atno 15194 bound_to 15161
   32.8155   11.3084   31.3277 H   0  0  0  0  0  0  0  0  0  0  0  0  # atno 15195 bound_to 15161
   31.6232   12.1833   30.5783 H   0  0  0  0  0  0  0  0  0  0  0  0  # atno 15196 bound_to 15161
   27.8267   10.8772   26.6597 H   0  0  0  0  0  0  0  0  0  0  0  0  # atno 15326 bound_to 15310
    9.3319  -11.6882   26.9725 H   0  0  0  0  0  0  0  0  0  0  0  0  # atno 15542 bound_to 15533
    8.1005  -15.4448   27.3486 H   0  0  0  0  0  0  0  0  0  0  0  0  # atno 15588 bound_to 15579
    8.7743  -18.2926   29.7786 H   0  0  0  0  0  0  0  0  0  0  0  0  # atno 15633 bound_to 15624
   11.0275  -15.4813   28.4276 LP  0  0  0  0  0  0  0  0  0  0  0  0  # atno 16458 bound_to 15536
   11.4785  -14.2570   27.2883 LP  0  0  0  0  0  0  0  0  0  0  0  0  # atno 16459 bound_to 15536
   15.9239  -13.0701   35.4174 LP  0  0  0  0  0  0  0  0  0  0  0  0  # atno 16460 bound_to 10947
   17.2487  -13.9776   35.1209 LP  0  0  0  0  0  0  0  0  0  0  0  0  # atno 16461 bound_to 10947
   13.4704  -11.4194   37.6483 LP  0  0  0  0  0  0  0  0  0  0  0  0  # atno 16466 bound_to 10707
   14.8717  -11.3153   36.8163 LP  0  0  0  0  0  0  0  0  0  0  0  0  # atno 16467 bound_to 10707
   21.0730  -13.6372   36.5210 LP  0  0  0  0  0  0  0  0  0  0  0  0  # atno 16468 bound_to 10881
   21.7835  -12.3090   35.6658 LP  0  0  0  0  0  0  0  0  0  0  0  0  # atno 16469 bound_to 10881
   22.3537   -7.7907   34.6230 LP  0  0  0  0  0  0  0  0  0  0  0  0  # atno 16470 bound_to 10910
   23.5997   -8.9932   34.5837 LP  0  0  0  0  0  0  0  0  0  0  0  0  # atno 16471 bound_to 10910
   21.4510   -9.6522   35.7331 LP  0  0  0  0  0  0  0  0  0  0  0  0  # atno 16472 bound_to 10936
   16.7891   -6.6791   35.1089 LP  0  0  0  0  0  0  0  0  0  0  0  0  # atno 16473 bound_to 10997
   15.1313   -6.8842   35.5667 LP  0  0  0  0  0  0  0  0  0  0  0  0  # atno 16474 bound_to 10997
   12.5001  -11.9332   38.4301 LP  0  0  0  0  0  0  0  0  0  0  0  0  # atno 16475 bound_to 11976
   11.6133  -11.1247   37.1811 LP  0  0  0  0  0  0  0  0  0  0  0  0  # atno 16476 bound_to 11976
   12.5412  -16.2659   36.4476 LP  0  0  0  0  0  0  0  0  0  0  0  0  # atno 16477 bound_to 12048
   11.9628  -16.8526   37.9712 LP  0  0  0  0  0  0  0  0  0  0  0  0  # atno 16478 bound_to 12048
   18.0978   -7.8280   38.1430 LP  0  0  0  0  0  0  0  0  0  0  0  0  # atno 16480 bound_to 10939
   19.2026   -9.0690   37.6537 LP  0  0  0  0  0  0  0  0  0  0  0  0  # atno 16481 bound_to 10939
   11.3727   -6.0532   35.9719 LP  0  0  0  0  0  0  0  0  0  0  0  0  # atno 16483 bound_to 11039
   12.0746   -7.5593   36.4608 LP  0  0  0  0  0  0  0  0  0  0  0  0  # atno 16484 bound_to 11039
   10.5398  -13.4483   38.7785 LP  0  0  0  0  0  0  0  0  0  0  0  0  # atno 16485 bound_to 12045
    7.6875  -12.2731   26.8771 LP  0  0  0  0  0  0  0  0  0  0  0  0  # atno 16490 bound_to 15533
    8.9086  -14.1820   28.2578 LP  0  0  0  0  0  0  0  0  0  0  0  0  # atno 16491 bound_to 15579
    8.3303  -17.0884   26.9947 LP  0  0  0  0  0  0  0  0  0  0  0  0  # atno 16492 bound_to 15582
    9.3721  -18.4692   27.0852 LP  0  0  0  0  0  0  0  0  0  0  0  0  # atno 16493 bound_to 15582
   10.3074  -17.4703   29.5880 LP  0  0  0  0  0  0  0  0  0  0  0  0  # atno 16494 bound_to 15624
   21.1809  -10.4501   37.9894 LP  0  0  0  0  0  0  0  0  0  0  0  0  # atno 16495 bound_to 10907
   25.0485  -10.7796   37.4212 LP  0  0  0  0  0  0  0  0  0  0  0  0  # atno 16496 bound_to 6104
   25.7783   -9.9658   36.0776 LP  0  0  0  0  0  0  0  0  0  0  0  0  # atno 16497 bound_to 6104
   26.5160  -12.9012   36.8527 LP  0  0  0  0  0  0  0  0  0  0  0  0  # atno 16498 bound_to 6129
   30.2935   -9.0516   33.1312 LP  0  0  0  0  0  0  0  0  0  0  0  0  # atno 16499 bound_to 5910
   28.7848   -9.1393   33.9775 LP  0  0  0  0  0  0  0  0  0  0  0  0  # atno 16500 bound_to 5910
   29.8445  -11.7465   35.5996 LP  0  0  0  0  0  0  0  0  0  0  0  0  # atno 16501 bound_to 6101
   28.4345   -8.9572   36.2084 LP  0  0  0  0  0  0  0  0  0  0  0  0  # atno 16502 bound_to 5850
   28.8522   -9.6047   37.7596 LP  0  0  0  0  0  0  0  0  0  0  0  0  # atno 16503 bound_to 5850
   28.4178   -6.7358   37.2835 LP  0  0  0  0  0  0  0  0  0  0  0  0  # atno 16504 bound_to 5907
   30.0214  -14.0806   36.9002 LP  0  0  0  0  0  0  0  0  0  0  0  0  # atno 16505 bound_to 6051
   28.7503  -13.6599   35.8014 LP  0  0  0  0  0  0  0  0  0  0  0  0  # atno 16506 bound_to 6051
   32.5709  -11.1374   33.4763 LP  0  0  0  0  0  0  0  0  0  0  0  0  # atno 16507 bound_to 5982
   32.0687  -12.2331   34.7201 LP  0  0  0  0  0  0  0  0  0  0  0  0  # atno 16508 bound_to 5982
   30.8367   -8.1145   35.9971 LP  0  0  0  0  0  0  0  0  0  0  0  0  # atno 16509 bound_to 5979
   31.7575  -10.3505   35.4501 LP  0  0  0  0  0  0  0  0  0  0  0  0  # atno 16510 bound_to 6048
   12.7553   -4.1379   29.6290 LP  0  0  0  0  0  0  0  0  0  0  0  0  # atno 16511 bound_to 11145
   12.4951   -4.3392   31.3295 LP  0  0  0  0  0  0  0  0  0  0  0  0  # atno 16512 bound_to 11145
   14.9870   -1.6024   30.4073 LP  0  0  0  0  0  0  0  0  0  0  0  0  # atno 16513 bound_to 11196
   15.5549   -0.3526   29.5908 LP  0  0  0  0  0  0  0  0  0  0  0  0  # atno 16514 bound_to 11199
   16.3248    0.1093   28.1096 LP  0  0  0  0  0  0  0  0  0  0  0  0  # atno 16515 bound_to 11199
   13.4446   -0.8372   26.4703 LP  0  0  0  0  0  0  0  0  0  0  0  0  # atno 16516 bound_to 11229
   13.4658   -4.6999   33.0189 LP  0  0  0  0  0  0  0  0  0  0  0  0  # atno 16525 bound_to 11142
   14.5015   -1.5714   34.1453 LP  0  0  0  0  0  0  0  0  0  0  0  0  # atno 16530 bound_to 11085
   14.8736   -2.4148   35.6117 LP  0  0  0  0  0  0  0  0  0  0  0  0  # atno 16531 bound_to 11085
   14.2926   -5.2384   36.1254 LP  0  0  0  0  0  0  0  0  0  0  0  0  # atno 16533 bound_to 11082
   16.0164    3.4074   25.8264 LP  0  0  0  0  0  0  0  0  0  0  0  0  # atno 16538 bound_to 11232
   17.0351    2.1605   26.4648 LP  0  0  0  0  0  0  0  0  0  0  0  0  # atno 16539 bound_to 11232
   13.3794    1.5777   26.4238 LP  0  0  0  0  0  0  0  0  0  0  0  0  # atno 16542 bound_to 11266
   15.2262    3.1499   37.2275 LP  0  0  0  0  0  0  0  0  0  0  0  0  # atno 16548 bound_to 9421
   11.4930    2.8293   28.9638 LP  0  0  0  0  0  0  0  0  0  0  0  0  # atno 16549 bound_to 11269
   12.8201    2.1437   29.8406 LP  0  0  0  0  0  0  0  0  0  0  0  0  # atno 16550 bound_to 11269
   11.6465    3.3096   32.3631 LP  0  0  0  0  0  0  0  0  0  0  0  0  # atno 16552 bound_to 11318
   10.4538    4.5485   32.5695 LP  0  0  0  0  0  0  0  0  0  0  0  0  # atno 16553 bound_to 11318
   11.1889    1.4999   30.6737 LP  0  0  0  0  0  0  0  0  0  0  0  0  # atno 16554 bound_to 11466
   11.4803    5.1958   30.7769 LP  0  0  0  0  0  0  0  0  0  0  0  0  # atno 16555 bound_to 11358
   12.4978    8.8636   34.1091 LP  0  0  0  0  0  0  0  0  0  0  0  0  # atno 16556 bound_to 11538
   13.4678    7.5507   34.1542 LP  0  0  0  0  0  0  0  0  0  0  0  0  # atno 16557 bound_to 11538
   17.4476    8.1108   37.8274 LP  0  0  0  0  0  0  0  0  0  0  0  0  # atno 16558 bound_to 9314
   17.3501    9.5882   38.7263 LP  0  0  0  0  0  0  0  0  0  0  0  0  # atno 16559 bound_to 9314
   18.5707    6.4126   40.5583 LP  0  0  0  0  0  0  0  0  0  0  0  0  # atno 16560 bound_to 9335
   15.7700    5.2070   39.7429 LP  0  0  0  0  0  0  0  0  0  0  0  0  # atno 16561 bound_to 9338
   16.5713    3.7458   39.2706 LP  0  0  0  0  0  0  0  0  0  0  0  0  # atno 16562 bound_to 9338
   20.6227    6.3637   39.5094 LP  0  0  0  0  0  0  0  0  0  0  0  0  # atno 16563 bound_to 9341
   20.7694    6.2824   37.8851 LP  0  0  0  0  0  0  0  0  0  0  0  0  # atno 16564 bound_to 9341
   12.9810    3.4532   37.4270 LP  0  0  0  0  0  0  0  0  0  0  0  0  # atno 16565 bound_to 9380
   13.8870    2.4371   38.4978 LP  0  0  0  0  0  0  0  0  0  0  0  0  # atno 16566 bound_to 9380
   14.9266    1.7580   39.0152 LP  0  0  0  0  0  0  0  0  0  0  0  0  # atno 16567 bound_to 9469
   30.1862   -4.1063   36.8030 LP  0  0  0  0  0  0  0  0  0  0  0  0  # atno 16570 bound_to 5709
   28.8722   -4.2556   37.9216 LP  0  0  0  0  0  0  0  0  0  0  0  0  # atno 16571 bound_to 5709
   26.0817    1.1563   42.1828 LP  0  0  0  0  0  0  0  0  0  0  0  0  # atno 16574 bound_to 7822
   29.3233    3.7584   41.0883 LP  0  0  0  0  0  0  0  0  0  0  0  0  # atno 16575 bound_to 7825
   29.1444    4.2029   42.7527 LP  0  0  0  0  0  0  0  0  0  0  0  0  # atno 16576 bound_to 7825
   29.6238   -2.5878   41.4532 LP  0  0  0  0  0  0  0  0  0  0  0  0  # atno 16579 bound_to 5706
   31.0390   -3.2354   39.0543 LP  0  0  0  0  0  0  0  0  0  0  0  0  # atno 16580 bound_to 5761
   33.9810   -1.1301   36.7651 LP  0  0  0  0  0  0  0  0  0  0  0  0  # atno 16581 bound_to 5766
   33.7866   -2.4040   35.7621 LP  0  0  0  0  0  0  0  0  0  0  0  0  # atno 16582 bound_to 5766
   28.6661   -0.1191   41.9581 LP  0  0  0  0  0  0  0  0  0  0  0  0  # atno 16583 bound_to 7781
   28.1108    0.4716   43.4887 LP  0  0  0  0  0  0  0  0  0  0  0  0  # atno 16584 bound_to 7781
   27.0045    3.4284   42.2043 LP  0  0  0  0  0  0  0  0  0  0  0  0  # atno 16585 bound_to 7866
   14.3036   -0.7829   38.5341 LP  0  0  0  0  0  0  0  0  0  0  0  0  # atno 16593 bound_to 9424
   14.9546   -0.4819   40.1107 LP  0  0  0  0  0  0  0  0  0  0  0  0  # atno 16594 bound_to 9424
   20.7548   -2.6005   42.4320 LP  0  0  0  0  0  0  0  0  0  0  0  0  # atno 16595 bound_to 9480
   21.3322   -2.3013   40.9340 LP  0  0  0  0  0  0  0  0  0  0  0  0  # atno 16596 bound_to 9480
   20.4833    2.4653   42.8918 LP  0  0  0  0  0  0  0  0  0  0  0  0  # atno 16597 bound_to 7659
   19.3521    2.8219   44.1540 LP  0  0  0  0  0  0  0  0  0  0  0  0  # atno 16598 bound_to 7659
   25.6352    1.7211   43.3850 LP  0  0  0  0  0  0  0  0  0  0  0  0  # atno 16599 bound_to 7717
   24.6351    1.5841   44.7925 LP  0  0  0  0  0  0  0  0  0  0  0  0  # atno 16600 bound_to 7717
   22.7085    2.6646   44.6157 LP  0  0  0  0  0  0  0  0  0  0  0  0  # atno 16601 bound_to 7714
   18.8038   -4.7206   41.7356 LP  0  0  0  0  0  0  0  0  0  0  0  0  # atno 16602 bound_to 10532
   17.8430   -6.0796   42.2150 LP  0  0  0  0  0  0  0  0  0  0  0  0  # atno 16603 bound_to 10532
   16.3797   10.1247   40.3565 LP  0  0  0  0  0  0  0  0  0  0  0  0  # atno 16604 bound_to 9311
   26.5011   11.7719   26.3578 LP  0  0  0  0  0  0  0  0  0  0  0  0  # atno 16607 bound_to 15310
   27.4909   11.3353   25.1346 LP  0  0  0  0  0  0  0  0  0  0  0  0  # atno 16608 bound_to 15310
   17.1513    7.8205   44.8119 LP  0  0  0  0  0  0  0  0  0  0  0  0  # atno 16611 bound_to 7554
   18.6917    8.6081   44.7302 LP  0  0  0  0  0  0  0  0  0  0  0  0  # atno 16612 bound_to 7554
   21.9712    5.4794   43.7463 LP  0  0  0  0  0  0  0  0  0  0  0  0  # atno 16613 bound_to 7623
   22.6320    4.4192   44.9461 LP  0  0  0  0  0  0  0  0  0  0  0  0  # atno 16614 bound_to 7623
   13.7955   11.7344   42.7990 LP  0  0  0  0  0  0  0  0  0  0  0  0  # atno 16615 bound_to 9280
   14.4040    9.2670   42.2188 LP  0  0  0  0  0  0  0  0  0  0  0  0  # atno 16616 bound_to 9283
   15.9124    8.7292   42.8787 LP  0  0  0  0  0  0  0  0  0  0  0  0  # atno 16617 bound_to 9283
   13.7074   14.7379   40.6845 LP  0  0  0  0  0  0  0  0  0  0  0  0  # atno 16618 bound_to 9228
   14.9473   13.6057   40.2594 LP  0  0  0  0  0  0  0  0  0  0  0  0  # atno 16619 bound_to 9228
   18.8966    7.6665   46.5697 LP  0  0  0  0  0  0  0  0  0  0  0  0  # atno 16620 bound_to 7620
   11.4760   14.0277   43.2188 LP  0  0  0  0  0  0  0  0  0  0  0  0  # atno 16628 bound_to 9225
   13.6044    2.2052   40.7795 LP  0  0  0  0  0  0  0  0  0  0  0  0  # atno 16635 bound_to 9528
   23.8471   19.8726   36.3796 LP  0  0  0  0  0  0  0  0  0  0  0  0  # atno 16636 bound_to 3357
   23.4486   20.4516   37.9626 LP  0  0  0  0  0  0  0  0  0  0  0  0  # atno 16637 bound_to 3357
   22.3373   20.9355   41.0236 LP  0  0  0  0  0  0  0  0  0  0  0  0  # atno 16638 bound_to 3415
   21.5331   21.0846   39.4968 LP  0  0  0  0  0  0  0  0  0  0  0  0  # atno 16639 bound_to 3415
   24.1935   23.2463   36.6306 LP  0  0  0  0  0  0  0  0  0  0  0  0  # atno 16640 bound_to 3412
   24.9447   21.5153   39.1465 LP  0  0  0  0  0  0  0  0  0  0  0  0  # atno 16641 bound_to 3478
    9.2519   13.7882   43.6227 LP  0  0  0  0  0  0  0  0  0  0  0  0  # atno 16646 bound_to 9102
    8.2240   15.1817   43.6598 LP  0  0  0  0  0  0  0  0  0  0  0  0  # atno 16647 bound_to 9102
   10.3764   15.9857   46.0209 LP  0  0  0  0  0  0  0  0  0  0  0  0  # atno 16648 bound_to 9168
   14.9092   16.3854   46.3837 LP  0  0  0  0  0  0  0  0  0  0  0  0  # atno 16649 bound_to 9178
   14.8332   16.3965   48.0148 LP  0  0  0  0  0  0  0  0  0  0  0  0  # atno 16650 bound_to 9178
   10.3994   24.8603   36.9528 LP  0  0  0  0  0  0  0  0  0  0  0  0  # atno 16654 bound_to 6255
    9.5326   24.6418   35.5862 LP  0  0  0  0  0  0  0  0  0  0  0  0  # atno 16655 bound_to 6255
   12.4694   18.2795   48.6493 LP  0  0  0  0  0  0  0  0  0  0  0  0  # atno 16656 bound_to 9176
   11.8179   18.6796   47.2063 LP  0  0  0  0  0  0  0  0  0  0  0  0  # atno 16657 bound_to 9176

> <Gold.Score>
     Fitness  S(hb_ext) S(vdw_ext)  S(hb_int)    S(int)      intcor
     32.21       0.41      23.89       0.00      -1.04      -0.76

> <Gold.Goldscore.Fitness>
32.2089

> <Gold.Goldscore.Internal.Vdw>
-1.2634

> <Gold.Goldscore.Internal.Torsion>
-0.5363

> <Gold.Goldscore.External.Vdw>
23.8858

> <Gold.Goldscore.Internal.HBond>
0.0000

> <Gold.Goldscore.External.HBond>
0.4073

> <Gold.Goldscore.Internal.Correction>
-0.7585

> <Gold.Goldscore.Hbonds>
donor molecule, donor type, donor heavy atom, donor atom, acceptor molecule, acceptor atom, score
      P1  H  9225  9241       L1     9  0.05
      L1  H    10    23       P1  6121  0.15

> <Gold.Goldscore.Internal.Vdw.Weighted>
-1.2634

> <Gold.Goldscore.Internal.Torsion.Weighted>
-0.5363

> <Gold.Goldscore.External.Vdw.Weighted>
32.8429

> <Gold.Goldscore.Internal.HBond.Weighted>
0.0000

> <Gold.Goldscore.External.HBond.Weighted>
0.4073

> <Gold.Goldscore.Internal.Correction.Weighted>
-0.7585

> <Gold.Rescore>
     Score     S(PLP)   S(hbond)     S(cho)   S(metal)  DE(clash)   DE(tors)     intcor
     25.27     -21.17       1.99       0.00       0.00       0.64       0.62       ----

> <Gold.PLP.Fitness>
25.2685

> <Gold.PLP.PLP>
-21.1677

> <Gold.PLP.part.hbond>
-2.3158

> <Gold.PLP.part.metal>
0.0000

> <Gold.PLP.part.buried>
3.5227

> <Gold.PLP.part.nonpolar>
-23.9947

> <Gold.PLP.part.repulsive>
0.3903

> <Gold.PLP.ligand.clash>
0.6412

> <Gold.PLP.ligand.torsion>
0.6170

> <Gold.PLP.Chemscore.Hbond>
1.9920

> <Gold.PLP.Chemscore.CHOScore>
0.0000

> <Gold.PLP.Chemscore.Metal>
0.0000

> <Gold.Chemscore.Hbonds>
donor molecule, donor type, donor heavy atom, donor atom, acceptor molecule, acceptor atom, score
      L1  H    10    23       P1  6121  0.83
      P1  H  9225  9241       L1     9  0.99

> <Gold.PLP.Chemscore.Internal.Correction>
   9.000000E+99

#       Name:                CT1002167954
#       Creating user name   hitesit
#       Creation time:       Sun Apr 16 22:54:32 2023


#       File generated by GOLD software.
#

@<TRIPOS>MOLECULE
CT1002167954|ligand_prepared|mol2|1|dock10
    29    30     1
SMALL
NO_CHARGES


@<TRIPOS>ATOM
      1 C1          18.8057  15.8775  32.9667 C.3            1 RES1               0.0000
      2 C2          17.6218  16.8658  32.9443 C.ar           1 RES1               0.0000
      3 C3          19.4907  16.0601  34.3179 C.2            1 RES1               0.0000
      4 C4          18.2080  14.4910  32.7546 C.2            1 RES1               0.0000
      5 C5          19.8472  16.1247  31.8507 C.3            1 RES1               0.0000
      6 C6          16.9427  17.1311  31.7589 C.ar           1 RES1               0.0000
      7 C7          17.1964  17.5167  34.0993 C.ar           1 RES1               0.0000
      8 N8          19.3120  15.0844  35.2539 N.am           1 RES1               0.0000
      9 O9          20.1452  17.0637  34.5721 O.2            1 RES1               0.0000
     10 N10         18.2938  13.5904  33.7838 N.am           1 RES1               0.0000
     11 O11         17.6488  14.1757  31.7115 O.2            1 RES1               0.0000
     12 C12         21.0939  15.2628  31.9736 C.3            1 RES1               0.0000
     13 C13         15.8749  18.0129  31.7298 C.ar           1 RES1               0.0000
     14 C14         16.1285  18.3983  34.0678 C.ar           1 RES1               0.0000
     15 C15         18.7915  13.8343  35.0349 C.2            1 RES1               0.0000
     16 C16         15.4669  18.6466  32.8841 C.ar           1 RES1               0.0000
     17 O17         18.7847  12.9892  35.9253 O.2            1 RES1               0.0000
     18 H18         19.3769  15.9288  30.8791 H              1 RES1               0.0000
     19 H19         20.1444  17.1804  31.8725 H              1 RES1               0.0000
     20 H20         17.2510  16.6437  30.8401 H              1 RES1               0.0000
     21 H21         17.7027  17.3374  35.0417 H              1 RES1               0.0000
     22 H22         19.5911  15.3047  36.2046 H              1 RES1               0.0000
     23 H23         17.9555  12.6511  33.6004 H              1 RES1               0.0000
     24 H24         21.7913  15.4759  31.1662 H              1 RES1               0.0000
     25 H25         21.6009  15.4503  32.9178 H              1 RES1               0.0000
     26 H26         20.8380  14.2061  31.9303 H              1 RES1               0.0000
     27 H27         15.3584  18.2060  30.7953 H              1 RES1               0.0000
     28 H28         15.8112  18.8953  34.9786 H              1 RES1               0.0000
     29 H29         14.6302  19.3370  32.8610 H              1 RES1               0.0000
@<TRIPOS>BOND
    1    1    2 1     
    2    1    3 1     
    3    1    4 1     
    4    1    5 1     
    5    2    6 ar    
    6    2    7 ar    
    7    3    8 1     
    8    3    9 2     
    9    4   10 1     
   10    4   11 2     
   11    5   12 1     
   12    5   18 1     
   13    5   19 1     
   14    6   13 ar    
   15    6   20 1     
   16    7   14 ar    
   17    7   21 1     
   18    8   15 1     
   19    8   22 1     
   20   10   15 1     
   21   10   23 1     
   22   12   24 1     
   23   12   25 1     
   24   12   26 1     
   25   13   16 ar    
   26   13   27 1     
   27   14   16 ar    
   28   14   28 1     
   29   15   17 2     
   30   16   29 1     
@<TRIPOS>SUBSTRUCTURE
      1 RES1           1
@<TRIPOS>SET
DONOR_HYDROGENS      STATIC     ATOMS    <user>   **** ""
2 22 23
ATOM$RED        STATIC     ATOMS    COLORGROUP SYSTEM
2 22 23
@<TRIPOS>COMMENT
> <Gold.Version>
2022.3.0

> <Gold.Id.Protein>
unknown|3mvj_clean|pdb

> <Gold.Protein.RotatedTorsions>
[ 10968 10947 10946 10944 ] final -167.81 input   60.01 | X-H torsion
[ 10728 10707 10706 10704 ] final -159.42 input   59.96 | X-H torsion
[ 10960 10936 10937 10938 ] final  111.91 input   23.31 | X-H torsion
[ 12067 12045 12046 12047 ] final  142.46 input   63.71 | X-H torsion
[ 15542 15533 15534 15535 ] final  150.79 input   83.29 | X-H torsion
[ 15588 15579 15580 15581 ] final  -59.67 input  107.67 | X-H torsion
[ 15633 15624 15625 15626 ] final  -52.99 input   84.82 | X-H torsion
[ 10915 10907 10908 10909 ] final -171.76 input  -87.38 | X-H torsion
[ 6151 6129 6130 6131 ] final  -80.52 input   27.76 | X-H torsion
[ 6109 6101 6102 6103 ] final  -65.67 input  -93.79 | X-H torsion
[ 5929 5907 5908 5909 ] final   10.97 input  119.25 | X-H torsion
[ 6001 5979 5980 5981 ] final  146.26 input  112.51 | X-H torsion
[ 6064 6048 6049 6050 ] final  -81.58 input  108.26 | X-H torsion
[ 11206 11196 11197 11198 ] final  -69.54 input   -0.63 | X-H torsion
[ 11245 11229 11230 11231 ] final  -11.50 input  120.69 | X-H torsion
[ 11164 11142 11143 11144 ] final -155.97 input   33.88 | X-H torsion
[ 11104 11082 11083 11084 ] final   95.62 input   45.00 | X-H torsion
[ 11284 11266 11267 11268 ] final  139.58 input   49.58 | X-H torsion
[ 9439 9421 9422 9423 ] final   47.48 input  116.39 | X-H torsion
[ 11482 11466 11467 11468 ] final  123.26 input  126.08 | X-H torsion
[ 11374 11358 11359 11360 ] final   41.83 input   98.08 | X-H torsion
[ 11559 11538 11537 11535 ] final  -17.34 input   60.01 | X-H torsion
[ 9349 9335 9336 9337 ] final   65.85 input   84.14 | X-H torsion
[ 9355 9341 9339 9336 ] final  -76.39 input   60.02 | X-H torsion
[ 9493 9469 9470 9471 ] final  124.43 input   75.21 | X-H torsion
[ 7840 7822 7823 7824 ] final -143.02 input  121.36 | X-H torsion
[ 7742 7722 7721 7720 ] final -164.99 input   60.01 | X-H torsion
[ 5728 5706 5707 5708 ] final -174.70 input  119.20 | X-H torsion
[ 5773 5761 5762 5763 ] final   -0.73 input  120.20 | X-H torsion
[ 5777 5766 5765 5762 ] final    2.33 input   59.99 | X-H torsion
[ 7882 7866 7867 7868 ] final  -88.99 input   81.17 | X-H torsion
[ 9501 9480 9479 9477 ] final  -80.60 input   60.03 | X-H torsion
[ 7732 7714 7715 7716 ] final -166.76 input  -10.67 | X-H torsion
[ 15083 15054 15053 15052 ] final  150.01 input   60.01 | X-H torsion
[ 9319 9311 9312 9313 ] final   15.25 input  -66.31 | X-H torsion
[ 15194 15161 15160 15159 ] final -150.95 input   59.99 | X-H torsion
[ 15326 15310 15309 15306 ] final   59.99 input   59.99 | X-H torsion
[ 9292 9280 9281 9282 ] final  170.43 input   22.77 | X-H torsion
[ 7636 7620 7621 7622 ] final  -24.69 input   34.37 | X-H torsion
[ 9241 9225 9226 9227 ] final -159.87 input   96.07 | X-H torsion
[ 9544 9528 9529 9530 ] final -136.57 input   99.68 | X-H torsion
[ 3443 3412 3413 3414 ] final  136.76 input -120.58 | X-H torsion
[ 3504 3478 3479 3480 ] final  145.22 input   70.69 | X-H torsion
[ 9190 9168 9169 9170 ] final   58.00 input  115.65 | X-H torsion
[ 9198 9178 9175 9174 ] final  127.48 input   59.98 | X-H torsion
[ 6282 6255 6254 6251 ] final   74.06 input   60.00 | X-H torsion
[ 9196 9176 9175 9174 ] final   61.41 input   60.01 | X-H torsion
[ 12157 12142 12143 12144 ] final  -37.70 input  108.55 | X-H torsion
[ 11995 11973 11974 11975 ] final  120.34 input   68.31 | X-H torsion
[ 11434 11416 11417 11418 ] final  147.35 input  102.35 | X-H torsion
[ 5626 5608 5609 5610 ] final  165.50 input  119.09 | X-H torsion
[ 10774 10756 10757 10758 ] final  150.31 input  129.22 | X-H torsion
[ 10816 10800 10801 10802 ] final -166.46 input  128.85 | X-H torsion
[ 8641 8619 8620 8621 ] final   78.91 input   87.35 | X-H torsion
[ 3659 3632 3633 3634 ] final   55.09 input  116.97 | X-H torsion
[ 10029 10008 10007 10005 ] final   -1.87 input   60.01 | X-H torsion
[ 16458 15536 15535 15534 ] final  -35.16 input    0.00 | X-H torsion
[ 16468 10881 10880 10879 ] final  -36.56 input    0.00 | X-H torsion
[ 16470 10910 10909 10908 ] final -168.75 input    0.00 | X-H torsion
[ 16473 10997 10996 10995 ] final -154.69 input    0.00 | X-H torsion
[ 16475 11976 11975 11974 ] final  129.37 input    0.00 | X-H torsion
[ 16477 12048 12047 12046 ] final  -53.44 input    0.00 | X-H torsion
[ 16480 10939 10938 10937 ] final  115.31 input   -0.00 | X-H torsion
[ 16483 11039 11038 11037 ] final   26.72 input    0.00 | X-H torsion
[ 16492 15582 15581 15580 ] final   33.75 input    0.00 | X-H torsion
[ 16496 6104 6103 6102 ] final -108.28 input    0.00 | X-H torsion
[ 16499 5910 5909 5908 ] final  156.09 input   -0.00 | X-H torsion
[ 16502 5850 5849 5848 ] final  -29.53 input    0.00 | X-H torsion
[ 16505 6051 6050 6049 ] final   60.47 input    0.00 | X-H torsion
[ 16507 5982 5981 5980 ] final  -95.62 input    0.00 | X-H torsion
[ 16511 11145 11144 11143 ] final  -61.87 input    0.00 | X-H torsion
[ 16514 11199 11198 11197 ] final  156.09 input    0.00 | X-H torsion
[ 16530 11085 11084 11083 ] final  -71.72 input   -0.00 | X-H torsion
[ 16538 11232 11231 11230 ] final   11.25 input    0.00 | X-H torsion
[ 16549 11269 11268 11267 ] final -158.91 input   -0.00 | X-H torsion
[ 16552 11318 11317 11316 ] final -150.47 input    0.00 | X-H torsion
[ 16558 9314 9313 9312 ] final -102.66 input    0.00 | X-H torsion
[ 16561 9338 9337 9336 ] final   78.75 input    0.00 | X-H torsion
[ 16565 9380 9379 9378 ] final  163.12 input    0.00 | X-H torsion
[ 16570 5709 5708 5707 ] final  -52.03 input    0.00 | X-H torsion
[ 16575 7825 7824 7823 ] final  149.06 input    0.00 | X-H torsion
[ 16583 7781 7780 7779 ] final   50.62 input   -0.00 | X-H torsion
[ 16593 9424 9423 9422 ] final  -99.84 input   -0.00 | X-H torsion
[ 16597 7659 7658 7657 ] final -112.50 input   -0.00 | X-H torsion
[ 16599 7717 7716 7715 ] final   33.75 input    0.00 | X-H torsion
[ 16602 10532 10531 10530 ] final  165.94 input    0.00 | X-H torsion
[ 16611 7554 7553 7552 ] final   15.47 input    0.00 | X-H torsion
[ 16613 7623 7622 7621 ] final   11.25 input   -0.00 | X-H torsion
[ 16616 9283 9282 9281 ] final  -36.56 input    0.00 | X-H torsion
[ 16618 9228 9227 9226 ] final -167.34 input   -0.00 | X-H torsion
[ 16636 3357 3356 3355 ] final  -78.75 input   -0.00 | X-H torsion
[ 16638 3415 3414 3413 ] final  -36.56 input   -0.00 | X-H torsion
[ 16646 9102 9101 9100 ] final  -23.91 input    0.00 | X-H torsion

> <Gold.Protein.ActiveResidues>
 ARG45   SER53   PHE54   LEU82   LYS83   GLN84   GLU86   HIS87   GLU127  PHE129 
 SER130  HIS131  LEU132  ARG133  ARG134  ILE135  GLY136  ARG137  PHE138  SER139 
 HIS142  ARG165  ASP166  LEU167  LYS168  PRO169  GLU170  ASN171  ASP184  GLY186 
 PHE187  TRP196  TPO197  LEU198  CYS199  GLY200  THR201  PRO202  GLU203  TYR204 
 LEU205  ILE209  ILE210  TYR215  VAL226  LEU227  TYR229  GLU230  MET231  ALA233 
 GLY234  TYR235  PRO236  PRO237  PHE238  PHE239  ALA240  ASP241  GLN242  PRO243 
 ILE244  GLN245  ILE246  TYR247  LYS249  ARG256  PHE257  PRO258  SER259  HIS260 
 PRO313  PHE314  ILE315  LYS317  LYS319  SER325  ASN326  ASP328  ASP329  GLU331 
 GLU332  GLU333  GLU334 

> <Gold.Protein.RotatedAtoms>
   24.0459   22.8400   36.5254 H   0  0  0  0  0  0  0  0  0  0  0  0  # atno 3443 bound_to 3412
   24.7969   21.3897   39.1072 H   0  0  0  0  0  0  0  0  0  0  0  0  # atno 3504 bound_to 3478
   23.8623   20.2697   45.0136 H   0  0  0  0  0  0  0  0  0  0  0  0  # atno 3659 bound_to 3632
   35.9399   -0.2790   42.1308 H   0  0  0  0  0  0  0  0  0  0  0  0  # atno 5626 bound_to 5608
   29.5897   -1.7655   41.4466 H   0  0  0  0  0  0  0  0  0  0  0  0  # atno 5728 bound_to 5706
   31.0121   -3.2705   39.0262 H   0  0  0  0  0  0  0  0  0  0  0  0  # atno 5773 bound_to 5761
   33.4746   -1.9915   35.9764 H   0  0  0  0  0  0  0  0  0  0  0  0  # atno 5777 bound_to 5766
   30.0102   -7.1106   37.2283 H   0  0  0  0  0  0  0  0  0  0  0  0  # atno 5929 bound_to 5907
   31.6829   -7.0154   35.3970 H   0  0  0  0  0  0  0  0  0  0  0  0  # atno 6001 bound_to 5979
   32.1231  -10.4565   35.5125 H   0  0  0  0  0  0  0  0  0  0  0  0  # atno 6064 bound_to 6048
   29.3367  -10.2945   36.3470 H   0  0  0  0  0  0  0  0  0  0  0  0  # atno 6109 bound_to 6101
   27.5759  -11.7702   37.5815 H   0  0  0  0  0  0  0  0  0  0  0  0  # atno 6151 bound_to 6129
    9.5393   25.0001   36.0732 H   0  0  0  0  0  0  0  0  0  0  0  0  # atno 6282 bound_to 6255
   18.9910    6.0427   47.0068 H   0  0  0  0  0  0  0  0  0  0  0  0  # atno 7636 bound_to 7620
   21.3402    1.9247   44.7664 H   0  0  0  0  0  0  0  0  0  0  0  0  # atno 7732 bound_to 7714
   23.0434    7.0317   40.6626 H   0  0  0  0  0  0  0  0  0  0  0  0  # atno 7742 bound_to 7722
   21.7137    6.0779   40.9240 H   0  0  0  0  0  0  0  0  0  0  0  0  # atno 7743 bound_to 7722
   23.0005    6.0094   41.9668 H   0  0  0  0  0  0  0  0  0  0  0  0  # atno 7744 bound_to 7722
   26.4055    0.2946   40.7673 H   0  0  0  0  0  0  0  0  0  0  0  0  # atno 7840 bound_to 7822
   27.7266    2.9504   42.3732 H   0  0  0  0  0  0  0  0  0  0  0  0  # atno 7882 bound_to 7866
   22.6293   12.2983   46.8658 H   0  0  0  0  0  0  0  0  0  0  0  0  # atno 8641 bound_to 8619
   10.8085   14.5193   46.1858 H   0  0  0  0  0  0  0  0  0  0  0  0  # atno 9190 bound_to 9168
   11.6697   18.4974   47.5394 H   0  0  0  0  0  0  0  0  0  0  0  0  # atno 9196 bound_to 9176
   14.9308   17.6136   47.7538 H   0  0  0  0  0  0  0  0  0  0  0  0  # atno 9198 bound_to 9178
   10.7938   14.2179   42.7293 H   0  0  0  0  0  0  0  0  0  0  0  0  # atno 9241 bound_to 9225
   13.6523   12.7717   41.9134 H   0  0  0  0  0  0  0  0  0  0  0  0  # atno 9292 bound_to 9280
   16.5749   10.2060   40.1774 H   0  0  0  0  0  0  0  0  0  0  0  0  # atno 9319 bound_to 9311
   17.9555    6.2095   40.5940 H   0  0  0  0  0  0  0  0  0  0  0  0  # atno 9349 bound_to 9335
   20.9009    6.0673   37.8151 H   0  0  0  0  0  0  0  0  0  0  0  0  # atno 9355 bound_to 9341
   16.5165    2.9897   37.4496 H   0  0  0  0  0  0  0  0  0  0  0  0  # atno 9439 bound_to 9421
   16.6191    2.1550   39.0772 H   0  0  0  0  0  0  0  0  0  0  0  0  # atno 9493 bound_to 9469
   20.0080   -3.2148   41.1125 H   0  0  0  0  0  0  0  0  0  0  0  0  # atno 9501 bound_to 9480
   14.7785    3.3091   41.2012 H   0  0  0  0  0  0  0  0  0  0  0  0  # atno 9544 bound_to 9528
   12.4886   12.0662   45.3986 H   0  0  0  0  0  0  0  0  0  0  0  0  # atno 10029 bound_to 10008
   13.2037  -10.8431   37.4721 H   0  0  0  0  0  0  0  0  0  0  0  0  # atno 10728 bound_to 10707
   18.4651   -6.8516   41.1492 H   0  0  0  0  0  0  0  0  0  0  0  0  # atno 10774 bound_to 10756
   22.0284   -6.9039   41.7998 H   0  0  0  0  0  0  0  0  0  0  0  0  # atno 10816 bound_to 10800
   22.4125  -11.5750   38.3831 H   0  0  0  0  0  0  0  0  0  0  0  0  # atno 10915 bound_to 10907
   20.9099   -9.9091   35.9372 H   0  0  0  0  0  0  0  0  0  0  0  0  # atno 10960 bound_to 10936
   17.2736  -14.0257   34.8041 H   0  0  0  0  0  0  0  0  0  0  0  0  # atno 10968 bound_to 10947
   13.6792   -4.2674   37.2746 H   0  0  0  0  0  0  0  0  0  0  0  0  # atno 11104 bound_to 11082
   13.7605   -3.5160   34.1362 H   0  0  0  0  0  0  0  0  0  0  0  0  # atno 11164 bound_to 11142
   15.2493   -2.8082   29.8701 H   0  0  0  0  0  0  0  0  0  0  0  0  # atno 11206 bound_to 11196
   14.0840   -0.3544   27.5696 H   0  0  0  0  0  0  0  0  0  0  0  0  # atno 11245 bound_to 11229
   13.7398    1.8267   26.0218 H   0  0  0  0  0  0  0  0  0  0  0  0  # atno 11284 bound_to 11266
   11.1146    4.4599   29.3124 H   0  0  0  0  0  0  0  0  0  0  0  0  # atno 11374 bound_to 11358
    9.7203    3.3292   28.7962 H   0  0  0  0  0  0  0  0  0  0  0  0  # atno 11434 bound_to 11416
   11.1330    1.7744   30.7861 H   0  0  0  0  0  0  0  0  0  0  0  0  # atno 11482 bound_to 11466
   13.2744    7.7265   35.3420 H   0  0  0  0  0  0  0  0  0  0  0  0  # atno 11559 bound_to 11538
    9.0178  -10.5587   36.7972 H   0  0  0  0  0  0  0  0  0  0  0  0  # atno 11995 bound_to 11973
   10.4085  -13.8171   38.8887 H   0  0  0  0  0  0  0  0  0  0  0  0  # atno 12067 bound_to 12045
   15.4438  -18.1380   37.9060 H   0  0  0  0  0  0  0  0  0  0  0  0  # atno 12157 bound_to 12142
   26.0807   15.7213   35.2205 H   0  0  0  0  0  0  0  0  0  0  0  0  # atno 15083 bound_to 15054
   27.0441   14.4525   34.7628 H   0  0  0  0  0  0  0  0  0  0  0  0  # atno 15084 bound_to 15054
   26.9205   15.7915   33.7939 H   0  0  0  0  0  0  0  0  0  0  0  0  # atno 15085 bound_to 15054
   32.7995   11.2357   31.3468 H   0  0  0  0  0  0  0  0  0  0  0  0  # atno 15194 bound_to 15161
   31.6925   12.2136   30.5941 H   0  0  0  0  0  0  0  0  0  0  0  0  # atno 15195 bound_to 15161
   31.2908   10.6534   30.9855 H   0  0  0  0  0  0  0  0  0  0  0  0  # atno 15196 bound_to 15161
   26.4810   11.8170   26.1400 H   0  0  0  0  0  0  0  0  0  0  0  0  # atno 15326 bound_to 15310
    8.7745  -11.6144   26.1692 H   0  0  0  0  0  0  0  0  0  0  0  0  # atno 15542 bound_to 15533
    9.3680  -14.9322   27.5813 H   0  0  0  0  0  0  0  0  0  0  0  0  # atno 15588 bound_to 15579
    8.8595  -18.0076   29.1416 H   0  0  0  0  0  0  0  0  0  0  0  0  # atno 15633 bound_to 15624
   11.4457  -14.8572   27.0137 LP  0  0  0  0  0  0  0  0  0  0  0  0  # atno 16458 bound_to 15536
   11.0603  -14.8811   28.7022 LP  0  0  0  0  0  0  0  0  0  0  0  0  # atno 16459 bound_to 15536
   16.0540  -13.3133   33.9963 LP  0  0  0  0  0  0  0  0  0  0  0  0  # atno 16460 bound_to 10947
   16.1416  -13.1912   35.6224 LP  0  0  0  0  0  0  0  0  0  0  0  0  # atno 16461 bound_to 10947
   14.5498  -11.7235   37.2251 LP  0  0  0  0  0  0  0  0  0  0  0  0  # atno 16466 bound_to 10707
   14.3757  -10.2715   36.4985 LP  0  0  0  0  0  0  0  0  0  0  0  0  # atno 16467 bound_to 10707
   21.2721  -13.6774   36.5725 LP  0  0  0  0  0  0  0  0  0  0  0  0  # atno 16468 bound_to 10881
   21.5843  -12.2688   35.6142 LP  0  0  0  0  0  0  0  0  0  0  0  0  # atno 16469 bound_to 10881
   22.3337   -7.8118   34.5973 LP  0  0  0  0  0  0  0  0  0  0  0  0  # atno 16470 bound_to 10910
   23.6197   -8.9720   34.6094 LP  0  0  0  0  0  0  0  0  0  0  0  0  # atno 16471 bound_to 10910
   21.5566   -8.7304   37.0512 LP  0  0  0  0  0  0  0  0  0  0  0  0  # atno 16472 bound_to 10936
   15.1256   -6.5867   35.4621 LP  0  0  0  0  0  0  0  0  0  0  0  0  # atno 16473 bound_to 10997
   16.7947   -6.9767   35.2134 LP  0  0  0  0  0  0  0  0  0  0  0  0  # atno 16474 bound_to 10997
   12.1977  -11.6688   38.6485 LP  0  0  0  0  0  0  0  0  0  0  0  0  # atno 16475 bound_to 11976
   11.9157  -11.3891   36.9626 LP  0  0  0  0  0  0  0  0  0  0  0  0  # atno 16476 bound_to 11976
   11.8512  -16.7527   37.9523 LP  0  0  0  0  0  0  0  0  0  0  0  0  # atno 16477 bound_to 12048
   12.6528  -16.3658   36.4665 LP  0  0  0  0  0  0  0  0  0  0  0  0  # atno 16478 bound_to 12048
   18.9655   -7.8681   38.4584 LP  0  0  0  0  0  0  0  0  0  0  0  0  # atno 16480 bound_to 10939
   18.3349   -9.0289   37.3383 LP  0  0  0  0  0  0  0  0  0  0  0  0  # atno 16481 bound_to 10939
   11.6970   -7.2431   36.9637 LP  0  0  0  0  0  0  0  0  0  0  0  0  # atno 16483 bound_to 11039
   11.7503   -6.3695   35.4690 LP  0  0  0  0  0  0  0  0  0  0  0  0  # atno 16484 bound_to 11039
   11.0513  -14.0007   37.2751 LP  0  0  0  0  0  0  0  0  0  0  0  0  # atno 16485 bound_to 12045
    8.2317  -12.3451   27.6614 LP  0  0  0  0  0  0  0  0  0  0  0  0  # atno 16490 bound_to 15533
    7.6942  -14.6732   28.0349 LP  0  0  0  0  0  0  0  0  0  0  0  0  # atno 16491 bound_to 15579
    8.9817  -16.9462   26.8406 LP  0  0  0  0  0  0  0  0  0  0  0  0  # atno 16492 bound_to 15582
    8.7207  -18.6114   27.2393 LP  0  0  0  0  0  0  0  0  0  0  0  0  # atno 16493 bound_to 15582
   10.2249  -17.7463   30.2047 LP  0  0  0  0  0  0  0  0  0  0  0  0  # atno 16494 bound_to 15624
   21.0506  -10.6743   37.7508 LP  0  0  0  0  0  0  0  0  0  0  0  0  # atno 16495 bound_to 10907
   25.7906   -9.9455   37.4015 LP  0  0  0  0  0  0  0  0  0  0  0  0  # atno 16496 bound_to 6104
   25.0363  -10.7998   36.0973 LP  0  0  0  0  0  0  0  0  0  0  0  0  # atno 16497 bound_to 6104
   26.6994  -13.1574   36.9818 LP  0  0  0  0  0  0  0  0  0  0  0  0  # atno 16498 bound_to 6129
   30.3467   -9.2114   33.2637 LP  0  0  0  0  0  0  0  0  0  0  0  0  # atno 16499 bound_to 5910
   28.7317   -8.9795   33.8451 LP  0  0  0  0  0  0  0  0  0  0  0  0  # atno 16500 bound_to 5910
   29.8024  -11.9131   35.8938 LP  0  0  0  0  0  0  0  0  0  0  0  0  # atno 16501 bound_to 6101
   29.0239   -9.6162   37.6860 LP  0  0  0  0  0  0  0  0  0  0  0  0  # atno 16502 bound_to 5850
   28.2628   -8.9456   36.2820 LP  0  0  0  0  0  0  0  0  0  0  0  0  # atno 16503 bound_to 5850
   28.5495   -6.1537   37.1981 LP  0  0  0  0  0  0  0  0  0  0  0  0  # atno 16504 bound_to 5907
   29.4654  -13.9217   37.2116 LP  0  0  0  0  0  0  0  0  0  0  0  0  # atno 16505 bound_to 6051
   29.3063  -13.8187   35.4900 LP  0  0  0  0  0  0  0  0  0  0  0  0  # atno 16506 bound_to 6051
   31.4843  -11.6562   33.8719 LP  0  0  0  0  0  0  0  0  0  0  0  0  # atno 16507 bound_to 5982
   33.1552  -11.7143   34.3245 LP  0  0  0  0  0  0  0  0  0  0  0  0  # atno 16508 bound_to 5982
   30.4116   -8.2095   35.2455 LP  0  0  0  0  0  0  0  0  0  0  0  0  # atno 16509 bound_to 5979
   31.5845   -9.6736   36.9805 LP  0  0  0  0  0  0  0  0  0  0  0  0  # atno 16510 bound_to 6048
   13.1764   -4.8914   30.6205 LP  0  0  0  0  0  0  0  0  0  0  0  0  # atno 16511 bound_to 11145
   12.0739   -3.5857   30.3381 LP  0  0  0  0  0  0  0  0  0  0  0  0  # atno 16512 bound_to 11145
   14.0195   -1.9567   30.7900 LP  0  0  0  0  0  0  0  0  0  0  0  0  # atno 16513 bound_to 11196
   16.3760    0.0180   28.1152 LP  0  0  0  0  0  0  0  0  0  0  0  0  # atno 16514 bound_to 11199
   15.5036   -0.2613   29.5852 LP  0  0  0  0  0  0  0  0  0  0  0  0  # atno 16515 bound_to 11199
   14.2214   -1.5769   26.3204 LP  0  0  0  0  0  0  0  0  0  0  0  0  # atno 16516 bound_to 11229
   13.0359   -4.4183   32.8329 LP  0  0  0  0  0  0  0  0  0  0  0  0  # atno 16525 bound_to 11142
   13.9972   -1.4741   34.9428 LP  0  0  0  0  0  0  0  0  0  0  0  0  # atno 16530 bound_to 11085
   15.3778   -2.5121   34.8142 LP  0  0  0  0  0  0  0  0  0  0  0  0  # atno 16531 bound_to 11085
   13.8021   -5.6439   36.2004 LP  0  0  0  0  0  0  0  0  0  0  0  0  # atno 16533 bound_to 11082
   16.8763    2.2050   25.6053 LP  0  0  0  0  0  0  0  0  0  0  0  0  # atno 16538 bound_to 11232
   16.1753    3.3628   26.6860 LP  0  0  0  0  0  0  0  0  0  0  0  0  # atno 16539 bound_to 11232
   14.4989    1.5448   27.5797 LP  0  0  0  0  0  0  0  0  0  0  0  0  # atno 16542 bound_to 11266
   15.3710    2.8613   36.1405 LP  0  0  0  0  0  0  0  0  0  0  0  0  # atno 16548 bound_to 9421
   11.9065    3.0534   30.0072 LP  0  0  0  0  0  0  0  0  0  0  0  0  # atno 16549 bound_to 11269
   12.4066    1.9196   28.7972 LP  0  0  0  0  0  0  0  0  0  0  0  0  # atno 16550 bound_to 11269
   10.3854    3.5943   32.0235 LP  0  0  0  0  0  0  0  0  0  0  0  0  # atno 16552 bound_to 11318
   11.7150    4.2638   32.9090 LP  0  0  0  0  0  0  0  0  0  0  0  0  # atno 16553 bound_to 11318
    9.6546    0.8609   31.0038 LP  0  0  0  0  0  0  0  0  0  0  0  0  # atno 16554 bound_to 11466
   11.4598    5.6005   30.5782 LP  0  0  0  0  0  0  0  0  0  0  0  0  # atno 16555 bound_to 11358
   12.3996    8.9539   34.7293 LP  0  0  0  0  0  0  0  0  0  0  0  0  # atno 16556 bound_to 11538
   13.2007    7.9402   33.7307 LP  0  0  0  0  0  0  0  0  0  0  0  0  # atno 16557 bound_to 11538
   16.6137    8.4840   38.2749 LP  0  0  0  0  0  0  0  0  0  0  0  0  # atno 16558 bound_to 9314
   18.1840    9.2150   38.2788 LP  0  0  0  0  0  0  0  0  0  0  0  0  # atno 16559 bound_to 9314
   18.1398    7.7164   39.7294 LP  0  0  0  0  0  0  0  0  0  0  0  0  # atno 16560 bound_to 9335
   15.8864    5.2288   39.8278 LP  0  0  0  0  0  0  0  0  0  0  0  0  # atno 16561 bound_to 9338
   16.4549    3.7240   39.1856 LP  0  0  0  0  0  0  0  0  0  0  0  0  # atno 16562 bound_to 9338
   21.3745    5.1567   39.0783 LP  0  0  0  0  0  0  0  0  0  0  0  0  # atno 16563 bound_to 9341
   20.5320    6.5326   39.3305 LP  0  0  0  0  0  0  0  0  0  0  0  0  # atno 16564 bound_to 9341
   13.5724    2.1053   37.8026 LP  0  0  0  0  0  0  0  0  0  0  0  0  # atno 16565 bound_to 9380
   13.2957    3.7850   38.1222 LP  0  0  0  0  0  0  0  0  0  0  0  0  # atno 16566 bound_to 9380
   14.9700    1.5734   39.0009 LP  0  0  0  0  0  0  0  0  0  0  0  0  # atno 16567 bound_to 9469
   29.1661   -4.5515   38.0557 LP  0  0  0  0  0  0  0  0  0  0  0  0  # atno 16570 bound_to 5709
   29.8923   -3.8104   36.6689 LP  0  0  0  0  0  0  0  0  0  0  0  0  # atno 16571 bound_to 5709
   25.7503    1.3655   41.9810 LP  0  0  0  0  0  0  0  0  0  0  0  0  # atno 16574 bound_to 7822
   28.9052    4.5392   42.4949 LP  0  0  0  0  0  0  0  0  0  0  0  0  # atno 16575 bound_to 7825
   29.5625    3.4221   41.3460 LP  0  0  0  0  0  0  0  0  0  0  0  0  # atno 16576 bound_to 7825
   30.9877   -2.5604   40.7682 LP  0  0  0  0  0  0  0  0  0  0  0  0  # atno 16579 bound_to 5706
   31.4350   -1.7159   38.3458 LP  0  0  0  0  0  0  0  0  0  0  0  0  # atno 16580 bound_to 5761
   35.0226   -2.4819   36.0775 LP  0  0  0  0  0  0  0  0  0  0  0  0  # atno 16581 bound_to 5766
   34.5246   -1.1643   36.9038 LP  0  0  0  0  0  0  0  0  0  0  0  0  # atno 16582 bound_to 5766
   28.4263   -0.6629   42.5129 LP  0  0  0  0  0  0  0  0  0  0  0  0  # atno 16583 bound_to 7781
   28.3507    1.0155   42.9339 LP  0  0  0  0  0  0  0  0  0  0  0  0  # atno 16584 bound_to 7781
   26.1510    2.5030   42.9933 LP  0  0  0  0  0  0  0  0  0  0  0  0  # atno 16585 bound_to 7866
   13.8711   -0.2189   39.3893 LP  0  0  0  0  0  0  0  0  0  0  0  0  # atno 16593 bound_to 9424
   15.3871   -1.0459   39.2555 LP  0  0  0  0  0  0  0  0  0  0  0  0  # atno 16594 bound_to 9424
   20.7407   -2.6103   42.4338 LP  0  0  0  0  0  0  0  0  0  0  0  0  # atno 16595 bound_to 9480
   21.3402   -2.2948   40.9480 LP  0  0  0  0  0  0  0  0  0  0  0  0  # atno 16596 bound_to 9480
   19.7503    1.7939   43.5309 LP  0  0  0  0  0  0  0  0  0  0  0  0  # atno 16597 bound_to 7659
   20.0851    3.4932   43.5149 LP  0  0  0  0  0  0  0  0  0  0  0  0  # atno 16598 bound_to 7659
   24.5357    1.7934   44.6977 LP  0  0  0  0  0  0  0  0  0  0  0  0  # atno 16599 bound_to 7717
   25.7346    1.5118   43.4798 LP  0  0  0  0  0  0  0  0  0  0  0  0  # atno 16600 bound_to 7717
   23.0664    2.0937   44.9999 LP  0  0  0  0  0  0  0  0  0  0  0  0  # atno 16601 bound_to 7714
   19.1036   -5.1944   42.2900 LP  0  0  0  0  0  0  0  0  0  0  0  0  # atno 16602 bound_to 10532
   17.5433   -5.6058   41.6606 LP  0  0  0  0  0  0  0  0  0  0  0  0  # atno 16603 bound_to 10532
   17.2579   10.6357   41.7268 LP  0  0  0  0  0  0  0  0  0  0  0  0  # atno 16604 bound_to 9311
   27.6661   11.2129   25.2022 LP  0  0  0  0  0  0  0  0  0  0  0  0  # atno 16607 bound_to 15310
   27.6809   10.9479   26.8135 LP  0  0  0  0  0  0  0  0  0  0  0  0  # atno 16608 bound_to 15310
   17.3949    8.7872   45.1511 LP  0  0  0  0  0  0  0  0  0  0  0  0  # atno 16611 bound_to 7554
   18.4481    7.6414   44.3910 LP  0  0  0  0  0  0  0  0  0  0  0  0  # atno 16612 bound_to 7554
   22.3704    5.8008   44.2041 LP  0  0  0  0  0  0  0  0  0  0  0  0  # atno 16613 bound_to 7623
   22.2328    4.0978   44.4882 LP  0  0  0  0  0  0  0  0  0  0  0  0  # atno 16614 bound_to 7623
   13.4896   11.0467   42.0343 LP  0  0  0  0  0  0  0  0  0  0  0  0  # atno 16615 bound_to 9280
   14.9233    9.6034   43.1218 LP  0  0  0  0  0  0  0  0  0  0  0  0  # atno 16616 bound_to 9283
   15.3931    8.3928   41.9756 LP  0  0  0  0  0  0  0  0  0  0  0  0  # atno 16617 bound_to 9283
   15.0360   13.6742   40.4588 LP  0  0  0  0  0  0  0  0  0  0  0  0  # atno 16618 bound_to 9228
   13.6187   14.6694   40.4852 LP  0  0  0  0  0  0  0  0  0  0  0  0  # atno 16619 bound_to 9228
   19.2477    7.7534   46.8170 LP  0  0  0  0  0  0  0  0  0  0  0  0  # atno 16620 bound_to 7620
   12.3738   14.8425   42.3268 LP  0  0  0  0  0  0  0  0  0  0  0  0  # atno 16628 bound_to 9225
   13.5374    2.4482   40.3223 LP  0  0  0  0  0  0  0  0  0  0  0  0  # atno 16635 bound_to 9528
   23.1244   20.3043   36.4960 LP  0  0  0  0  0  0  0  0  0  0  0  0  # atno 16636 bound_to 3357
   24.1713   20.0199   37.8461 LP  0  0  0  0  0  0  0  0  0  0  0  0  # atno 16637 bound_to 3357
   21.4615   21.7296   40.1717 LP  0  0  0  0  0  0  0  0  0  0  0  0  # atno 16638 bound_to 3415
   22.4090   20.2905   40.3486 LP  0  0  0  0  0  0  0  0  0  0  0  0  # atno 16639 bound_to 3415
   25.2024   22.6677   37.8257 LP  0  0  0  0  0  0  0  0  0  0  0  0  # atno 16640 bound_to 3412
   24.1249   22.5267   40.2561 LP  0  0  0  0  0  0  0  0  0  0  0  0  # atno 16641 bound_to 3478
    8.0696   14.0647   43.9972 LP  0  0  0  0  0  0  0  0  0  0  0  0  # atno 16646 bound_to 9102
    9.4063   14.9052   43.2852 LP  0  0  0  0  0  0  0  0  0  0  0  0  # atno 16647 bound_to 9102
    9.7839   15.7564   45.5042 LP  0  0  0  0  0  0  0  0  0  0  0  0  # atno 16648 bound_to 9168
   14.9565   16.9645   46.2619 LP  0  0  0  0  0  0  0  0  0  0  0  0  # atno 16649 bound_to 9178
   14.8255   16.0000   47.5731 LP  0  0  0  0  0  0  0  0  0  0  0  0  # atno 16650 bound_to 9178
   10.3918   23.7510   35.4728 LP  0  0  0  0  0  0  0  0  0  0  0  0  # atno 16654 bound_to 6255
   10.8190   24.4252   36.8974 LP  0  0  0  0  0  0  0  0  0  0  0  0  # atno 16655 bound_to 6255
   13.1497   19.0760   47.1872 LP  0  0  0  0  0  0  0  0  0  0  0  0  # atno 16656 bound_to 9176
   12.8612   18.3961   48.6436 LP  0  0  0  0  0  0  0  0  0  0  0  0  # atno 16657 bound_to 9176

> <Gold.Score>
     Fitness  S(hb_ext) S(vdw_ext)  S(hb_int)    S(int)      intcor
     31.71       6.65      19.25       0.00      -1.42      -0.76

> <Gold.Goldscore.Fitness>
31.7064

> <Gold.Goldscore.Internal.Vdw>
-1.7268

> <Gold.Goldscore.Internal.Torsion>
-0.4499

> <Gold.Goldscore.External.Vdw>
19.2527

> <Gold.Goldscore.Internal.HBond>
0.0000

> <Gold.Goldscore.External.HBond>
6.6542

> <Gold.Goldscore.Internal.Correction>
-0.7565

> <Gold.Goldscore.Hbonds>
donor molecule, donor type, donor heavy atom, donor atom, acceptor molecule, acceptor atom, score
      P1  H  5975  6022       L1    11  0.88
      P1  H  5795  5829       L1    11  0.70

> <Gold.Goldscore.Internal.Vdw.Weighted>
-1.7268

> <Gold.Goldscore.Internal.Torsion.Weighted>
-0.4499

> <Gold.Goldscore.External.Vdw.Weighted>
26.4724

> <Gold.Goldscore.Internal.HBond.Weighted>
0.0000

> <Gold.Goldscore.External.HBond.Weighted>
6.6542

> <Gold.Goldscore.Internal.Correction.Weighted>
-0.7565

> <Gold.Rescore>
     Score     S(PLP)   S(hbond)     S(cho)   S(metal)  DE(clash)   DE(tors)     intcor
     40.74     -39.25       1.00       0.00       0.00       1.26       0.12       ----

> <Gold.PLP.Fitness>
40.7449

> <Gold.PLP.PLP>
-39.2517

> <Gold.PLP.part.hbond>
-1.0000

> <Gold.PLP.part.metal>
0.0000

> <Gold.PLP.part.buried>
-3.2214

> <Gold.PLP.part.nonpolar>
-35.5319

> <Gold.PLP.part.repulsive>
0.0864

> <Gold.PLP.ligand.clash>
1.2586

> <Gold.PLP.ligand.torsion>
0.1241

> <Gold.PLP.Chemscore.Hbond>
1.0000

> <Gold.PLP.Chemscore.CHOScore>
0.0000

> <Gold.PLP.Chemscore.Metal>
0.0000

> <Gold.Chemscore.Hbonds>
donor molecule, donor type, donor heavy atom, donor atom, acceptor molecule, acceptor atom, score
      P1  H  5975  6022       L1    11  1.00

> <Gold.PLP.Chemscore.Internal.Correction>
   9.000000E+99

#       Name:                CT1002167954
#       Creating user name   hitesit
#       Creation time:       Sun Apr 16 22:54:16 2023


#       File generated by GOLD software.
#

@<TRIPOS>MOLECULE
CT1002167954|ligand_prepared|mol2|1|dock4
    29    30     1
SMALL
NO_CHARGES


@<TRIPOS>ATOM
      1 C1          19.3235  11.4198  37.2656 C.3            1 RES1               0.0000
      2 C2          17.8533  11.2065  36.8509 C.ar           1 RES1               0.0000
      3 C3          19.3673  11.2653  38.7830 C.2            1 RES1               0.0000
      4 C4          20.1359  10.3739  36.5101 C.2            1 RES1               0.0000
      5 C5          19.8804  12.8147  36.8976 C.3            1 RES1               0.0000
      6 C6          16.8858  12.1593  37.1555 C.ar           1 RES1               0.0000
      7 C7          17.4507  10.0654  36.1622 C.ar           1 RES1               0.0000
      8 N8          19.9173  10.1233  39.2862 N.am           1 RES1               0.0000
      9 O9          18.8908  12.1147  39.5258 O.2            1 RES1               0.0000
     10 N10         20.7621   9.3974  37.2395 N.am           1 RES1               0.0000
     11 O11         20.2257  10.3770  35.2885 O.2            1 RES1               0.0000
     12 C12         21.3791  12.9532  37.1141 C.3            1 RES1               0.0000
     13 C13         15.5641  11.9793  36.7825 C.ar           1 RES1               0.0000
     14 C14         16.1284   9.8873  35.7904 C.ar           1 RES1               0.0000
     15 C15         20.6644   9.2067  38.5909 C.2            1 RES1               0.0000
     16 C16         15.1846  10.8436  36.0994 C.ar           1 RES1               0.0000
     17 O17         21.2134   8.2726  39.1680 O.2            1 RES1               0.0000
     18 H18         19.6557  13.0177  35.8432 H              1 RES1               0.0000
     19 H19         19.3650  13.5714  37.5019 H              1 RES1               0.0000
     20 H20         17.1653  13.0583  37.6947 H              1 RES1               0.0000
     21 H21         18.1757   9.2992  35.9094 H              1 RES1               0.0000
     22 H22         19.7584   9.9332  40.2706 H              1 RES1               0.0000
     23 H23         21.3562   8.7529  36.7276 H              1 RES1               0.0000
     24 H24         21.7179  13.9503  36.8407 H              1 RES1               0.0000
     25 H25         21.6355  12.7825  38.1576 H              1 RES1               0.0000
     26 H26         21.9245  12.2321  36.5088 H              1 RES1               0.0000
     27 H27         14.8250  12.7343  37.0293 H              1 RES1               0.0000
     28 H28         15.8341   8.9915  35.2534 H              1 RES1               0.0000
     29 H29         14.1493  10.7030  35.8070 H              1 RES1               0.0000
@<TRIPOS>BOND
    1    1    2 1     
    2    1    3 1     
    3    1    4 1     
    4    1    5 1     
    5    2    6 ar    
    6    2    7 ar    
    7    3    8 1     
    8    3    9 2     
    9    4   10 1     
   10    4   11 2     
   11    5   12 1     
   12    5   18 1     
   13    5   19 1     
   14    6   13 ar    
   15    6   20 1     
   16    7   14 ar    
   17    7   21 1     
   18    8   15 1     
   19    8   22 1     
   20   10   15 1     
   21   10   23 1     
   22   12   24 1     
   23   12   25 1     
   24   12   26 1     
   25   13   16 ar    
   26   13   27 1     
   27   14   16 ar    
   28   14   28 1     
   29   15   17 2     
   30   16   29 1     
@<TRIPOS>SUBSTRUCTURE
      1 RES1           1
@<TRIPOS>SET
DONOR_HYDROGENS      STATIC     ATOMS    <user>   **** ""
2 22 23
ATOM$RED        STATIC     ATOMS    COLORGROUP SYSTEM
2 22 23
@<TRIPOS>COMMENT
> <Gold.Version>
2022.3.0

> <Gold.Id.Protein>
unknown|3mvj_clean|pdb

> <Gold.Protein.RotatedTorsions>
[ 10968 10947 10946 10944 ] final -104.21 input   60.01 | X-H torsion
[ 10728 10707 10706 10704 ] final -177.09 input   59.96 | X-H torsion
[ 10960 10936 10937 10938 ] final   68.81 input   23.31 | X-H torsion
[ 12067 12045 12046 12047 ] final    0.94 input   63.71 | X-H torsion
[ 15542 15533 15534 15535 ] final  138.76 input   83.29 | X-H torsion
[ 15588 15579 15580 15581 ] final   37.99 input  107.67 | X-H torsion
[ 15633 15624 15625 15626 ] final -101.58 input   84.82 | X-H torsion
[ 10915 10907 10908 10909 ] final  -60.13 input  -87.38 | X-H torsion
[ 6151 6129 6130 6131 ] final    4.55 input   27.76 | X-H torsion
[ 6109 6101 6102 6103 ] final   41.67 input  -93.79 | X-H torsion
[ 5929 5907 5908 5909 ] final -171.08 input  119.25 | X-H torsion
[ 6001 5979 5980 5981 ] final -106.33 input  112.51 | X-H torsion
[ 6064 6048 6049 6050 ] final   99.02 input  108.26 | X-H torsion
[ 11206 11196 11197 11198 ] final  106.80 input   -0.63 | X-H torsion
[ 11245 11229 11230 11231 ] final  102.82 input  120.69 | X-H torsion
[ 11164 11142 11143 11144 ] final   75.20 input   33.88 | X-H torsion
[ 11104 11082 11083 11084 ] final -103.63 input   45.00 | X-H torsion
[ 11284 11266 11267 11268 ] final   23.38 input   49.58 | X-H torsion
[ 9439 9421 9422 9423 ] final   47.91 input  116.39 | X-H torsion
[ 11482 11466 11467 11468 ] final   57.63 input  126.08 | X-H torsion
[ 11374 11358 11359 11360 ] final    8.61 input   98.08 | X-H torsion
[ 11559 11538 11537 11535 ] final   89.16 input   60.01 | X-H torsion
[ 9349 9335 9336 9337 ] final   29.75 input   84.14 | X-H torsion
[ 9355 9341 9339 9336 ] final   -0.30 input   60.02 | X-H torsion
[ 9493 9469 9470 9471 ] final  -31.14 input   75.21 | X-H torsion
[ 7840 7822 7823 7824 ] final  107.79 input  121.36 | X-H torsion
[ 7742 7722 7721 7720 ] final  130.84 input   60.01 | X-H torsion
[ 5728 5706 5707 5708 ] final   70.05 input  119.20 | X-H torsion
[ 5773 5761 5762 5763 ] final  105.23 input  120.20 | X-H torsion
[ 5777 5766 5765 5762 ] final  167.33 input   59.99 | X-H torsion
[ 7882 7866 7867 7868 ] final  -33.70 input   81.17 | X-H torsion
[ 9501 9480 9479 9477 ] final   45.06 input   60.03 | X-H torsion
[ 7732 7714 7715 7716 ] final   44.65 input  -10.67 | X-H torsion
[ 15083 15054 15053 15052 ] final   -5.64 input   60.01 | X-H torsion
[ 9319 9311 9312 9313 ] final  -23.39 input  -66.31 | X-H torsion
[ 15194 15161 15160 15159 ] final   13.93 input   59.99 | X-H torsion
[ 15326 15310 15309 15306 ] final -139.36 input   59.99 | X-H torsion
[ 9292 9280 9281 9282 ] final  162.34 input   22.77 | X-H torsion
[ 7636 7620 7621 7622 ] final -141.41 input   34.37 | X-H torsion
[ 9241 9225 9226 9227 ] final   20.48 input   96.07 | X-H torsion
[ 9544 9528 9529 9530 ] final -132.06 input   99.68 | X-H torsion
[ 3443 3412 3413 3414 ] final -173.78 input -120.58 | X-H torsion
[ 3504 3478 3479 3480 ] final    7.61 input   70.69 | X-H torsion
[ 9190 9168 9169 9170 ] final   13.24 input  115.65 | X-H torsion
[ 9198 9178 9175 9174 ] final -177.50 input   59.98 | X-H torsion
[ 6282 6255 6254 6251 ] final   10.93 input   60.00 | X-H torsion
[ 9196 9176 9175 9174 ] final   61.30 input   60.01 | X-H torsion
[ 12157 12142 12143 12144 ] final  109.98 input  108.55 | X-H torsion
[ 11995 11973 11974 11975 ] final   85.24 input   68.31 | X-H torsion
[ 11434 11416 11417 11418 ] final  -11.50 input  102.35 | X-H torsion
[ 5626 5608 5609 5610 ] final -149.47 input  119.09 | X-H torsion
[ 10774 10756 10757 10758 ] final  147.43 input  129.22 | X-H torsion
[ 10816 10800 10801 10802 ] final  151.33 input  128.85 | X-H torsion
[ 8641 8619 8620 8621 ] final  116.84 input   87.35 | X-H torsion
[ 3659 3632 3633 3634 ] final  148.91 input  116.97 | X-H torsion
[ 10029 10008 10007 10005 ] final   40.21 input   60.01 | X-H torsion
[ 16458 15536 15535 15534 ] final  -39.48 input    0.00 | X-H torsion
[ 16468 10881 10880 10879 ] final   77.43 input    0.00 | X-H torsion
[ 16470 10910 10909 10908 ] final -152.02 input    0.00 | X-H torsion
[ 16473 10997 10996 10995 ] final  134.80 input    0.00 | X-H torsion
[ 16475 11976 11975 11974 ] final   44.91 input    0.00 | X-H torsion
[ 16477 12048 12047 12046 ] final  -83.13 input    0.00 | X-H torsion
[ 16480 10939 10938 10937 ] final  136.07 input   -0.00 | X-H torsion
[ 16483 11039 11038 11037 ] final -131.15 input    0.00 | X-H torsion
[ 16492 15582 15581 15580 ] final -124.15 input    0.00 | X-H torsion
[ 16496 6104 6103 6102 ] final   34.74 input    0.00 | X-H torsion
[ 16499 5910 5909 5908 ] final  145.44 input   -0.00 | X-H torsion
[ 16502 5850 5849 5848 ] final   90.35 input    0.00 | X-H torsion
[ 16505 6051 6050 6049 ] final  178.21 input    0.00 | X-H torsion
[ 16507 5982 5981 5980 ] final  -21.52 input    0.00 | X-H torsion
[ 16511 11145 11144 11143 ] final  -69.20 input    0.00 | X-H torsion
[ 16514 11199 11198 11197 ] final  -10.18 input    0.00 | X-H torsion
[ 16530 11085 11084 11083 ] final  163.57 input   -0.00 | X-H torsion
[ 16538 11232 11231 11230 ] final  -29.97 input    0.00 | X-H torsion
[ 16549 11269 11268 11267 ] final -138.32 input   -0.00 | X-H torsion
[ 16552 11318 11317 11316 ] final -138.39 input    0.00 | X-H torsion
[ 16558 9314 9313 9312 ] final  -27.28 input    0.00 | X-H torsion
[ 16561 9338 9337 9336 ] final   78.14 input    0.00 | X-H torsion
[ 16565 9380 9379 9378 ] final   18.98 input    0.00 | X-H torsion
[ 16570 5709 5708 5707 ] final  -85.07 input    0.00 | X-H torsion
[ 16575 7825 7824 7823 ] final  -58.39 input    0.00 | X-H torsion
[ 16583 7781 7780 7779 ] final  135.62 input   -0.00 | X-H torsion
[ 16593 9424 9423 9422 ] final   -8.07 input   -0.00 | X-H torsion
[ 16597 7659 7658 7657 ] final -176.72 input   -0.00 | X-H torsion
[ 16599 7717 7716 7715 ] final   32.87 input    0.00 | X-H torsion
[ 16602 10532 10531 10530 ] final -134.55 input    0.00 | X-H torsion
[ 16611 7554 7553 7552 ] final  -31.88 input    0.00 | X-H torsion
[ 16613 7623 7622 7621 ] final -169.76 input   -0.00 | X-H torsion
[ 16616 9283 9282 9281 ] final -159.93 input    0.00 | X-H torsion
[ 16618 9228 9227 9226 ] final   24.26 input   -0.00 | X-H torsion
[ 16636 3357 3356 3355 ] final  115.66 input   -0.00 | X-H torsion
[ 16638 3415 3414 3413 ] final -174.02 input   -0.00 | X-H torsion
[ 16646 9102 9101 9100 ] final   -2.40 input    0.00 | X-H torsion

> <Gold.Protein.ActiveResidues>
 ARG45   SER53   PHE54   LEU82   LYS83   GLN84   GLU86   HIS87   GLU127  PHE129 
 SER130  HIS131  LEU132  ARG133  ARG134  ILE135  GLY136  ARG137  PHE138  SER139 
 HIS142  ARG165  ASP166  LEU167  LYS168  PRO169  GLU170  ASN171  ASP184  GLY186 
 PHE187  TRP196  TPO197  LEU198  CYS199  GLY200  THR201  PRO202  GLU203  TYR204 
 LEU205  ILE209  ILE210  TYR215  VAL226  LEU227  TYR229  GLU230  MET231  ALA233 
 GLY234  TYR235  PRO236  PRO237  PHE238  PHE239  ALA240  ASP241  GLN242  PRO243 
 ILE244  GLN245  ILE246  TYR247  LYS249  ARG256  PHE257  PRO258  SER259  HIS260 
 PRO313  PHE314  ILE315  LYS317  LYS319  SER325  ASN326  ASP328  ASP329  GLU331 
 GLU332  GLU333  GLU334 

> <Gold.Protein.RotatedAtoms>
   24.3268   23.4786   36.7775 H   0  0  0  0  0  0  0  0  0  0  0  0  # atno 3443 bound_to 3412
   24.7468   22.6358   40.2016 H   0  0  0  0  0  0  0  0  0  0  0  0  # atno 3504 bound_to 3478
   22.6829   19.8131   44.7530 H   0  0  0  0  0  0  0  0  0  0  0  0  # atno 3659 bound_to 3632
   35.8323   -0.3593   42.7905 H   0  0  0  0  0  0  0  0  0  0  0  0  # atno 5626 bound_to 5608
   30.9107   -1.6290   40.7792 H   0  0  0  0  0  0  0  0  0  0  0  0  # atno 5728 bound_to 5706
   31.9090   -2.1823   39.1626 H   0  0  0  0  0  0  0  0  0  0  0  0  # atno 5773 bound_to 5761
   35.0982   -1.5775   36.7734 H   0  0  0  0  0  0  0  0  0  0  0  0  # atno 5777 bound_to 5766
   28.5527   -6.1186   37.1931 H   0  0  0  0  0  0  0  0  0  0  0  0  # atno 5929 bound_to 5907
   30.7278   -7.5784   34.4861 H   0  0  0  0  0  0  0  0  0  0  0  0  # atno 6001 bound_to 5979
   31.5820   -9.6749   37.0089 H   0  0  0  0  0  0  0  0  0  0  0  0  # atno 6064 bound_to 6048
   29.4976  -11.6109   36.8340 H   0  0  0  0  0  0  0  0  0  0  0  0  # atno 6109 bound_to 6101
   27.7422  -12.9460   37.7064 H   0  0  0  0  0  0  0  0  0  0  0  0  # atno 6151 bound_to 6129
    9.7091   24.3225   35.3859 H   0  0  0  0  0  0  0  0  0  0  0  0  # atno 6282 bound_to 6255
   18.5487    7.3256   46.4141 H   0  0  0  0  0  0  0  0  0  0  0  0  # atno 7636 bound_to 7620
   22.9582    2.4798   44.7458 H   0  0  0  0  0  0  0  0  0  0  0  0  # atno 7732 bound_to 7714
   23.4540    6.6248   41.4985 H   0  0  0  0  0  0  0  0  0  0  0  0  # atno 7742 bound_to 7722
   22.2287    6.7757   40.3931 H   0  0  0  0  0  0  0  0  0  0  0  0  # atno 7743 bound_to 7722
   22.0752    5.7191   41.6611 H   0  0  0  0  0  0  0  0  0  0  0  0  # atno 7744 bound_to 7722
   25.4011    1.2870   41.0348 H   0  0  0  0  0  0  0  0  0  0  0  0  # atno 7840 bound_to 7822
   27.6743    2.2603   42.8263 H   0  0  0  0  0  0  0  0  0  0  0  0  # atno 7882 bound_to 7866
   22.6638   12.4346   46.3088 H   0  0  0  0  0  0  0  0  0  0  0  0  # atno 8641 bound_to 8619
   10.3459   14.2679   45.7726 H   0  0  0  0  0  0  0  0  0  0  0  0  # atno 9190 bound_to 9168
   11.6700   18.4981   47.5378 H   0  0  0  0  0  0  0  0  0  0  0  0  # atno 9196 bound_to 9176
   14.8574   16.8397   48.1322 H   0  0  0  0  0  0  0  0  0  0  0  0  # atno 9198 bound_to 9178
   12.3857   14.8526   42.3202 H   0  0  0  0  0  0  0  0  0  0  0  0  # atno 9241 bound_to 9225
   13.6837   12.7683   42.0308 H   0  0  0  0  0  0  0  0  0  0  0  0  # atno 9292 bound_to 9280
   17.0955   10.4585   40.0959 H   0  0  0  0  0  0  0  0  0  0  0  0  # atno 9319 bound_to 9311
   17.4590    6.3741   40.4322 H   0  0  0  0  0  0  0  0  0  0  0  0  # atno 9349 bound_to 9335
   20.4576    6.7203   38.6573 H   0  0  0  0  0  0  0  0  0  0  0  0  # atno 9355 bound_to 9341
   16.5213    2.9878   37.4456 H   0  0  0  0  0  0  0  0  0  0  0  0  # atno 9439 bound_to 9421
   14.8948    1.9343   39.0490 H   0  0  0  0  0  0  0  0  0  0  0  0  # atno 9493 bound_to 9469
   21.3729   -2.2634   41.0292 H   0  0  0  0  0  0  0  0  0  0  0  0  # atno 9501 bound_to 9480
   14.7702    3.2630   41.2526 H   0  0  0  0  0  0  0  0  0  0  0  0  # atno 9544 bound_to 9528
   12.3985   12.5023   45.9025 H   0  0  0  0  0  0  0  0  0  0  0  0  # atno 10029 bound_to 10008
   13.2736  -11.1006   37.5795 H   0  0  0  0  0  0  0  0  0  0  0  0  # atno 10728 bound_to 10707
   18.4889   -6.8324   41.1816 H   0  0  0  0  0  0  0  0  0  0  0  0  # atno 10774 bound_to 10756
   21.7150   -7.0705   42.3207 H   0  0  0  0  0  0  0  0  0  0  0  0  # atno 10816 bound_to 10800
   21.6534  -10.3134   38.4402 H   0  0  0  0  0  0  0  0  0  0  0  0  # atno 10915 bound_to 10907
   20.5330   -9.8438   36.4594 H   0  0  0  0  0  0  0  0  0  0  0  0  # atno 10960 bound_to 10936
   16.8849  -13.6765   35.6407 H   0  0  0  0  0  0  0  0  0  0  0  0  # atno 10968 bound_to 10947
   13.5418   -5.7259   36.3112 H   0  0  0  0  0  0  0  0  0  0  0  0  # atno 11104 bound_to 11082
   13.6284   -4.7480   33.1599 H   0  0  0  0  0  0  0  0  0  0  0  0  # atno 11164 bound_to 11142
   13.9983   -1.8747   30.7662 H   0  0  0  0  0  0  0  0  0  0  0  0  # atno 11206 bound_to 11196
   13.5004   -0.9555   26.3207 H   0  0  0  0  0  0  0  0  0  0  0  0  # atno 11245 bound_to 11229
   13.5853    1.4029   27.4826 H   0  0  0  0  0  0  0  0  0  0  0  0  # atno 11284 bound_to 11266
   11.1962    4.1953   29.7229 H   0  0  0  0  0  0  0  0  0  0  0  0  # atno 11374 bound_to 11358
    9.7753    3.2235   30.5247 H   0  0  0  0  0  0  0  0  0  0  0  0  # atno 11434 bound_to 11416
   10.3239    2.1647   31.1419 H   0  0  0  0  0  0  0  0  0  0  0  0  # atno 11482 bound_to 11466
   13.3079    7.7834   33.8436 H   0  0  0  0  0  0  0  0  0  0  0  0  # atno 11559 bound_to 11538
    9.5268  -10.4615   36.9476 H   0  0  0  0  0  0  0  0  0  0  0  0  # atno 11995 bound_to 11973
   10.8600  -14.5163   37.4457 H   0  0  0  0  0  0  0  0  0  0  0  0  # atno 12067 bound_to 12045
   15.4182  -18.7942   36.3396 H   0  0  0  0  0  0  0  0  0  0  0  0  # atno 12157 bound_to 12142
   27.2009   15.2771   33.7897 H   0  0  0  0  0  0  0  0  0  0  0  0  # atno 15083 bound_to 15054
   26.1510   16.0969   34.7762 H   0  0  0  0  0  0  0  0  0  0  0  0  # atno 15084 bound_to 15054
   26.6933   14.5921   35.2105 H   0  0  0  0  0  0  0  0  0  0  0  0  # atno 15085 bound_to 15054
   31.1463   11.7299   30.5580 H   0  0  0  0  0  0  0  0  0  0  0  0  # atno 15194 bound_to 15161
   31.9269   10.4634   31.2894 H   0  0  0  0  0  0  0  0  0  0  0  0  # atno 15195 bound_to 15161
   32.7090   11.9100   31.0786 H   0  0  0  0  0  0  0  0  0  0  0  0  # atno 15196 bound_to 15161
   28.0241   10.8124   26.2750 H   0  0  0  0  0  0  0  0  0  0  0  0  # atno 15326 bound_to 15310
    8.9324  -11.5876   26.2625 H   0  0  0  0  0  0  0  0  0  0  0  0  # atno 15542 bound_to 15533
    8.1544  -15.4604   27.3263 H   0  0  0  0  0  0  0  0  0  0  0  0  # atno 15588 bound_to 15579
    9.4090  -17.6311   28.8389 H   0  0  0  0  0  0  0  0  0  0  0  0  # atno 15633 bound_to 15624
   11.4357  -14.9218   27.0131 LP  0  0  0  0  0  0  0  0  0  0  0  0  # atno 16458 bound_to 15536
   11.0703  -14.8165   28.7029 LP  0  0  0  0  0  0  0  0  0  0  0  0  # atno 16459 bound_to 15536
   16.8842  -13.8583   34.0238 LP  0  0  0  0  0  0  0  0  0  0  0  0  # atno 16460 bound_to 10947
   15.7029  -12.9978   34.7522 LP  0  0  0  0  0  0  0  0  0  0  0  0  # atno 16461 bound_to 10947
   14.7324  -11.5866   37.0468 LP  0  0  0  0  0  0  0  0  0  0  0  0  # atno 16466 bound_to 10707
   14.1227  -10.1491   36.5687 LP  0  0  0  0  0  0  0  0  0  0  0  0  # atno 16467 bound_to 10707
   20.7171  -12.6121   35.7559 LP  0  0  0  0  0  0  0  0  0  0  0  0  # atno 16468 bound_to 10881
   22.1394  -13.3341   36.4309 LP  0  0  0  0  0  0  0  0  0  0  0  0  # atno 16469 bound_to 10881
   22.4853   -7.6969   34.7626 LP  0  0  0  0  0  0  0  0  0  0  0  0  # atno 16470 bound_to 10910
   23.4682   -9.0870   34.4441 LP  0  0  0  0  0  0  0  0  0  0  0  0  # atno 16471 bound_to 10910
   21.9264   -8.7946   36.5388 LP  0  0  0  0  0  0  0  0  0  0  0  0  # atno 16472 bound_to 10936
   15.5509   -7.4658   35.6761 LP  0  0  0  0  0  0  0  0  0  0  0  0  # atno 16473 bound_to 10997
   16.3695   -6.0976   34.9995 LP  0  0  0  0  0  0  0  0  0  0  0  0  # atno 16474 bound_to 10997
   11.4408  -10.9876   38.0842 LP  0  0  0  0  0  0  0  0  0  0  0  0  # atno 16475 bound_to 11976
   12.6726  -12.0702   37.5270 LP  0  0  0  0  0  0  0  0  0  0  0  0  # atno 16476 bound_to 11976
   12.2048  -17.0207   37.9407 LP  0  0  0  0  0  0  0  0  0  0  0  0  # atno 16477 bound_to 12048
   12.2992  -16.0978   36.4781 LP  0  0  0  0  0  0  0  0  0  0  0  0  # atno 16478 bound_to 12048
   18.6748   -7.7603   38.4234 LP  0  0  0  0  0  0  0  0  0  0  0  0  # atno 16480 bound_to 10939
   18.6255   -9.1368   37.3733 LP  0  0  0  0  0  0  0  0  0  0  0  0  # atno 16481 bound_to 10939
   11.9355   -6.6352   35.3942 LP  0  0  0  0  0  0  0  0  0  0  0  0  # atno 16483 bound_to 11039
   11.5119   -6.9773   37.0385 LP  0  0  0  0  0  0  0  0  0  0  0  0  # atno 16484 bound_to 11039
   10.6088  -13.3156   38.6889 LP  0  0  0  0  0  0  0  0  0  0  0  0  # atno 16485 bound_to 12045
    8.0775  -12.3713   27.5703 LP  0  0  0  0  0  0  0  0  0  0  0  0  # atno 16490 bound_to 15533
    8.8570  -14.1671   28.2792 LP  0  0  0  0  0  0  0  0  0  0  0  0  # atno 16491 bound_to 15579
    8.4138  -18.4892   27.2723 LP  0  0  0  0  0  0  0  0  0  0  0  0  # atno 16492 bound_to 15582
    9.2886  -17.0683   26.8076 LP  0  0  0  0  0  0  0  0  0  0  0  0  # atno 16493 bound_to 15582
    9.6929  -18.1107   30.4978 LP  0  0  0  0  0  0  0  0  0  0  0  0  # atno 16494 bound_to 15624
   21.7837  -11.8928   37.6957 LP  0  0  0  0  0  0  0  0  0  0  0  0  # atno 16495 bound_to 10907
   25.3737  -10.4216   35.8857 LP  0  0  0  0  0  0  0  0  0  0  0  0  # atno 16496 bound_to 6104
   25.4532  -10.3238   37.6131 LP  0  0  0  0  0  0  0  0  0  0  0  0  # atno 16497 bound_to 6104
   26.5366  -12.0070   36.8596 LP  0  0  0  0  0  0  0  0  0  0  0  0  # atno 16498 bound_to 6129
   30.3113   -9.0918   33.1623 LP  0  0  0  0  0  0  0  0  0  0  0  0  # atno 16499 bound_to 5910
   28.7670   -9.0991   33.9464 LP  0  0  0  0  0  0  0  0  0  0  0  0  # atno 16500 bound_to 5910
   29.6431  -10.6111   35.4122 LP  0  0  0  0  0  0  0  0  0  0  0  0  # atno 16501 bound_to 6101
   27.7967   -9.0990   36.9975 LP  0  0  0  0  0  0  0  0  0  0  0  0  # atno 16502 bound_to 5850
   29.4900   -9.4628   36.9704 LP  0  0  0  0  0  0  0  0  0  0  0  0  # atno 16503 bound_to 5850
   29.9785   -7.1263   37.2326 LP  0  0  0  0  0  0  0  0  0  0  0  0  # atno 16504 bound_to 5907
   28.6187  -13.6272   36.0307 LP  0  0  0  0  0  0  0  0  0  0  0  0  # atno 16505 bound_to 6051
   30.1530  -14.1132   36.6709 LP  0  0  0  0  0  0  0  0  0  0  0  0  # atno 16506 bound_to 6051
   32.2759  -11.1470   33.4211 LP  0  0  0  0  0  0  0  0  0  0  0  0  # atno 16507 bound_to 5982
   32.3636  -12.2234   34.7753 LP  0  0  0  0  0  0  0  0  0  0  0  0  # atno 16508 bound_to 5982
   31.3348   -7.6652   36.1259 LP  0  0  0  0  0  0  0  0  0  0  0  0  # atno 16509 bound_to 5979
   32.1108  -10.4339   35.5248 LP  0  0  0  0  0  0  0  0  0  0  0  0  # atno 16510 bound_to 6048
   13.1995   -4.8859   30.5124 LP  0  0  0  0  0  0  0  0  0  0  0  0  # atno 16511 bound_to 11145
   12.0508   -3.5912   30.4461 LP  0  0  0  0  0  0  0  0  0  0  0  0  # atno 16512 bound_to 11145
   15.2073   -2.8430   29.9391 LP  0  0  0  0  0  0  0  0  0  0  0  0  # atno 16513 bound_to 11196
   15.6105   -0.4386   29.5858 LP  0  0  0  0  0  0  0  0  0  0  0  0  # atno 16514 bound_to 11199
   16.2692    0.1953   28.1146 LP  0  0  0  0  0  0  0  0  0  0  0  0  # atno 16515 bound_to 11199
   14.7808   -1.0007   27.5176 LP  0  0  0  0  0  0  0  0  0  0  0  0  # atno 16516 bound_to 11229
   13.1670   -3.1949   33.8024 LP  0  0  0  0  0  0  0  0  0  0  0  0  # atno 16525 bound_to 11142
   15.1616   -2.0967   34.1612 LP  0  0  0  0  0  0  0  0  0  0  0  0  # atno 16530 bound_to 11085
   14.2135   -1.8895   35.5959 LP  0  0  0  0  0  0  0  0  0  0  0  0  # atno 16531 bound_to 11085
   13.9352   -4.2316   37.1333 LP  0  0  0  0  0  0  0  0  0  0  0  0  # atno 16533 bound_to 11082
   17.0447    2.0914   26.1801 LP  0  0  0  0  0  0  0  0  0  0  0  0  # atno 16538 bound_to 11232
   16.0069    3.4764   26.1112 LP  0  0  0  0  0  0  0  0  0  0  0  0  # atno 16539 bound_to 11232
   14.6455    1.9471   26.1932 LP  0  0  0  0  0  0  0  0  0  0  0  0  # atno 16542 bound_to 11266
   15.3663    2.8631   36.1445 LP  0  0  0  0  0  0  0  0  0  0  0  0  # atno 16548 bound_to 9421
   11.6985    3.1133   29.7861 LP  0  0  0  0  0  0  0  0  0  0  0  0  # atno 16549 bound_to 11269
   12.6146    1.8597   29.0184 LP  0  0  0  0  0  0  0  0  0  0  0  0  # atno 16550 bound_to 11269
   10.5002    3.4560   31.9933 LP  0  0  0  0  0  0  0  0  0  0  0  0  # atno 16552 bound_to 11318
   11.6002    4.4021   32.9393 LP  0  0  0  0  0  0  0  0  0  0  0  0  # atno 16553 bound_to 11318
   10.4351    0.4843   30.6606 LP  0  0  0  0  0  0  0  0  0  0  0  0  # atno 16554 bound_to 11466
   11.3776    5.8669   30.1648 LP  0  0  0  0  0  0  0  0  0  0  0  0  # atno 16555 bound_to 11358
   13.1620    7.8745   35.4615 LP  0  0  0  0  0  0  0  0  0  0  0  0  # atno 16556 bound_to 11538
   12.4045    8.9623   34.5078 LP  0  0  0  0  0  0  0  0  0  0  0  0  # atno 16557 bound_to 11538
   16.9032    9.3937   38.7331 LP  0  0  0  0  0  0  0  0  0  0  0  0  # atno 16558 bound_to 9314
   17.8945    8.3054   37.8205 LP  0  0  0  0  0  0  0  0  0  0  0  0  # atno 16559 bound_to 9314
   18.6252    7.5554   39.8875 LP  0  0  0  0  0  0  0  0  0  0  0  0  # atno 16560 bound_to 9335
   15.8941    5.2294   39.8330 LP  0  0  0  0  0  0  0  0  0  0  0  0  # atno 16561 bound_to 9338
   16.4472    3.7233   39.1805 LP  0  0  0  0  0  0  0  0  0  0  0  0  # atno 16562 bound_to 9338
   21.2491    5.4763   37.9681 LP  0  0  0  0  0  0  0  0  0  0  0  0  # atno 16563 bound_to 9341
   21.1037    5.5555   39.5926 LP  0  0  0  0  0  0  0  0  0  0  0  0  # atno 16564 bound_to 9341
   13.0588    3.6647   37.6600 LP  0  0  0  0  0  0  0  0  0  0  0  0  # atno 16565 bound_to 9380
   13.8092    2.2256   38.2648 LP  0  0  0  0  0  0  0  0  0  0  0  0  # atno 16566 bound_to 9380
   16.6388    1.7870   39.0281 LP  0  0  0  0  0  0  0  0  0  0  0  0  # atno 16567 bound_to 9469
   29.6040   -4.7684   37.9942 LP  0  0  0  0  0  0  0  0  0  0  0  0  # atno 16570 bound_to 5709
   29.4544   -3.5935   36.7304 LP  0  0  0  0  0  0  0  0  0  0  0  0  # atno 16571 bound_to 5709
   26.7355    0.3922   41.7187 LP  0  0  0  0  0  0  0  0  0  0  0  0  # atno 16574 bound_to 7822
   29.6857    3.2728   41.7087 LP  0  0  0  0  0  0  0  0  0  0  0  0  # atno 16575 bound_to 7825
   28.7820    4.6884   42.1323 LP  0  0  0  0  0  0  0  0  0  0  0  0  # atno 16576 bound_to 7825
   29.6883   -2.6946   41.4246 LP  0  0  0  0  0  0  0  0  0  0  0  0  # atno 16579 bound_to 5706
   30.5641   -2.7727   38.2133 LP  0  0  0  0  0  0  0  0  0  0  0  0  # atno 16580 bound_to 5761
   33.5200   -1.4205   36.4107 LP  0  0  0  0  0  0  0  0  0  0  0  0  # atno 16581 bound_to 5766
   34.3910   -2.6429   35.7675 LP  0  0  0  0  0  0  0  0  0  0  0  0  # atno 16582 bound_to 5766
   28.7000    0.3121   41.9269 LP  0  0  0  0  0  0  0  0  0  0  0  0  # atno 16583 bound_to 7781
   28.0769    0.0404   43.5200 LP  0  0  0  0  0  0  0  0  0  0  0  0  # atno 16584 bound_to 7781
   26.2015    3.1686   42.5563 LP  0  0  0  0  0  0  0  0  0  0  0  0  # atno 16585 bound_to 7866
   14.4572   -0.8717   38.5080 LP  0  0  0  0  0  0  0  0  0  0  0  0  # atno 16593 bound_to 9424
   14.8009   -0.3930   40.1368 LP  0  0  0  0  0  0  0  0  0  0  0  0  # atno 16594 bound_to 9424
   20.0420   -3.1998   41.0273 LP  0  0  0  0  0  0  0  0  0  0  0  0  # atno 16595 bound_to 9480
   20.6644   -2.6635   42.4385 LP  0  0  0  0  0  0  0  0  0  0  0  0  # atno 16596 bound_to 9480
   20.3658    2.1660   42.9563 LP  0  0  0  0  0  0  0  0  0  0  0  0  # atno 16597 bound_to 7659
   19.4696    3.1212   44.0896 LP  0  0  0  0  0  0  0  0  0  0  0  0  # atno 16598 bound_to 7659
   24.5318    1.8043   44.6912 LP  0  0  0  0  0  0  0  0  0  0  0  0  # atno 16599 bound_to 7717
   25.7385    1.5009   43.4863 LP  0  0  0  0  0  0  0  0  0  0  0  0  # atno 16600 bound_to 7717
   21.4976    1.5554   45.0198 LP  0  0  0  0  0  0  0  0  0  0  0  0  # atno 16601 bound_to 7714
   18.6941   -5.8901   42.5857 LP  0  0  0  0  0  0  0  0  0  0  0  0  # atno 16602 bound_to 10532
   17.9528   -4.9102   41.3649 LP  0  0  0  0  0  0  0  0  0  0  0  0  # atno 16603 bound_to 10532
   16.7486   10.3887   41.8065 LP  0  0  0  0  0  0  0  0  0  0  0  0  # atno 16604 bound_to 9311
   26.6746   11.6030   26.7254 LP  0  0  0  0  0  0  0  0  0  0  0  0  # atno 16607 bound_to 15310
   27.1186   11.5694   25.1543 LP  0  0  0  0  0  0  0  0  0  0  0  0  # atno 16608 bound_to 15310
   17.0825    8.1886   44.9842 LP  0  0  0  0  0  0  0  0  0  0  0  0  # atno 16611 bound_to 7554
   18.7605    8.2399   44.5580 LP  0  0  0  0  0  0  0  0  0  0  0  0  # atno 16612 bound_to 7554
   22.2420    4.0992   44.5004 LP  0  0  0  0  0  0  0  0  0  0  0  0  # atno 16613 bound_to 7623
   22.3612    5.7994   44.1919 LP  0  0  0  0  0  0  0  0  0  0  0  0  # atno 16614 bound_to 7623
   13.4578   11.0501   41.9152 LP  0  0  0  0  0  0  0  0  0  0  0  0  # atno 16615 bound_to 9280
   15.8902    8.5397   42.6130 LP  0  0  0  0  0  0  0  0  0  0  0  0  # atno 16616 bound_to 9283
   14.4263    9.4565   42.4844 LP  0  0  0  0  0  0  0  0  0  0  0  0  # atno 16617 bound_to 9283
   13.6823   14.7252   40.6385 LP  0  0  0  0  0  0  0  0  0  0  0  0  # atno 16618 bound_to 9228
   14.9723   13.6184   40.3055 LP  0  0  0  0  0  0  0  0  0  0  0  0  # atno 16619 bound_to 9228
   19.6904    6.4696   47.4102 LP  0  0  0  0  0  0  0  0  0  0  0  0  # atno 16620 bound_to 7620
   10.8106   14.2193   42.7285 LP  0  0  0  0  0  0  0  0  0  0  0  0  # atno 16628 bound_to 9225
   13.5455    2.4932   40.2720 LP  0  0  0  0  0  0  0  0  0  0  0  0  # atno 16635 bound_to 9528
   24.0179   20.1300   37.9534 LP  0  0  0  0  0  0  0  0  0  0  0  0  # atno 16636 bound_to 3357
   23.2778   20.1941   36.3887 LP  0  0  0  0  0  0  0  0  0  0  0  0  # atno 16637 bound_to 3357
   22.4368   20.6467   40.8655 LP  0  0  0  0  0  0  0  0  0  0  0  0  # atno 16638 bound_to 3415
   21.4336   21.3733   39.6549 LP  0  0  0  0  0  0  0  0  0  0  0  0  # atno 16639 bound_to 3415
   24.9294   22.0468   37.5806 LP  0  0  0  0  0  0  0  0  0  0  0  0  # atno 16640 bound_to 3412
   24.1733   21.3214   39.1976 LP  0  0  0  0  0  0  0  0  0  0  0  0  # atno 16641 bound_to 3478
    7.9459   14.3619   43.9693 LP  0  0  0  0  0  0  0  0  0  0  0  0  # atno 16646 bound_to 9102
    9.5299   14.6080   43.3132 LP  0  0  0  0  0  0  0  0  0  0  0  0  # atno 16647 bound_to 9102
   10.2398   16.0041   45.9114 LP  0  0  0  0  0  0  0  0  0  0  0  0  # atno 16648 bound_to 9168
   14.9855   17.6862   46.7484 LP  0  0  0  0  0  0  0  0  0  0  0  0  # atno 16649 bound_to 9178
   14.8705   16.0578   46.7053 LP  0  0  0  0  0  0  0  0  0  0  0  0  # atno 16650 bound_to 9178
   10.9746   23.8045   36.2678 LP  0  0  0  0  0  0  0  0  0  0  0  0  # atno 16654 bound_to 6255
   10.0652   25.0543   36.7949 LP  0  0  0  0  0  0  0  0  0  0  0  0  # atno 16655 bound_to 6255
   13.1510   19.0759   47.1885 LP  0  0  0  0  0  0  0  0  0  0  0  0  # atno 16656 bound_to 9176
   12.8596   18.3954   48.6440 LP  0  0  0  0  0  0  0  0  0  0  0  0  # atno 16657 bound_to 9176

> <Gold.Score>
     Fitness  S(hb_ext) S(vdw_ext)  S(hb_int)    S(int)      intcor
     31.52       6.39      19.52       0.00      -1.71      -0.76

> <Gold.Goldscore.Fitness>
31.5216

> <Gold.Goldscore.Internal.Vdw>
-1.9818

> <Gold.Goldscore.Internal.Torsion>
-0.4831

> <Gold.Goldscore.External.Vdw>
19.5214

> <Gold.Goldscore.Internal.HBond>
0.0000

> <Gold.Goldscore.External.HBond>
6.3861

> <Gold.Goldscore.Internal.Correction>
-0.7585

> <Gold.Goldscore.Hbonds>
donor molecule, donor type, donor heavy atom, donor atom, acceptor molecule, acceptor atom, score
      P1  H  9341  9355       L1    17  0.19
      P1  H  7722  7743       L1    17  1.00

> <Gold.Goldscore.Internal.Vdw.Weighted>
-1.9818

> <Gold.Goldscore.Internal.Torsion.Weighted>
-0.4831

> <Gold.Goldscore.External.Vdw.Weighted>
26.8419

> <Gold.Goldscore.Internal.HBond.Weighted>
0.0000

> <Gold.Goldscore.External.HBond.Weighted>
6.3861

> <Gold.Goldscore.Internal.Correction.Weighted>
-0.7585

> <Gold.Rescore>
     Score     S(PLP)   S(hbond)     S(cho)   S(metal)  DE(clash)   DE(tors)     intcor
     25.54     -22.66       1.48       0.00       0.00       1.34       0.11       ----

> <Gold.PLP.Fitness>
25.5450

> <Gold.PLP.PLP>
-22.6628

> <Gold.PLP.part.hbond>
-2.7142

> <Gold.PLP.part.metal>
0.0000

> <Gold.PLP.part.buried>
1.0791

> <Gold.PLP.part.nonpolar>
-22.2325

> <Gold.PLP.part.repulsive>
0.2016

> <Gold.PLP.ligand.clash>
1.3446

> <Gold.PLP.ligand.torsion>
0.1123

> <Gold.PLP.Chemscore.Hbond>
1.4838

> <Gold.PLP.Chemscore.CHOScore>
0.0000

> <Gold.PLP.Chemscore.Metal>
0.0000

> <Gold.Chemscore.Hbonds>
donor molecule, donor type, donor heavy atom, donor atom, acceptor molecule, acceptor atom, score
      P1  H  9341  9355       L1    17  0.77
      P1  H  7722  7743       L1    17  0.80

> <Gold.PLP.Chemscore.Internal.Correction>
   9.000000E+99

#       Name:                CT1002167954
#       Creating user name   hitesit
#       Creation time:       Sun Apr 16 22:54:13 2023


#       File generated by GOLD software.
#

@<TRIPOS>MOLECULE
CT1002167954|ligand_prepared|mol2|1|dock3
    29    30     1
SMALL
NO_CHARGES


@<TRIPOS>ATOM
      1 C1          25.0074  10.5533  40.1212 C.3            1 RES1               0.0000
      2 C2          24.6243  11.8213  40.9112 C.ar           1 RES1               0.0000
      3 C3          26.5108  10.6398  39.8751 C.2            1 RES1               0.0000
      4 C4          24.5853   9.3693  40.9841 C.2            1 RES1               0.0000
      5 C5          24.2925  10.4282  38.7556 C.3            1 RES1               0.0000
      6 C6          25.0256  11.9802  42.2343 C.ar           1 RES1               0.0000
      7 C7          23.8736  12.8402  40.3307 C.ar           1 RES1               0.0000
      8 N8          27.3188   9.8188  40.6052 N.am           1 RES1               0.0000
      9 O9          26.9831  11.4439  39.0810 O.2            1 RES1               0.0000
     10 N10         25.5685   8.5554  41.4827 N.am           1 RES1               0.0000
     11 O11         23.4113   9.1435  41.2504 O.2            1 RES1               0.0000
     12 C12         24.5166   9.0914  38.0664 C.3            1 RES1               0.0000
     13 C13         24.6911  13.1176  42.9502 C.ar           1 RES1               0.0000
     14 C14         23.5400  13.9768  41.0486 C.ar           1 RES1               0.0000
     15 C15         26.9179   8.7442  41.3577 C.2            1 RES1               0.0000
     16 C16         23.9486  14.1168  42.3579 C.ar           1 RES1               0.0000
     17 O17         27.7410   7.9987  41.8811 O.2            1 RES1               0.0000
     18 H18         23.2154  10.5715  38.9064 H              1 RES1               0.0000
     19 H19         24.6482  11.2294  38.0961 H              1 RES1               0.0000
     20 H20         25.6084  11.2034  42.7179 H              1 RES1               0.0000
     21 H21         23.5403  12.7511  39.3023 H              1 RES1               0.0000
     22 H22         28.3130  10.0227  40.5903 H              1 RES1               0.0000
     23 H23         25.2665   7.7323  41.9943 H              1 RES1               0.0000
     24 H24         23.9935   9.0564  37.1131 H              1 RES1               0.0000
     25 H25         25.5756   8.9272  37.8781 H              1 RES1               0.0000
     26 H26         24.1513   8.2732  38.6837 H              1 RES1               0.0000
     27 H27         25.0139  13.2224  43.9808 H              1 RES1               0.0000
     28 H28         22.9549  14.7604  40.5786 H              1 RES1               0.0000
     29 H29         23.6870  15.0079  42.9188 H              1 RES1               0.0000
@<TRIPOS>BOND
    1    1    2 1     
    2    1    3 1     
    3    1    4 1     
    4    1    5 1     
    5    2    6 ar    
    6    2    7 ar    
    7    3    8 1     
    8    3    9 2     
    9    4   10 1     
   10    4   11 2     
   11    5   12 1     
   12    5   18 1     
   13    5   19 1     
   14    6   13 ar    
   15    6   20 1     
   16    7   14 ar    
   17    7   21 1     
   18    8   15 1     
   19    8   22 1     
   20   10   15 1     
   21   10   23 1     
   22   12   24 1     
   23   12   25 1     
   24   12   26 1     
   25   13   16 ar    
   26   13   27 1     
   27   14   16 ar    
   28   14   28 1     
   29   15   17 2     
   30   16   29 1     
@<TRIPOS>SUBSTRUCTURE
      1 RES1           1
@<TRIPOS>SET
DONOR_HYDROGENS      STATIC     ATOMS    <user>   **** ""
2 22 23
ATOM$RED        STATIC     ATOMS    COLORGROUP SYSTEM
2 22 23
@<TRIPOS>COMMENT
> <Gold.Version>
2022.3.0

> <Gold.Id.Protein>
unknown|3mvj_clean|pdb

> <Gold.Protein.RotatedTorsions>
[ 10968 10947 10946 10944 ] final  -20.30 input   60.01 | X-H torsion
[ 10728 10707 10706 10704 ] final  -97.66 input   59.96 | X-H torsion
[ 10960 10936 10937 10938 ] final  166.61 input   23.31 | X-H torsion
[ 12067 12045 12046 12047 ] final  114.24 input   63.71 | X-H torsion
[ 15542 15533 15534 15535 ] final -140.47 input   83.29 | X-H torsion
[ 15588 15579 15580 15581 ] final   61.17 input  107.67 | X-H torsion
[ 15633 15624 15625 15626 ] final  -58.68 input   84.82 | X-H torsion
[ 10915 10907 10908 10909 ] final -171.90 input  -87.38 | X-H torsion
[ 6151 6129 6130 6131 ] final  -97.40 input   27.76 | X-H torsion
[ 6109 6101 6102 6103 ] final -117.84 input  -93.79 | X-H torsion
[ 5929 5907 5908 5909 ] final   22.12 input  119.25 | X-H torsion
[ 6001 5979 5980 5981 ] final -130.83 input  112.51 | X-H torsion
[ 6064 6048 6049 6050 ] final   71.60 input  108.26 | X-H torsion
[ 11206 11196 11197 11198 ] final  -37.28 input   -0.63 | X-H torsion
[ 11245 11229 11230 11231 ] final -167.68 input  120.69 | X-H torsion
[ 11164 11142 11143 11144 ] final -146.48 input   33.88 | X-H torsion
[ 11104 11082 11083 11084 ] final  101.11 input   45.00 | X-H torsion
[ 11284 11266 11267 11268 ] final  175.91 input   49.58 | X-H torsion
[ 9439 9421 9422 9423 ] final  145.97 input  116.39 | X-H torsion
[ 11482 11466 11467 11468 ] final -146.73 input  126.08 | X-H torsion
[ 11374 11358 11359 11360 ] final  143.04 input   98.08 | X-H torsion
[ 11559 11538 11537 11535 ] final  165.51 input   60.01 | X-H torsion
[ 9349 9335 9336 9337 ] final  -45.38 input   84.14 | X-H torsion
[ 9355 9341 9339 9336 ] final  -88.98 input   60.02 | X-H torsion
[ 9493 9469 9470 9471 ] final  142.72 input   75.21 | X-H torsion
[ 7840 7822 7823 7824 ] final   29.08 input  121.36 | X-H torsion
[ 7742 7722 7721 7720 ] final   15.24 input   60.01 | X-H torsion
[ 5728 5706 5707 5708 ] final  140.18 input  119.20 | X-H torsion
[ 5773 5761 5762 5763 ] final -140.00 input  120.20 | X-H torsion
[ 5777 5766 5765 5762 ] final  -96.32 input   59.99 | X-H torsion
[ 7882 7866 7867 7868 ] final  -96.19 input   81.17 | X-H torsion
[ 9501 9480 9479 9477 ] final   20.50 input   60.03 | X-H torsion
[ 7732 7714 7715 7716 ] final -109.21 input  -10.67 | X-H torsion
[ 15083 15054 15053 15052 ] final -132.83 input   60.01 | X-H torsion
[ 9319 9311 9312 9313 ] final   -7.34 input  -66.31 | X-H torsion
[ 15194 15161 15160 15159 ] final   76.77 input   59.99 | X-H torsion
[ 15326 15310 15309 15306 ] final  -31.90 input   59.99 | X-H torsion
[ 9292 9280 9281 9282 ] final  -36.43 input   22.77 | X-H torsion
[ 7636 7620 7621 7622 ] final -166.66 input   34.37 | X-H torsion
[ 9241 9225 9226 9227 ] final  108.59 input   96.07 | X-H torsion
[ 9544 9528 9529 9530 ] final  -63.49 input   99.68 | X-H torsion
[ 3443 3412 3413 3414 ] final   42.60 input -120.58 | X-H torsion
[ 3504 3478 3479 3480 ] final   25.69 input   70.69 | X-H torsion
[ 9190 9168 9169 9170 ] final  -67.14 input  115.65 | X-H torsion
[ 9198 9178 9175 9174 ] final  -69.45 input   59.98 | X-H torsion
[ 6282 6255 6254 6251 ] final -159.47 input   60.00 | X-H torsion
[ 9196 9176 9175 9174 ] final  100.77 input   60.01 | X-H torsion
[ 12157 12142 12143 12144 ] final    4.65 input  108.55 | X-H torsion
[ 11995 11973 11974 11975 ] final -170.59 input   68.31 | X-H torsion
[ 11434 11416 11417 11418 ] final -105.77 input  102.35 | X-H torsion
[ 5626 5608 5609 5610 ] final  -15.62 input  119.09 | X-H torsion
[ 10774 10756 10757 10758 ] final  161.59 input  129.22 | X-H torsion
[ 10816 10800 10801 10802 ] final  -39.79 input  128.85 | X-H torsion
[ 8641 8619 8620 8621 ] final -123.33 input   87.35 | X-H torsion
[ 3659 3632 3633 3634 ] final  139.47 input  116.97 | X-H torsion
[ 10029 10008 10007 10005 ] final  136.09 input   60.01 | X-H torsion
[ 16458 15536 15535 15534 ] final -108.09 input    0.00 | X-H torsion
[ 16468 10881 10880 10879 ] final   -8.50 input    0.00 | X-H torsion
[ 16470 10910 10909 10908 ] final -154.55 input    0.00 | X-H torsion
[ 16473 10997 10996 10995 ] final  -26.59 input    0.00 | X-H torsion
[ 16475 11976 11975 11974 ] final  -14.06 input    0.00 | X-H torsion
[ 16477 12048 12047 12046 ] final  132.16 input    0.00 | X-H torsion
[ 16480 10939 10938 10937 ] final   77.34 input   -0.00 | X-H torsion
[ 16483 11039 11038 11037 ] final   11.52 input    0.00 | X-H torsion
[ 16492 15582 15581 15580 ] final  -21.23 input    0.00 | X-H torsion
[ 16496 6104 6103 6102 ] final  161.79 input    0.00 | X-H torsion
[ 16499 5910 5909 5908 ] final  151.81 input   -0.00 | X-H torsion
[ 16502 5850 5849 5848 ] final   64.51 input    0.00 | X-H torsion
[ 16505 6051 6050 6049 ] final -161.76 input    0.00 | X-H torsion
[ 16507 5982 5981 5980 ] final  130.60 input    0.00 | X-H torsion
[ 16511 11145 11144 11143 ] final   18.38 input    0.00 | X-H torsion
[ 16514 11199 11198 11197 ] final -101.25 input    0.00 | X-H torsion
[ 16530 11085 11084 11083 ] final  157.59 input   -0.00 | X-H torsion
[ 16538 11232 11231 11230 ] final  154.98 input    0.00 | X-H torsion
[ 16549 11269 11268 11267 ] final  147.85 input   -0.00 | X-H torsion
[ 16552 11318 11317 11316 ] final -135.95 input    0.00 | X-H torsion
[ 16558 9314 9313 9312 ] final  122.81 input    0.00 | X-H torsion
[ 16561 9338 9337 9336 ] final   -5.39 input    0.00 | X-H torsion
[ 16565 9380 9379 9378 ] final  -56.15 input    0.00 | X-H torsion
[ 16570 5709 5708 5707 ] final   12.79 input    0.00 | X-H torsion
[ 16575 7825 7824 7823 ] final   91.81 input    0.00 | X-H torsion
[ 16583 7781 7780 7779 ] final  -29.36 input   -0.00 | X-H torsion
[ 16593 9424 9423 9422 ] final  -75.64 input   -0.00 | X-H torsion
[ 16597 7659 7658 7657 ] final  -11.47 input   -0.00 | X-H torsion
[ 16599 7717 7716 7715 ] final  129.12 input    0.00 | X-H torsion
[ 16602 10532 10531 10530 ] final  -87.44 input    0.00 | X-H torsion
[ 16611 7554 7553 7552 ] final  112.21 input    0.00 | X-H torsion
[ 16613 7623 7622 7621 ] final  -84.70 input   -0.00 | X-H torsion
[ 16616 9283 9282 9281 ] final -125.39 input    0.00 | X-H torsion
[ 16618 9228 9227 9226 ] final   71.37 input   -0.00 | X-H torsion
[ 16636 3357 3356 3355 ] final  -76.28 input   -0.00 | X-H torsion
[ 16638 3415 3414 3413 ] final  -62.25 input   -0.00 | X-H torsion
[ 16646 9102 9101 9100 ] final -140.85 input    0.00 | X-H torsion

> <Gold.Protein.ActiveResidues>
 ARG45   SER53   PHE54   LEU82   LYS83   GLN84   GLU86   HIS87   GLU127  PHE129 
 SER130  HIS131  LEU132  ARG133  ARG134  ILE135  GLY136  ARG137  PHE138  SER139 
 HIS142  ARG165  ASP166  LEU167  LYS168  PRO169  GLU170  ASN171  ASP184  GLY186 
 PHE187  TRP196  TPO197  LEU198  CYS199  GLY200  THR201  PRO202  GLU203  TYR204 
 LEU205  ILE209  ILE210  TYR215  VAL226  LEU227  TYR229  GLU230  MET231  ALA233 
 GLY234  TYR235  PRO236  PRO237  PHE238  PHE239  ALA240  ASP241  GLN242  PRO243 
 ILE244  GLN245  ILE246  TYR247  LYS249  ARG256  PHE257  PRO258  SER259  HIS260 
 PRO313  PHE314  ILE315  LYS317  LYS319  SER325  ASN326  ASP328  ASP329  GLU331 
 GLU332  GLU333  GLU334 

> <Gold.Protein.RotatedAtoms>
   24.5679   21.8687   37.2113 H   0  0  0  0  0  0  0  0  0  0  0  0  # atno 3443 bound_to 3412
   24.9871   22.5689   40.0753 H   0  0  0  0  0  0  0  0  0  0  0  0  # atno 3504 bound_to 3478
   22.8048   19.8447   44.6801 H   0  0  0  0  0  0  0  0  0  0  0  0  # atno 3659 bound_to 3632
   35.4997   -1.9255   42.5618 H   0  0  0  0  0  0  0  0  0  0  0  0  # atno 5626 bound_to 5608
   30.0435   -1.3287   41.2036 H   0  0  0  0  0  0  0  0  0  0  0  0  # atno 5728 bound_to 5706
   30.9799   -1.9499   38.0151 H   0  0  0  0  0  0  0  0  0  0  0  0  # atno 5773 bound_to 5761
   34.7501   -2.6100   35.9030 H   0  0  0  0  0  0  0  0  0  0  0  0  # atno 5777 bound_to 5766
   30.0890   -6.9606   37.2034 H   0  0  0  0  0  0  0  0  0  0  0  0  # atno 5929 bound_to 5907
   30.9929   -7.3092   34.4878 H   0  0  0  0  0  0  0  0  0  0  0  0  # atno 6001 bound_to 5979
   31.2405   -9.6642   36.7644 H   0  0  0  0  0  0  0  0  0  0  0  0  # atno 6064 bound_to 6048
   29.5553  -10.3917   35.6140 H   0  0  0  0  0  0  0  0  0  0  0  0  # atno 6109 bound_to 6101
   27.3900  -11.6446   37.4517 H   0  0  0  0  0  0  0  0  0  0  0  0  # atno 6151 bound_to 6129
   10.8655   24.3426   36.8494 H   0  0  0  0  0  0  0  0  0  0  0  0  # atno 6282 bound_to 6255
   18.7800    7.6031   46.5325 H   0  0  0  0  0  0  0  0  0  0  0  0  # atno 7636 bound_to 7620
   21.7611    1.3097   45.1865 H   0  0  0  0  0  0  0  0  0  0  0  0  # atno 7732 bound_to 7714
   22.1317    5.7147   41.7090 H   0  0  0  0  0  0  0  0  0  0  0  0  # atno 7742 bound_to 7722
   23.4589    6.6703   41.4418 H   0  0  0  0  0  0  0  0  0  0  0  0  # atno 7743 bound_to 7722
   22.1688    6.7347   40.4028 H   0  0  0  0  0  0  0  0  0  0  0  0  # atno 7744 bound_to 7722
   25.8294    1.3309   42.0666 H   0  0  0  0  0  0  0  0  0  0  0  0  # atno 7840 bound_to 7822
   27.6758    3.0393   42.3281 H   0  0  0  0  0  0  0  0  0  0  0  0  # atno 7882 bound_to 7866
   22.6734   13.9627   46.3790 H   0  0  0  0  0  0  0  0  0  0  0  0  # atno 8641 bound_to 8619
    9.6289   14.9988   45.2844 H   0  0  0  0  0  0  0  0  0  0  0  0  # atno 9190 bound_to 9168
   11.7663   18.2857   48.1258 H   0  0  0  0  0  0  0  0  0  0  0  0  # atno 9196 bound_to 9176
   14.8543   15.9805   46.8843 H   0  0  0  0  0  0  0  0  0  0  0  0  # atno 9198 bound_to 9178
   11.2718   14.9518   41.8199 H   0  0  0  0  0  0  0  0  0  0  0  0  # atno 9241 bound_to 9225
   13.3509   11.1407   41.6640 H   0  0  0  0  0  0  0  0  0  0  0  0  # atno 9292 bound_to 9280
   16.8751   10.3489   40.0819 H   0  0  0  0  0  0  0  0  0  0  0  0  # atno 9319 bound_to 9311
   17.2691    7.2750   39.8733 H   0  0  0  0  0  0  0  0  0  0  0  0  # atno 9349 bound_to 9335
   21.0070    5.8918   37.8058 H   0  0  0  0  0  0  0  0  0  0  0  0  # atno 9355 bound_to 9341
   16.4951    2.6800   36.1567 H   0  0  0  0  0  0  0  0  0  0  0  0  # atno 9439 bound_to 9421
   16.6702    1.8779   39.0555 H   0  0  0  0  0  0  0  0  0  0  0  0  # atno 9493 bound_to 9469
   21.1631   -2.4313   40.7352 H   0  0  0  0  0  0  0  0  0  0  0  0  # atno 9501 bound_to 9480
   14.2541    2.4572   41.5297 H   0  0  0  0  0  0  0  0  0  0  0  0  # atno 9544 bound_to 9528
   13.0416   12.0700   47.0572 H   0  0  0  0  0  0  0  0  0  0  0  0  # atno 10029 bound_to 10008
   13.5573  -10.1634   36.8919 H   0  0  0  0  0  0  0  0  0  0  0  0  # atno 10728 bound_to 10707
   18.3806   -6.9455   41.0295 H   0  0  0  0  0  0  0  0  0  0  0  0  # atno 10774 bound_to 10756
   21.5777   -8.1380   40.9506 H   0  0  0  0  0  0  0  0  0  0  0  0  # atno 10816 bound_to 10800
   22.4120  -11.5766   38.3818 H   0  0  0  0  0  0  0  0  0  0  0  0  # atno 10915 bound_to 10907
   21.6032   -9.5444   35.7319 H   0  0  0  0  0  0  0  0  0  0  0  0  # atno 10960 bound_to 10936
   15.8609  -13.0369   35.3108 H   0  0  0  0  0  0  0  0  0  0  0  0  # atno 10968 bound_to 10947
   13.6071   -4.3019   37.3040 H   0  0  0  0  0  0  0  0  0  0  0  0  # atno 11104 bound_to 11082
   13.6562   -3.4191   34.1110 H   0  0  0  0  0  0  0  0  0  0  0  0  # atno 11164 bound_to 11142
   15.4148   -2.3391   29.9224 H   0  0  0  0  0  0  0  0  0  0  0  0  # atno 11206 bound_to 11196
   14.5438   -1.6445   26.4779 H   0  0  0  0  0  0  0  0  0  0  0  0  # atno 11245 bound_to 11229
   14.2812    1.9694   25.9810 H   0  0  0  0  0  0  0  0  0  0  0  0  # atno 11284 bound_to 11266
   11.2524    5.7766   29.5084 H   0  0  0  0  0  0  0  0  0  0  0  0  # atno 11374 bound_to 11358
    8.7742    3.6170   29.8093 H   0  0  0  0  0  0  0  0  0  0  0  0  # atno 11434 bound_to 11416
   10.7894    0.5764   30.5966 H   0  0  0  0  0  0  0  0  0  0  0  0  # atno 11482 bound_to 11466
   12.6184    8.7112   33.8922 H   0  0  0  0  0  0  0  0  0  0  0  0  # atno 11559 bound_to 11538
    8.2551  -10.9078   37.3680 H   0  0  0  0  0  0  0  0  0  0  0  0  # atno 11995 bound_to 11973
   10.3496  -14.2335   38.7992 H   0  0  0  0  0  0  0  0  0  0  0  0  # atno 12067 bound_to 12045
   15.9344  -18.3897   37.5833 H   0  0  0  0  0  0  0  0  0  0  0  0  # atno 12157 bound_to 12142
   26.6180   14.6572   35.2776 H   0  0  0  0  0  0  0  0  0  0  0  0  # atno 15083 bound_to 15054
   27.2355   15.1683   33.8267 H   0  0  0  0  0  0  0  0  0  0  0  0  # atno 15084 bound_to 15054
   26.1922   16.1396   34.6723 H   0  0  0  0  0  0  0  0  0  0  0  0  # atno 15085 bound_to 15054
   31.1688   10.7903   30.8927 H   0  0  0  0  0  0  0  0  0  0  0  0  # atno 15194 bound_to 15161
   32.7303   11.0474   31.3865 H   0  0  0  0  0  0  0  0  0  0  0  0  # atno 15195 bound_to 15161
   31.8828   12.2652   30.6468 H   0  0  0  0  0  0  0  0  0  0  0  0  # atno 15196 bound_to 15161
   27.2912   11.4617   25.1256 H   0  0  0  0  0  0  0  0  0  0  0  0  # atno 15326 bound_to 15310
    7.8673  -12.0083   26.3066 H   0  0  0  0  0  0  0  0  0  0  0  0  # atno 15542 bound_to 15533
    7.8641  -15.3258   27.4905 H   0  0  0  0  0  0  0  0  0  0  0  0  # atno 15588 bound_to 15579
    8.9044  -17.9627   29.0802 H   0  0  0  0  0  0  0  0  0  0  0  0  # atno 15633 bound_to 15624
   11.1891  -15.6838   27.5711 LP  0  0  0  0  0  0  0  0  0  0  0  0  # atno 16458 bound_to 15536
   11.3169  -14.0545   28.1448 LP  0  0  0  0  0  0  0  0  0  0  0  0  # atno 16459 bound_to 15536
   17.2120  -13.9404   35.2384 LP  0  0  0  0  0  0  0  0  0  0  0  0  # atno 16460 bound_to 10947
   16.4064  -13.5599   33.8699 LP  0  0  0  0  0  0  0  0  0  0  0  0  # atno 16461 bound_to 10947
   13.6819  -11.6048   37.6367 LP  0  0  0  0  0  0  0  0  0  0  0  0  # atno 16466 bound_to 10707
   14.8874  -11.0746   36.6712 LP  0  0  0  0  0  0  0  0  0  0  0  0  # atno 16467 bound_to 10707
   20.8916  -13.5562   36.4427 LP  0  0  0  0  0  0  0  0  0  0  0  0  # atno 16468 bound_to 10881
   21.9649  -12.3900   35.7440 LP  0  0  0  0  0  0  0  0  0  0  0  0  # atno 16469 bound_to 10881
   22.4593   -7.7107   34.7382 LP  0  0  0  0  0  0  0  0  0  0  0  0  # atno 16470 bound_to 10910
   23.4942   -9.0732   34.4685 LP  0  0  0  0  0  0  0  0  0  0  0  0  # atno 16471 bound_to 10910
   20.8764   -9.0883   37.2525 LP  0  0  0  0  0  0  0  0  0  0  0  0  # atno 16472 bound_to 10936
   16.5843   -6.2766   35.0133 LP  0  0  0  0  0  0  0  0  0  0  0  0  # atno 16473 bound_to 10997
   15.3360   -7.2868   35.6623 LP  0  0  0  0  0  0  0  0  0  0  0  0  # atno 16474 bound_to 10997
   11.5667  -11.0846   37.2467 LP  0  0  0  0  0  0  0  0  0  0  0  0  # atno 16475 bound_to 11976
   12.5467  -11.9733   38.3645 LP  0  0  0  0  0  0  0  0  0  0  0  0  # atno 16476 bound_to 11976
   12.7101  -16.4245   36.4869 LP  0  0  0  0  0  0  0  0  0  0  0  0  # atno 16477 bound_to 12048
   11.7939  -16.6940   37.9319 LP  0  0  0  0  0  0  0  0  0  0  0  0  # atno 16478 bound_to 12048
   19.3679   -8.2436   38.3375 LP  0  0  0  0  0  0  0  0  0  0  0  0  # atno 16480 bound_to 10939
   17.9324   -8.6534   37.4592 LP  0  0  0  0  0  0  0  0  0  0  0  0  # atno 16481 bound_to 10939
   11.8281   -7.3904   36.8471 LP  0  0  0  0  0  0  0  0  0  0  0  0  # atno 16483 bound_to 11039
   11.6192   -6.2221   35.5856 LP  0  0  0  0  0  0  0  0  0  0  0  0  # atno 16484 bound_to 11039
   11.1089  -13.5927   37.3628 LP  0  0  0  0  0  0  0  0  0  0  0  0  # atno 16485 bound_to 12045
    9.1174  -11.9605   27.5272 LP  0  0  0  0  0  0  0  0  0  0  0  0  # atno 16490 bound_to 15533
    9.1351  -14.2961   28.1218 LP  0  0  0  0  0  0  0  0  0  0  0  0  # atno 16491 bound_to 15579
    8.2371  -17.1682   27.0292 LP  0  0  0  0  0  0  0  0  0  0  0  0  # atno 16492 bound_to 15582
    9.4653  -18.3894   27.0507 LP  0  0  0  0  0  0  0  0  0  0  0  0  # atno 16493 bound_to 15582
   10.1815  -17.7897   30.2641 LP  0  0  0  0  0  0  0  0  0  0  0  0  # atno 16494 bound_to 15624
   21.0511  -10.6727   37.7521 LP  0  0  0  0  0  0  0  0  0  0  0  0  # atno 16495 bound_to 10907
   24.9791  -10.8581   37.3200 LP  0  0  0  0  0  0  0  0  0  0  0  0  # atno 16496 bound_to 6104
   25.8478   -9.8872   36.1787 LP  0  0  0  0  0  0  0  0  0  0  0  0  # atno 16497 bound_to 6104
   26.8813  -13.2804   37.1089 LP  0  0  0  0  0  0  0  0  0  0  0  0  # atno 16498 bound_to 6129
   30.3357   -9.1635   33.2215 LP  0  0  0  0  0  0  0  0  0  0  0  0  # atno 16499 bound_to 5910
   28.7426   -9.0273   33.8872 LP  0  0  0  0  0  0  0  0  0  0  0  0  # atno 16500 bound_to 5910
   29.5861  -11.8170   36.6188 LP  0  0  0  0  0  0  0  0  0  0  0  0  # atno 16501 bound_to 6101
   27.8606   -9.2402   37.3524 LP  0  0  0  0  0  0  0  0  0  0  0  0  # atno 16502 bound_to 5850
   29.4261   -9.3216   36.6156 LP  0  0  0  0  0  0  0  0  0  0  0  0  # atno 16503 bound_to 5850
   28.4722   -6.3008   37.2226 LP  0  0  0  0  0  0  0  0  0  0  0  0  # atno 16504 bound_to 5907
   28.7725  -13.6658   35.7746 LP  0  0  0  0  0  0  0  0  0  0  0  0  # atno 16505 bound_to 6051
   29.9992  -14.0747   36.9270 LP  0  0  0  0  0  0  0  0  0  0  0  0  # atno 16506 bound_to 6051
   32.7588  -12.1034   34.7166 LP  0  0  0  0  0  0  0  0  0  0  0  0  # atno 16507 bound_to 5982
   31.8808  -11.2670   33.4799 LP  0  0  0  0  0  0  0  0  0  0  0  0  # atno 16508 bound_to 5982
   31.0786   -7.9254   36.1243 LP  0  0  0  0  0  0  0  0  0  0  0  0  # atno 16509 bound_to 5979
   32.4430  -10.4443   35.7627 LP  0  0  0  0  0  0  0  0  0  0  0  0  # atno 16510 bound_to 6048
   12.5052   -4.3505   31.3296 LP  0  0  0  0  0  0  0  0  0  0  0  0  # atno 16511 bound_to 11145
   12.7452   -4.1266   29.6289 LP  0  0  0  0  0  0  0  0  0  0  0  0  # atno 16512 bound_to 11145
   13.8623   -2.4021   30.7403 LP  0  0  0  0  0  0  0  0  0  0  0  0  # atno 16513 bound_to 11196
   15.4561    0.5931   28.9225 LP  0  0  0  0  0  0  0  0  0  0  0  0  # atno 16514 bound_to 11199
   16.4235   -0.8364   28.7779 LP  0  0  0  0  0  0  0  0  0  0  0  0  # atno 16515 bound_to 11199
   13.7806   -0.3403   27.3669 LP  0  0  0  0  0  0  0  0  0  0  0  0  # atno 16516 bound_to 11229
   13.1394   -4.5146   32.8579 LP  0  0  0  0  0  0  0  0  0  0  0  0  # atno 16525 bound_to 11142
   15.2122   -2.1544   34.2087 LP  0  0  0  0  0  0  0  0  0  0  0  0  # atno 16530 bound_to 11085
   14.1628   -1.8318   35.5484 LP  0  0  0  0  0  0  0  0  0  0  0  0  # atno 16531 bound_to 11085
   13.8719   -5.6104   36.1720 LP  0  0  0  0  0  0  0  0  0  0  0  0  # atno 16533 bound_to 11082
   16.0140    3.4814   26.1853 LP  0  0  0  0  0  0  0  0  0  0  0  0  # atno 16538 bound_to 11232
   17.0376    2.0864   26.1059 LP  0  0  0  0  0  0  0  0  0  0  0  0  # atno 16539 bound_to 11232
   13.9850    1.4094   27.6185 LP  0  0  0  0  0  0  0  0  0  0  0  0  # atno 16542 bound_to 11266
   15.3921    3.1670   37.4171 LP  0  0  0  0  0  0  0  0  0  0  0  0  # atno 16548 bound_to 9421
   12.5173    2.6069   30.1803 LP  0  0  0  0  0  0  0  0  0  0  0  0  # atno 16549 bound_to 11269
   11.7959    2.3661   28.6242 LP  0  0  0  0  0  0  0  0  0  0  0  0  # atno 16550 bound_to 11269
   10.5265    3.4304   31.9897 LP  0  0  0  0  0  0  0  0  0  0  0  0  # atno 16552 bound_to 11318
   11.5738    4.4277   32.9429 LP  0  0  0  0  0  0  0  0  0  0  0  0  # atno 16553 bound_to 11318
    9.9861    2.0166   31.1867 LP  0  0  0  0  0  0  0  0  0  0  0  0  # atno 16554 bound_to 11466
   11.3210    4.2744   30.3808 LP  0  0  0  0  0  0  0  0  0  0  0  0  # atno 16555 bound_to 11358
   13.5169    7.4656   34.4295 LP  0  0  0  0  0  0  0  0  0  0  0  0  # atno 16556 bound_to 11538
   12.7442    8.4367   35.4910 LP  0  0  0  0  0  0  0  0  0  0  0  0  # atno 16557 bound_to 11538
   18.1685    8.6369   37.9416 LP  0  0  0  0  0  0  0  0  0  0  0  0  # atno 16558 bound_to 9314
   16.6291    9.0621   38.6120 LP  0  0  0  0  0  0  0  0  0  0  0  0  # atno 16559 bound_to 9314
   18.8109    6.6744   40.4340 LP  0  0  0  0  0  0  0  0  0  0  0  0  # atno 16560 bound_to 9335
   16.8558    4.6194   40.0167 LP  0  0  0  0  0  0  0  0  0  0  0  0  # atno 16561 bound_to 9338
   15.4855    4.3334   38.9967 LP  0  0  0  0  0  0  0  0  0  0  0  0  # atno 16562 bound_to 9338
   21.3174    5.2333   39.2615 LP  0  0  0  0  0  0  0  0  0  0  0  0  # atno 16563 bound_to 9341
   20.4822    6.6327   39.1566 LP  0  0  0  0  0  0  0  0  0  0  0  0  # atno 16564 bound_to 9341
   13.6113    3.5534   38.5529 LP  0  0  0  0  0  0  0  0  0  0  0  0  # atno 16565 bound_to 9380
   13.2568    2.3369   37.3719 LP  0  0  0  0  0  0  0  0  0  0  0  0  # atno 16566 bound_to 9380
   14.9206    1.8416   39.0218 LP  0  0  0  0  0  0  0  0  0  0  0  0  # atno 16567 bound_to 9469
   28.7454   -3.8791   37.5733 LP  0  0  0  0  0  0  0  0  0  0  0  0  # atno 16570 bound_to 5709
   30.3130   -4.4828   37.1513 LP  0  0  0  0  0  0  0  0  0  0  0  0  # atno 16571 bound_to 5709
   26.3154    0.3491   40.7068 LP  0  0  0  0  0  0  0  0  0  0  0  0  # atno 16574 bound_to 7822
   28.7639    4.6698   41.6877 LP  0  0  0  0  0  0  0  0  0  0  0  0  # atno 16575 bound_to 7825
   29.7038    3.2915   42.1533 LP  0  0  0  0  0  0  0  0  0  0  0  0  # atno 16576 bound_to 7825
   30.5413   -2.9900   41.0072 LP  0  0  0  0  0  0  0  0  0  0  0  0  # atno 16579 bound_to 5706
   31.4663   -2.9984   39.3276 LP  0  0  0  0  0  0  0  0  0  0  0  0  # atno 16580 bound_to 5761
   34.8383   -1.3164   36.8858 LP  0  0  0  0  0  0  0  0  0  0  0  0  # atno 16581 bound_to 5766
   33.4236   -1.7066   36.1695 LP  0  0  0  0  0  0  0  0  0  0  0  0  # atno 16582 bound_to 5766
   28.0903   -0.1765   43.4560 LP  0  0  0  0  0  0  0  0  0  0  0  0  # atno 16583 bound_to 7781
   28.6866    0.5290   41.9908 LP  0  0  0  0  0  0  0  0  0  0  0  0  # atno 16584 bound_to 7781
   26.2000    2.4172   43.0368 LP  0  0  0  0  0  0  0  0  0  0  0  0  # atno 16585 bound_to 7866
   13.8576   -0.3481   39.0503 LP  0  0  0  0  0  0  0  0  0  0  0  0  # atno 16593 bound_to 9424
   15.4005   -0.9166   39.5945 LP  0  0  0  0  0  0  0  0  0  0  0  0  # atno 16594 bound_to 9424
   19.9296   -3.2516   41.4088 LP  0  0  0  0  0  0  0  0  0  0  0  0  # atno 16595 bound_to 9480
   20.9881   -2.4425   42.3530 LP  0  0  0  0  0  0  0  0  0  0  0  0  # atno 16596 bound_to 9480
   19.3819    2.9239   44.1429 LP  0  0  0  0  0  0  0  0  0  0  0  0  # atno 16597 bound_to 7659
   20.4535    2.3632   42.9030 LP  0  0  0  0  0  0  0  0  0  0  0  0  # atno 16598 bound_to 7659
   25.4502    0.9315   44.4503 LP  0  0  0  0  0  0  0  0  0  0  0  0  # atno 16599 bound_to 7717
   24.8201    2.3737   43.7272 LP  0  0  0  0  0  0  0  0  0  0  0  0  # atno 16600 bound_to 7717
   22.6583    2.6899   44.5925 LP  0  0  0  0  0  0  0  0  0  0  0  0  # atno 16601 bound_to 7714
   18.0723   -6.1198   42.3865 LP  0  0  0  0  0  0  0  0  0  0  0  0  # atno 16602 bound_to 10532
   18.5745   -4.6805   41.5642 LP  0  0  0  0  0  0  0  0  0  0  0  0  # atno 16603 bound_to 10532
   16.9642   10.4959   41.8203 LP  0  0  0  0  0  0  0  0  0  0  0  0  # atno 16604 bound_to 9311
   27.9565   10.8270   26.4685 LP  0  0  0  0  0  0  0  0  0  0  0  0  # atno 16607 bound_to 15310
   26.5747   11.6915   26.5687 LP  0  0  0  0  0  0  0  0  0  0  0  0  # atno 16608 bound_to 15310
   18.6344    8.7057   44.7863 LP  0  0  0  0  0  0  0  0  0  0  0  0  # atno 16611 bound_to 7554
   17.2086    7.7228   44.7558 LP  0  0  0  0  0  0  0  0  0  0  0  0  # atno 16612 bound_to 7554
   21.7790    4.7882   43.6746 LP  0  0  0  0  0  0  0  0  0  0  0  0  # atno 16613 bound_to 7623
   22.8242    5.1104   45.0177 LP  0  0  0  0  0  0  0  0  0  0  0  0  # atno 16614 bound_to 7623
   13.7951   12.6999   42.2870 LP  0  0  0  0  0  0  0  0  0  0  0  0  # atno 16615 bound_to 9280
   15.8750    8.8603   43.0148 LP  0  0  0  0  0  0  0  0  0  0  0  0  # atno 16616 bound_to 9283
   14.4414    9.1359   42.0827 LP  0  0  0  0  0  0  0  0  0  0  0  0  # atno 16617 bound_to 9283
   14.1683   14.7104   41.1312 LP  0  0  0  0  0  0  0  0  0  0  0  0  # atno 16618 bound_to 9228
   14.4864   13.6331   39.8128 LP  0  0  0  0  0  0  0  0  0  0  0  0  # atno 16619 bound_to 9228
   19.4589    6.1919   47.2916 LP  0  0  0  0  0  0  0  0  0  0  0  0  # atno 16620 bound_to 7620
   11.9044   14.1218   43.2197 LP  0  0  0  0  0  0  0  0  0  0  0  0  # atno 16628 bound_to 9225
   14.0493    3.2799   40.0016 LP  0  0  0  0  0  0  0  0  0  0  0  0  # atno 16635 bound_to 9528
   23.1486   20.2859   36.4744 LP  0  0  0  0  0  0  0  0  0  0  0  0  # atno 16636 bound_to 3357
   24.1471   20.0383   37.8678 LP  0  0  0  0  0  0  0  0  0  0  0  0  # atno 16637 bound_to 3357
   21.6061   21.7654   40.5267 LP  0  0  0  0  0  0  0  0  0  0  0  0  # atno 16638 bound_to 3415
   22.2643   20.2546   39.9936 LP  0  0  0  0  0  0  0  0  0  0  0  0  # atno 16639 bound_to 3415
   24.6949   23.6121   37.1588 LP  0  0  0  0  0  0  0  0  0  0  0  0  # atno 16640 bound_to 3412
   23.9408   21.3862   39.3197 LP  0  0  0  0  0  0  0  0  0  0  0  0  # atno 16641 bound_to 3478
    9.4547   14.0238   43.4876 LP  0  0  0  0  0  0  0  0  0  0  0  0  # atno 16646 bound_to 9102
    8.0212   14.9462   43.7948 LP  0  0  0  0  0  0  0  0  0  0  0  0  # atno 16647 bound_to 9102
   10.9463   15.2838   46.3925 LP  0  0  0  0  0  0  0  0  0  0  0  0  # atno 16648 bound_to 9168
   14.8740   17.0345   48.1239 LP  0  0  0  0  0  0  0  0  0  0  0  0  # atno 16649 bound_to 9178
   14.9851   17.5749   46.5869 LP  0  0  0  0  0  0  0  0  0  0  0  0  # atno 16650 bound_to 9178
    9.5675   25.0457   36.1649 LP  0  0  0  0  0  0  0  0  0  0  0  0  # atno 16654 bound_to 6255
   10.3072   23.7929   35.4233 LP  0  0  0  0  0  0  0  0  0  0  0  0  # atno 16655 bound_to 6255
   12.5769   19.0185   46.9194 LP  0  0  0  0  0  0  0  0  0  0  0  0  # atno 16656 bound_to 9176
   13.3367   18.6667   48.3214 LP  0  0  0  0  0  0  0  0  0  0  0  0  # atno 16657 bound_to 9176

> <Gold.Score>
     Fitness  S(hb_ext) S(vdw_ext)  S(hb_int)    S(int)      intcor
     28.06       6.19      15.99       0.00      -0.12      -0.76

> <Gold.Goldscore.Fitness>
28.0595

> <Gold.Goldscore.Internal.Vdw>
-0.4087

> <Gold.Goldscore.Internal.Torsion>
-0.4702

> <Gold.Goldscore.External.Vdw>
15.9915

> <Gold.Goldscore.Internal.HBond>
0.0000

> <Gold.Goldscore.External.HBond>
6.1916

> <Gold.Goldscore.Internal.Correction>
-0.7585

> <Gold.Goldscore.Hbonds>
donor molecule, donor type, donor heavy atom, donor atom, acceptor molecule, acceptor atom, score
      P1  H  7722  7743       L1    11  0.01
      P1  H  7872  7892       L1    11  0.06
      L1  H    10    23       P1  7873  1.00

> <Gold.Goldscore.Internal.Vdw.Weighted>
-0.4087

> <Gold.Goldscore.Internal.Torsion.Weighted>
-0.4702

> <Gold.Goldscore.External.Vdw.Weighted>
21.9883

> <Gold.Goldscore.Internal.HBond.Weighted>
0.0000

> <Gold.Goldscore.External.HBond.Weighted>
6.1916

> <Gold.Goldscore.Internal.Correction.Weighted>
-0.7585

> <Gold.Rescore>
     Score     S(PLP)   S(hbond)     S(cho)   S(metal)  DE(clash)   DE(tors)     intcor
     17.77     -19.18       0.25       0.00       0.00       0.00       1.08       ----

> <Gold.PLP.Fitness>
17.7693

> <Gold.PLP.PLP>
-19.1834

> <Gold.PLP.part.hbond>
-1.0000

> <Gold.PLP.part.metal>
0.0000

> <Gold.PLP.part.buried>
-3.8921

> <Gold.PLP.part.nonpolar>
-17.4202

> <Gold.PLP.part.repulsive>
3.1834

> <Gold.PLP.ligand.clash>
0.0000

> <Gold.PLP.ligand.torsion>
1.0803

> <Gold.PLP.Chemscore.Hbond>
0.2488

> <Gold.PLP.Chemscore.CHOScore>
0.0000

> <Gold.PLP.Chemscore.Metal>
0.0000

> <Gold.Chemscore.Hbonds>
donor molecule, donor type, donor heavy atom, donor atom, acceptor molecule, acceptor atom, score
      L1  H    10    23       P1  7873  0.42
      P1  H  7722  7743       L1    11  0.02

> <Gold.PLP.Chemscore.Internal.Correction>
   9.000000E+99

#       Name:                CT1002167954
#       Creating user name   hitesit
#       Creation time:       Sun Apr 16 22:54:24 2023


#       File generated by GOLD software.
#

@<TRIPOS>MOLECULE
CT1002167954|ligand_prepared|mol2|1|dock7
    29    30     1
SMALL
NO_CHARGES


@<TRIPOS>ATOM
      1 C1          17.9806   3.5144  29.4355 C.3            1 RES1               0.0000
      2 C2          18.1532   4.0370  27.9947 C.ar           1 RES1               0.0000
      3 C3          16.8300   2.5131  29.3931 C.2            1 RES1               0.0000
      4 C4          19.3210   2.9054  29.8319 C.2            1 RES1               0.0000
      5 C5          17.6344   4.6172  30.4629 C.3            1 RES1               0.0000
      6 C6          18.5377   3.1770  26.9703 C.ar           1 RES1               0.0000
      7 C7          17.9295   5.3734  27.6747 C.ar           1 RES1               0.0000
      8 N8          17.1412   1.1886  29.4870 N.am           1 RES1               0.0000
      9 O9          15.6708   2.8779  29.2398 O.2            1 RES1               0.0000
     10 N10         19.3721   1.5538  30.0521 N.am           1 RES1               0.0000
     11 O11         20.3369   3.5811  29.9393 O.2            1 RES1               0.0000
     12 C12         17.5902   4.1238  31.9005 C.3            1 RES1               0.0000
     13 C13         18.6900   3.6358  25.6724 C.ar           1 RES1               0.0000
     14 C14         18.0827   5.8302  26.3760 C.ar           1 RES1               0.0000
     15 C15         18.3498   0.6633  29.8677 C.2            1 RES1               0.0000
     16 C16         18.4623   4.9624  25.3743 C.ar           1 RES1               0.0000
     17 O17         18.4879  -0.5452  30.0339 O.2            1 RES1               0.0000
     18 H18         18.3809   5.4174  30.3869 H              1 RES1               0.0000
     19 H19         16.6573   5.0447  30.2062 H              1 RES1               0.0000
     20 H20         18.7237   2.1302  27.1863 H              1 RES1               0.0000
     21 H21         17.6312   6.0744  28.4468 H              1 RES1               0.0000
     22 H22         16.4075   0.5276  29.2523 H              1 RES1               0.0000
     23 H23         20.2540   1.1767  30.3845 H              1 RES1               0.0000
     24 H24         17.3432   4.9369  32.5799 H              1 RES1               0.0000
     25 H25         16.8403   3.3443  32.0180 H              1 RES1               0.0000
     26 H26         18.5537   3.7148  32.1977 H              1 RES1               0.0000
     27 H27         18.9902   2.9490  24.8878 H              1 RES1               0.0000
     28 H28         17.9030   6.8752  26.1461 H              1 RES1               0.0000
     29 H29         18.5813   5.3214  24.3573 H              1 RES1               0.0000
@<TRIPOS>BOND
    1    1    2 1     
    2    1    3 1     
    3    1    4 1     
    4    1    5 1     
    5    2    6 ar    
    6    2    7 ar    
    7    3    8 1     
    8    3    9 2     
    9    4   10 1     
   10    4   11 2     
   11    5   12 1     
   12    5   18 1     
   13    5   19 1     
   14    6   13 ar    
   15    6   20 1     
   16    7   14 ar    
   17    7   21 1     
   18    8   15 1     
   19    8   22 1     
   20   10   15 1     
   21   10   23 1     
   22   12   24 1     
   23   12   25 1     
   24   12   26 1     
   25   13   16 ar    
   26   13   27 1     
   27   14   16 ar    
   28   14   28 1     
   29   15   17 2     
   30   16   29 1     
@<TRIPOS>SUBSTRUCTURE
      1 RES1           1
@<TRIPOS>SET
DONOR_HYDROGENS      STATIC     ATOMS    <user>   **** ""
2 22 23
ATOM$RED        STATIC     ATOMS    COLORGROUP SYSTEM
2 22 23
@<TRIPOS>COMMENT
> <Gold.Version>
2022.3.0

> <Gold.Id.Protein>
unknown|3mvj_clean|pdb

> <Gold.Protein.RotatedTorsions>
[ 10968 10947 10946 10944 ] final -114.97 input   60.01 | X-H torsion
[ 10728 10707 10706 10704 ] final  -61.71 input   59.96 | X-H torsion
[ 10960 10936 10937 10938 ] final  -36.56 input   23.31 | X-H torsion
[ 12067 12045 12046 12047 ] final -143.69 input   63.71 | X-H torsion
[ 15542 15533 15534 15535 ] final   58.65 input   83.29 | X-H torsion
[ 15588 15579 15580 15581 ] final   94.23 input  107.67 | X-H torsion
[ 15633 15624 15625 15626 ] final  -91.83 input   84.82 | X-H torsion
[ 10915 10907 10908 10909 ] final   52.35 input  -87.38 | X-H torsion
[ 6151 6129 6130 6131 ] final   80.32 input   27.76 | X-H torsion
[ 6109 6101 6102 6103 ] final  179.54 input  -93.79 | X-H torsion
[ 5929 5907 5908 5909 ] final   69.11 input  119.25 | X-H torsion
[ 6001 5979 5980 5981 ] final    1.62 input  112.51 | X-H torsion
[ 6064 6048 6049 6050 ] final -160.12 input  108.26 | X-H torsion
[ 11206 11196 11197 11198 ] final   57.40 input   -0.63 | X-H torsion
[ 11245 11229 11230 11231 ] final  -86.50 input  120.69 | X-H torsion
[ 11164 11142 11143 11144 ] final   81.66 input   33.88 | X-H torsion
[ 11104 11082 11083 11084 ] final  108.36 input   45.00 | X-H torsion
[ 11284 11266 11267 11268 ] final -157.80 input   49.58 | X-H torsion
[ 9439 9421 9422 9423 ] final  149.51 input  116.39 | X-H torsion
[ 11482 11466 11467 11468 ] final   82.58 input  126.08 | X-H torsion
[ 11374 11358 11359 11360 ] final  -86.10 input   98.08 | X-H torsion
[ 11559 11538 11537 11535 ] final  -86.21 input   60.01 | X-H torsion
[ 9349 9335 9336 9337 ] final  133.32 input   84.14 | X-H torsion
[ 9355 9341 9339 9336 ] final    2.38 input   60.02 | X-H torsion
[ 9493 9469 9470 9471 ] final -172.30 input   75.21 | X-H torsion
[ 7840 7822 7823 7824 ] final  145.26 input  121.36 | X-H torsion
[ 7742 7722 7721 7720 ] final   24.74 input   60.01 | X-H torsion
[ 5728 5706 5707 5708 ] final  107.83 input  119.20 | X-H torsion
[ 5773 5761 5762 5763 ] final  -31.82 input  120.20 | X-H torsion
[ 5777 5766 5765 5762 ] final   57.01 input   59.99 | X-H torsion
[ 7882 7866 7867 7868 ] final   45.90 input   81.17 | X-H torsion
[ 9501 9480 9479 9477 ] final   26.10 input   60.03 | X-H torsion
[ 7732 7714 7715 7716 ] final  146.66 input  -10.67 | X-H torsion
[ 15083 15054 15053 15052 ] final   63.06 input   60.01 | X-H torsion
[ 9319 9311 9312 9313 ] final   -8.86 input  -66.31 | X-H torsion
[ 15194 15161 15160 15159 ] final   54.19 input   59.99 | X-H torsion
[ 15326 15310 15309 15306 ] final -153.91 input   59.99 | X-H torsion
[ 9292 9280 9281 9282 ] final  -75.93 input   22.77 | X-H torsion
[ 7636 7620 7621 7622 ] final -113.63 input   34.37 | X-H torsion
[ 9241 9225 9226 9227 ] final   32.57 input   96.07 | X-H torsion
[ 9544 9528 9529 9530 ] final   86.69 input   99.68 | X-H torsion
[ 3443 3412 3413 3414 ] final  -29.46 input -120.58 | X-H torsion
[ 3504 3478 3479 3480 ] final   78.89 input   70.69 | X-H torsion
[ 9190 9168 9169 9170 ] final   46.39 input  115.65 | X-H torsion
[ 9198 9178 9175 9174 ] final -144.24 input   59.98 | X-H torsion
[ 6282 6255 6254 6251 ] final    9.00 input   60.00 | X-H torsion
[ 9196 9176 9175 9174 ] final   17.45 input   60.01 | X-H torsion
[ 12157 12142 12143 12144 ] final  -74.57 input  108.55 | X-H torsion
[ 11995 11973 11974 11975 ] final  -22.04 input   68.31 | X-H torsion
[ 11434 11416 11417 11418 ] final  -69.55 input  102.35 | X-H torsion
[ 5626 5608 5609 5610 ] final    6.31 input  119.09 | X-H torsion
[ 10774 10756 10757 10758 ] final  -29.98 input  129.22 | X-H torsion
[ 10816 10800 10801 10802 ] final  122.99 input  128.85 | X-H torsion
[ 8641 8619 8620 8621 ] final  167.31 input   87.35 | X-H torsion
[ 3659 3632 3633 3634 ] final  -14.08 input  116.97 | X-H torsion
[ 10029 10008 10007 10005 ] final  -77.81 input   60.01 | X-H torsion
[ 16458 15536 15535 15534 ] final -121.09 input    0.00 | X-H torsion
[ 16468 10881 10880 10879 ] final -129.61 input    0.00 | X-H torsion
[ 16470 10910 10909 10908 ] final  127.69 input    0.00 | X-H torsion
[ 16473 10997 10996 10995 ] final  -14.30 input    0.00 | X-H torsion
[ 16475 11976 11975 11974 ] final  101.15 input    0.00 | X-H torsion
[ 16477 12048 12047 12046 ] final   71.44 input    0.00 | X-H torsion
[ 16480 10939 10938 10937 ] final  -94.59 input   -0.00 | X-H torsion
[ 16483 11039 11038 11037 ] final  -72.12 input    0.00 | X-H torsion
[ 16492 15582 15581 15580 ] final  134.61 input    0.00 | X-H torsion
[ 16496 6104 6103 6102 ] final  164.08 input    0.00 | X-H torsion
[ 16499 5910 5909 5908 ] final  -37.01 input   -0.00 | X-H torsion
[ 16502 5850 5849 5848 ] final  166.85 input    0.00 | X-H torsion
[ 16505 6051 6050 6049 ] final -177.68 input    0.00 | X-H torsion
[ 16507 5982 5981 5980 ] final  -69.37 input    0.00 | X-H torsion
[ 16511 11145 11144 11143 ] final  -61.03 input    0.00 | X-H torsion
[ 16514 11199 11198 11197 ] final -141.12 input    0.00 | X-H torsion
[ 16530 11085 11084 11083 ] final -129.87 input   -0.00 | X-H torsion
[ 16538 11232 11231 11230 ] final   -0.50 input    0.00 | X-H torsion
[ 16549 11269 11268 11267 ] final  -25.82 input   -0.00 | X-H torsion
[ 16552 11318 11317 11316 ] final    3.47 input    0.00 | X-H torsion
[ 16558 9314 9313 9312 ] final  147.28 input    0.00 | X-H torsion
[ 16561 9338 9337 9336 ] final  175.31 input    0.00 | X-H torsion
[ 16565 9380 9379 9378 ] final  -89.07 input    0.00 | X-H torsion
[ 16570 5709 5708 5707 ] final  -41.29 input    0.00 | X-H torsion
[ 16575 7825 7824 7823 ] final   28.97 input    0.00 | X-H torsion
[ 16583 7781 7780 7779 ] final   14.91 input   -0.00 | X-H torsion
[ 16593 9424 9423 9422 ] final    3.36 input   -0.00 | X-H torsion
[ 16597 7659 7658 7657 ] final  152.78 input   -0.00 | X-H torsion
[ 16599 7717 7716 7715 ] final -101.74 input    0.00 | X-H torsion
[ 16602 10532 10531 10530 ] final  -38.48 input    0.00 | X-H torsion
[ 16611 7554 7553 7552 ] final  -65.28 input    0.00 | X-H torsion
[ 16613 7623 7622 7621 ] final  148.44 input   -0.00 | X-H torsion
[ 16616 9283 9282 9281 ] final   98.12 input    0.00 | X-H torsion
[ 16618 9228 9227 9226 ] final   19.28 input   -0.00 | X-H torsion
[ 16636 3357 3356 3355 ] final  -52.92 input   -0.00 | X-H torsion
[ 16638 3415 3414 3413 ] final  -19.24 input   -0.00 | X-H torsion
[ 16646 9102 9101 9100 ] final  128.45 input    0.00 | X-H torsion

> <Gold.Protein.ActiveResidues>
 ARG45   SER53   PHE54   LEU82   LYS83   GLN84   GLU86   HIS87   GLU127  PHE129 
 SER130  HIS131  LEU132  ARG133  ARG134  ILE135  GLY136  ARG137  PHE138  SER139 
 HIS142  ARG165  ASP166  LEU167  LYS168  PRO169  GLU170  ASN171  ASP184  GLY186 
 PHE187  TRP196  TPO197  LEU198  CYS199  GLY200  THR201  PRO202  GLU203  TYR204 
 LEU205  ILE209  ILE210  TYR215  VAL226  LEU227  TYR229  GLU230  MET231  ALA233 
 GLY234  TYR235  PRO236  PRO237  PHE238  PHE239  ALA240  ASP241  GLN242  PRO243 
 ILE244  GLN245  ILE246  TYR247  LYS249  ARG256  PHE257  PRO258  SER259  HIS260 
 PRO313  PHE314  ILE315  LYS317  LYS319  SER325  ASN326  ASP328  ASP329  GLU331 
 GLU332  GLU333  GLU334 

> <Gold.Protein.RotatedAtoms>
   25.1676   22.4590   37.8276 H   0  0  0  0  0  0  0  0  0  0  0  0  # atno 3443 bound_to 3412
   25.3274   22.0750   39.5506 H   0  0  0  0  0  0  0  0  0  0  0  0  # atno 3504 bound_to 3478
   23.7598   20.3883   46.0052 H   0  0  0  0  0  0  0  0  0  0  0  0  # atno 3659 bound_to 3632
   35.5369   -1.9575   42.2309 H   0  0  0  0  0  0  0  0  0  0  0  0  # atno 5626 bound_to 5608
   30.4813   -1.3149   40.9835 H   0  0  0  0  0  0  0  0  0  0  0  0  # atno 5728 bound_to 5706
   30.7125   -3.2047   38.6628 H   0  0  0  0  0  0  0  0  0  0  0  0  # atno 5773 bound_to 5761
   33.6060   -1.3287   36.5075 H   0  0  0  0  0  0  0  0  0  0  0  0  # atno 5777 bound_to 5766
   30.0695   -6.2635   37.1127 H   0  0  0  0  0  0  0  0  0  0  0  0  # atno 5929 bound_to 5907
   30.5986   -8.2739   35.7402 H   0  0  0  0  0  0  0  0  0  0  0  0  # atno 6001 bound_to 5979
   32.6906  -10.2549   36.4592 H   0  0  0  0  0  0  0  0  0  0  0  0  # atno 6064 bound_to 6048
   29.8228  -11.1981   35.2841 H   0  0  0  0  0  0  0  0  0  0  0  0  # atno 6109 bound_to 6101
   26.9012  -13.3099   37.1267 H   0  0  0  0  0  0  0  0  0  0  0  0  # atno 6151 bound_to 6129
    9.7269   24.2985   35.3762 H   0  0  0  0  0  0  0  0  0  0  0  0  # atno 6282 bound_to 6255
   18.4193    6.9290   46.3966 H   0  0  0  0  0  0  0  0  0  0  0  0  # atno 7636 bound_to 7620
   21.6024    2.5122   44.4842 H   0  0  0  0  0  0  0  0  0  0  0  0  # atno 7732 bound_to 7714
   22.2609    5.7177   41.8008 H   0  0  0  0  0  0  0  0  0  0  0  0  # atno 7742 bound_to 7722
   23.4505    6.7636   41.3137 H   0  0  0  0  0  0  0  0  0  0  0  0  # atno 7743 bound_to 7722
   22.0479    6.6385   40.4390 H   0  0  0  0  0  0  0  0  0  0  0  0  # atno 7744 bound_to 7722
   25.6104    0.9412   40.6382 H   0  0  0  0  0  0  0  0  0  0  0  0  # atno 7840 bound_to 7822
   26.6144    2.0608   43.1992 H   0  0  0  0  0  0  0  0  0  0  0  0  # atno 7882 bound_to 7866
   22.6935   13.0733   45.9096 H   0  0  0  0  0  0  0  0  0  0  0  0  # atno 8641 bound_to 8619
   10.7086   14.4086   46.0890 H   0  0  0  0  0  0  0  0  0  0  0  0  # atno 9190 bound_to 9168
   12.0337   18.8122   47.0294 H   0  0  0  0  0  0  0  0  0  0  0  0  # atno 9196 bound_to 9176
   14.8287   16.3313   47.9656 H   0  0  0  0  0  0  0  0  0  0  0  0  # atno 9198 bound_to 9178
   12.2957   14.9309   42.1781 H   0  0  0  0  0  0  0  0  0  0  0  0  # atno 9241 bound_to 9225
   13.2952   11.5428   41.2460 H   0  0  0  0  0  0  0  0  0  0  0  0  # atno 9292 bound_to 9280
   16.8961   10.3592   40.0802 H   0  0  0  0  0  0  0  0  0  0  0  0  # atno 9319 bound_to 9311
   18.8194    6.6496   40.4444 H   0  0  0  0  0  0  0  0  0  0  0  0  # atno 9349 bound_to 9335
   20.4542    6.7215   38.7010 H   0  0  0  0  0  0  0  0  0  0  0  0  # atno 9355 bound_to 9341
   16.4531    2.6791   36.1226 H   0  0  0  0  0  0  0  0  0  0  0  0  # atno 9439 bound_to 9421
   16.4239    1.2456   39.0038 H   0  0  0  0  0  0  0  0  0  0  0  0  # atno 9493 bound_to 9469
   21.2201   -2.3873   40.7917 H   0  0  0  0  0  0  0  0  0  0  0  0  # atno 9501 bound_to 9480
   13.7443    2.9500   39.9746 H   0  0  0  0  0  0  0  0  0  0  0  0  # atno 9544 bound_to 9528
   13.1084   11.1062   45.5483 H   0  0  0  0  0  0  0  0  0  0  0  0  # atno 10029 bound_to 10008
   14.0553  -10.1338   36.6004 H   0  0  0  0  0  0  0  0  0  0  0  0  # atno 10728 bound_to 10707
   19.1341   -8.4148   41.6428 H   0  0  0  0  0  0  0  0  0  0  0  0  # atno 10774 bound_to 10756
   21.4575   -7.3654   42.4947 H   0  0  0  0  0  0  0  0  0  0  0  0  # atno 10816 bound_to 10800
   21.1001  -11.2502   37.4357 H   0  0  0  0  0  0  0  0  0  0  0  0  # atno 10915 bound_to 10907
   21.1588   -8.8800   37.2626 H   0  0  0  0  0  0  0  0  0  0  0  0  # atno 10960 bound_to 10936
   17.0044  -13.7656   35.5482 H   0  0  0  0  0  0  0  0  0  0  0  0  # atno 10968 bound_to 10947
   13.5139   -4.3567   37.3346 H   0  0  0  0  0  0  0  0  0  0  0  0  # atno 11104 bound_to 11082
   13.7018   -4.7471   33.2257 H   0  0  0  0  0  0  0  0  0  0  0  0  # atno 11164 bound_to 11142
   14.6178   -1.4986   30.5643 H   0  0  0  0  0  0  0  0  0  0  0  0  # atno 11206 bound_to 11196
   14.8798   -1.0882   27.4443 H   0  0  0  0  0  0  0  0  0  0  0  0  # atno 11245 bound_to 11229
   14.6467    2.0108   26.1611 H   0  0  0  0  0  0  0  0  0  0  0  0  # atno 11284 bound_to 11266
   11.4955    4.8613   30.7669 H   0  0  0  0  0  0  0  0  0  0  0  0  # atno 11374 bound_to 11358
    9.0032    3.5109   30.2956 H   0  0  0  0  0  0  0  0  0  0  0  0  # atno 11434 bound_to 11416
   10.6879    2.1373   31.0189 H   0  0  0  0  0  0  0  0  0  0  0  0  # atno 11482 bound_to 11466
   12.6435    8.5743   35.4028 H   0  0  0  0  0  0  0  0  0  0  0  0  # atno 11559 bound_to 11538
    9.6677  -10.7812   38.3457 H   0  0  0  0  0  0  0  0  0  0  0  0  # atno 11995 bound_to 11973
   10.8414  -13.0603   38.2856 H   0  0  0  0  0  0  0  0  0  0  0  0  # atno 12067 bound_to 12045
   14.8976  -18.0344   37.8474 H   0  0  0  0  0  0  0  0  0  0  0  0  # atno 12157 bound_to 12142
   26.5791   16.1151   34.0671 H   0  0  0  0  0  0  0  0  0  0  0  0  # atno 15083 bound_to 15054
   26.2159   15.2349   35.4239 H   0  0  0  0  0  0  0  0  0  0  0  0  # atno 15084 bound_to 15054
   27.2499   14.6160   34.2860 H   0  0  0  0  0  0  0  0  0  0  0  0  # atno 15085 bound_to 15054
   31.0393   11.1047   30.7352 H   0  0  0  0  0  0  0  0  0  0  0  0  # atno 15194 bound_to 15161
   32.5104   10.7448   31.4095 H   0  0  0  0  0  0  0  0  0  0  0  0  # atno 15195 bound_to 15161
   32.2324   12.2536   30.7813 H   0  0  0  0  0  0  0  0  0  0  0  0  # atno 15196 bound_to 15161
   27.9361   10.8337   26.4941 H   0  0  0  0  0  0  0  0  0  0  0  0  # atno 15326 bound_to 15310
    9.2763  -11.8327   27.3196 H   0  0  0  0  0  0  0  0  0  0  0  0  # atno 15542 bound_to 15533
    7.6401  -14.9985   27.8102 H   0  0  0  0  0  0  0  0  0  0  0  0  # atno 15588 bound_to 15579
    9.2756  -17.7005   28.8552 H   0  0  0  0  0  0  0  0  0  0  0  0  # atno 15633 bound_to 15624
   11.1410  -15.7220   27.7574 LP  0  0  0  0  0  0  0  0  0  0  0  0  # atno 16458 bound_to 15536
   11.3650  -14.0163   27.9586 LP  0  0  0  0  0  0  0  0  0  0  0  0  # atno 16459 bound_to 15536
   16.7499  -13.7788   33.9412 LP  0  0  0  0  0  0  0  0  0  0  0  0  # atno 16460 bound_to 10947
   15.7169  -12.9876   34.9280 LP  0  0  0  0  0  0  0  0  0  0  0  0  # atno 16461 bound_to 10947
   13.2980  -11.1691   37.6017 LP  0  0  0  0  0  0  0  0  0  0  0  0  # atno 16466 bound_to 10707
   14.7699  -11.5401   36.9998 LP  0  0  0  0  0  0  0  0  0  0  0  0  # atno 16467 bound_to 10707
   22.2832  -13.0172   36.2238 LP  0  0  0  0  0  0  0  0  0  0  0  0  # atno 16468 bound_to 10881
   20.5732  -12.9290   35.9629 LP  0  0  0  0  0  0  0  0  0  0  0  0  # atno 16469 bound_to 10881
   22.3039   -8.5675   34.0871 LP  0  0  0  0  0  0  0  0  0  0  0  0  # atno 16470 bound_to 10910
   23.6496   -8.2163   35.1195 LP  0  0  0  0  0  0  0  0  0  0  0  0  # atno 16471 bound_to 10910
   21.3124   -9.7401   35.7508 LP  0  0  0  0  0  0  0  0  0  0  0  0  # atno 16472 bound_to 10936
   16.6916   -6.4253   35.0412 LP  0  0  0  0  0  0  0  0  0  0  0  0  # atno 16473 bound_to 10997
   15.2287   -7.1381   35.6344 LP  0  0  0  0  0  0  0  0  0  0  0  0  # atno 16474 bound_to 10997
   11.8818  -11.3886   38.6421 LP  0  0  0  0  0  0  0  0  0  0  0  0  # atno 16475 bound_to 11976
   12.2316  -11.6693   36.9691 LP  0  0  0  0  0  0  0  0  0  0  0  0  # atno 16476 bound_to 11976
   11.9829  -15.9627   36.6422 LP  0  0  0  0  0  0  0  0  0  0  0  0  # atno 16477 bound_to 12048
   12.5211  -17.1558   37.7766 LP  0  0  0  0  0  0  0  0  0  0  0  0  # atno 16478 bound_to 12048
   17.9967   -8.7470   37.4147 LP  0  0  0  0  0  0  0  0  0  0  0  0  # atno 16480 bound_to 10939
   19.3036   -8.1500   38.3820 LP  0  0  0  0  0  0  0  0  0  0  0  0  # atno 16481 bound_to 10939
   12.2185   -7.3519   35.7609 LP  0  0  0  0  0  0  0  0  0  0  0  0  # atno 16483 bound_to 11039
   11.2289   -6.2607   36.6718 LP  0  0  0  0  0  0  0  0  0  0  0  0  # atno 16484 bound_to 11039
   10.6271  -14.7422   37.8660 LP  0  0  0  0  0  0  0  0  0  0  0  0  # atno 16485 bound_to 12045
    7.7417  -12.1320   26.5383 LP  0  0  0  0  0  0  0  0  0  0  0  0  # atno 16490 bound_to 15533
    9.3498  -14.6097   27.8155 LP  0  0  0  0  0  0  0  0  0  0  0  0  # atno 16491 bound_to 15579
    9.6528  -18.0948   26.9532 LP  0  0  0  0  0  0  0  0  0  0  0  0  # atno 16492 bound_to 15582
    8.0496  -17.4628   27.1267 LP  0  0  0  0  0  0  0  0  0  0  0  0  # atno 16493 bound_to 15582
    9.8220  -18.0436   30.4820 LP  0  0  0  0  0  0  0  0  0  0  0  0  # atno 16494 bound_to 15624
   22.3181  -10.9880   38.6659 LP  0  0  0  0  0  0  0  0  0  0  0  0  # atno 16495 bound_to 10907
   24.9945  -10.8407   37.3456 LP  0  0  0  0  0  0  0  0  0  0  0  0  # atno 16496 bound_to 6104
   25.8324   -9.9047   36.1532 LP  0  0  0  0  0  0  0  0  0  0  0  0  # atno 16497 bound_to 6104
   27.3596  -11.6510   37.4269 LP  0  0  0  0  0  0  0  0  0  0  0  0  # atno 16498 bound_to 6129
   28.7789   -9.1268   33.9680 LP  0  0  0  0  0  0  0  0  0  0  0  0  # atno 16499 bound_to 5910
   30.2994   -9.0641   33.1407 LP  0  0  0  0  0  0  0  0  0  0  0  0  # atno 16500 bound_to 5910
   29.3216  -11.0194   36.9451 LP  0  0  0  0  0  0  0  0  0  0  0  0  # atno 16501 bound_to 6101
   28.4920   -8.9641   36.1923 LP  0  0  0  0  0  0  0  0  0  0  0  0  # atno 16502 bound_to 5850
   28.7947   -9.5977   37.7756 LP  0  0  0  0  0  0  0  0  0  0  0  0  # atno 16503 bound_to 5850
   28.4913   -6.9842   37.3115 LP  0  0  0  0  0  0  0  0  0  0  0  0  # atno 16504 bound_to 5907
   28.6432  -13.6328   35.9739 LP  0  0  0  0  0  0  0  0  0  0  0  0  # atno 16505 bound_to 6051
   30.1285  -14.1076   36.7277 LP  0  0  0  0  0  0  0  0  0  0  0  0  # atno 16506 bound_to 6051
   31.6557  -11.4153   33.6123 LP  0  0  0  0  0  0  0  0  0  0  0  0  # atno 16507 bound_to 5982
   32.9839  -11.9552   34.5841 LP  0  0  0  0  0  0  0  0  0  0  0  0  # atno 16508 bound_to 5982
   31.4597   -6.9930   34.9137 LP  0  0  0  0  0  0  0  0  0  0  0  0  # atno 16509 bound_to 5979
   31.0323   -9.8697   36.0596 LP  0  0  0  0  0  0  0  0  0  0  0  0  # atno 16510 bound_to 6048
   13.1732   -4.8913   30.6328 LP  0  0  0  0  0  0  0  0  0  0  0  0  # atno 16511 bound_to 11145
   12.0772   -3.5858   30.3258 LP  0  0  0  0  0  0  0  0  0  0  0  0  # atno 16512 bound_to 11145
   14.6191   -3.2002   30.1309 LP  0  0  0  0  0  0  0  0  0  0  0  0  # atno 16513 bound_to 11196
   15.7856    0.6215   28.4332 LP  0  0  0  0  0  0  0  0  0  0  0  0  # atno 16514 bound_to 11199
   16.0941   -0.8648   29.2671 LP  0  0  0  0  0  0  0  0  0  0  0  0  # atno 16515 bound_to 11199
   13.4585   -0.8735   26.4405 LP  0  0  0  0  0  0  0  0  0  0  0  0  # atno 16516 bound_to 11229
   13.0941   -3.1957   33.7370 LP  0  0  0  0  0  0  0  0  0  0  0  0  # atno 16525 bound_to 11142
   14.4069   -1.5209   34.2090 LP  0  0  0  0  0  0  0  0  0  0  0  0  # atno 16530 bound_to 11085
   14.9682   -2.4654   35.5480 LP  0  0  0  0  0  0  0  0  0  0  0  0  # atno 16531 bound_to 11085
   13.9622   -5.5574   36.1424 LP  0  0  0  0  0  0  0  0  0  0  0  0  # atno 16533 bound_to 11082
   16.9478    2.1377   25.7529 LP  0  0  0  0  0  0  0  0  0  0  0  0  # atno 16538 bound_to 11232
   16.1037    3.4301   26.5384 LP  0  0  0  0  0  0  0  0  0  0  0  0  # atno 16539 bound_to 11232
   13.6380    1.3701   27.4475 LP  0  0  0  0  0  0  0  0  0  0  0  0  # atno 16542 bound_to 11266
   15.4337    3.1679   37.4508 LP  0  0  0  0  0  0  0  0  0  0  0  0  # atno 16548 bound_to 9421
   11.8621    2.2987   28.6097 LP  0  0  0  0  0  0  0  0  0  0  0  0  # atno 16549 bound_to 11269
   12.4510    2.6743   30.1947 LP  0  0  0  0  0  0  0  0  0  0  0  0  # atno 16550 bound_to 11269
   11.8574    3.9239   32.7799 LP  0  0  0  0  0  0  0  0  0  0  0  0  # atno 16552 bound_to 11318
   10.2430    3.9342   32.1526 LP  0  0  0  0  0  0  0  0  0  0  0  0  # atno 16553 bound_to 11318
   10.0840    0.5108   30.7793 LP  0  0  0  0  0  0  0  0  0  0  0  0  # atno 16554 bound_to 11466
   11.0762    5.1963   29.1134 LP  0  0  0  0  0  0  0  0  0  0  0  0  # atno 16555 bound_to 11358
   12.7157    8.5919   33.7775 LP  0  0  0  0  0  0  0  0  0  0  0  0  # atno 16556 bound_to 11538
   13.5200    7.4483   34.6213 LP  0  0  0  0  0  0  0  0  0  0  0  0  # atno 16557 bound_to 11538
   17.9569    8.3571   37.8341 LP  0  0  0  0  0  0  0  0  0  0  0  0  # atno 16558 bound_to 9314
   16.8407    9.3419   38.7196 LP  0  0  0  0  0  0  0  0  0  0  0  0  # atno 16559 bound_to 9314
   17.2950    7.2860   39.8756 LP  0  0  0  0  0  0  0  0  0  0  0  0  # atno 16560 bound_to 9335
   15.4898    4.3244   38.9935 LP  0  0  0  0  0  0  0  0  0  0  0  0  # atno 16561 bound_to 9338
   16.8514    4.6284   40.0200 LP  0  0  0  0  0  0  0  0  0  0  0  0  # atno 16562 bound_to 9338
   21.2313    5.5085   37.9436 LP  0  0  0  0  0  0  0  0  0  0  0  0  # atno 16563 bound_to 9341
   21.1250    5.5221   39.5731 LP  0  0  0  0  0  0  0  0  0  0  0  0  # atno 16564 bound_to 9341
   13.8194    3.1388   38.7134 LP  0  0  0  0  0  0  0  0  0  0  0  0  # atno 16565 bound_to 9380
   13.0487    2.7515   37.2114 LP  0  0  0  0  0  0  0  0  0  0  0  0  # atno 16566 bound_to 9380
   15.1590    2.4535   39.0718 LP  0  0  0  0  0  0  0  0  0  0  0  0  # atno 16567 bound_to 9469
   29.0428   -4.4504   38.0263 LP  0  0  0  0  0  0  0  0  0  0  0  0  # atno 16570 bound_to 5709
   30.0156   -3.9115   36.6983 LP  0  0  0  0  0  0  0  0  0  0  0  0  # atno 16571 bound_to 5709
   26.5301    0.7313   42.1076 LP  0  0  0  0  0  0  0  0  0  0  0  0  # atno 16574 bound_to 7822
   29.0980    4.0988   41.0734 LP  0  0  0  0  0  0  0  0  0  0  0  0  # atno 16575 bound_to 7825
   29.3696    3.8625   42.7676 LP  0  0  0  0  0  0  0  0  0  0  0  0  # atno 16576 bound_to 7825
   30.1107   -3.0035   41.2236 LP  0  0  0  0  0  0  0  0  0  0  0  0  # atno 16579 bound_to 5706
   31.7260   -1.7799   38.6986 LP  0  0  0  0  0  0  0  0  0  0  0  0  # atno 16580 bound_to 5761
   34.2366   -2.6171   35.7400 LP  0  0  0  0  0  0  0  0  0  0  0  0  # atno 16581 bound_to 5766
   35.1781   -1.6970   36.7062 LP  0  0  0  0  0  0  0  0  0  0  0  0  # atno 16582 bound_to 5766
   28.2386   -0.6277   43.0084 LP  0  0  0  0  0  0  0  0  0  0  0  0  # atno 16583 bound_to 7781
   28.5384    0.9802   42.4384 LP  0  0  0  0  0  0  0  0  0  0  0  0  # atno 16584 bound_to 7781
   27.2237    3.3610   42.1967 LP  0  0  0  0  0  0  0  0  0  0  0  0  # atno 16585 bound_to 7866
   14.6120   -0.9475   38.5159 LP  0  0  0  0  0  0  0  0  0  0  0  0  # atno 16593 bound_to 9424
   14.6462   -0.3173   40.1289 LP  0  0  0  0  0  0  0  0  0  0  0  0  # atno 16594 bound_to 9424
   19.9434   -3.2484   41.3177 LP  0  0  0  0  0  0  0  0  0  0  0  0  # atno 16595 bound_to 9480
   20.9168   -2.4900   42.3872 LP  0  0  0  0  0  0  0  0  0  0  0  0  # atno 16596 bound_to 9480
   20.5080    2.5939   42.8912 LP  0  0  0  0  0  0  0  0  0  0  0  0  # atno 16597 bound_to 7659
   19.3274    2.6932   44.1546 LP  0  0  0  0  0  0  0  0  0  0  0  0  # atno 16598 bound_to 7659
   25.3803    2.0507   43.3598 LP  0  0  0  0  0  0  0  0  0  0  0  0  # atno 16599 bound_to 7717
   24.8900    1.2545   44.8177 LP  0  0  0  0  0  0  0  0  0  0  0  0  # atno 16600 bound_to 7717
   22.8122    1.5240   45.2734 LP  0  0  0  0  0  0  0  0  0  0  0  0  # atno 16601 bound_to 7714
   17.6010   -5.8725   41.9049 LP  0  0  0  0  0  0  0  0  0  0  0  0  # atno 16602 bound_to 10532
   19.0459   -4.9278   42.0457 LP  0  0  0  0  0  0  0  0  0  0  0  0  # atno 16603 bound_to 10532
   16.9437   10.4859   41.8218 LP  0  0  0  0  0  0  0  0  0  0  0  0  # atno 16604 bound_to 9311
   26.5617   11.7042   26.5411 LP  0  0  0  0  0  0  0  0  0  0  0  0  # atno 16607 bound_to 15310
   27.3201   11.4467   25.1180 LP  0  0  0  0  0  0  0  0  0  0  0  0  # atno 16608 bound_to 15310
   17.1898    7.7510   44.7726 LP  0  0  0  0  0  0  0  0  0  0  0  0  # atno 16611 bound_to 7554
   18.6532    8.6775   44.7695 LP  0  0  0  0  0  0  0  0  0  0  0  0  # atno 16612 bound_to 7554
   22.6034    4.3744   44.9193 LP  0  0  0  0  0  0  0  0  0  0  0  0  # atno 16613 bound_to 7623
   21.9999    5.5241   43.7730 LP  0  0  0  0  0  0  0  0  0  0  0  0  # atno 16614 bound_to 7623
   13.8515   12.2923   42.7107 LP  0  0  0  0  0  0  0  0  0  0  0  0  # atno 16615 bound_to 9280
   14.8102    8.6793   41.8226 LP  0  0  0  0  0  0  0  0  0  0  0  0  # atno 16616 bound_to 9283
   15.5062    9.3169   43.2748 LP  0  0  0  0  0  0  0  0  0  0  0  0  # atno 16617 bound_to 9283
   13.6516   14.7039   40.5732 LP  0  0  0  0  0  0  0  0  0  0  0  0  # atno 16618 bound_to 9228
   15.0031   13.6397   40.3707 LP  0  0  0  0  0  0  0  0  0  0  0  0  # atno 16619 bound_to 9228
   19.8198    6.8665   47.4277 LP  0  0  0  0  0  0  0  0  0  0  0  0  # atno 16620 bound_to 7620
   10.8990   14.1424   42.8681 LP  0  0  0  0  0  0  0  0  0  0  0  0  # atno 16628 bound_to 9225
   14.5470    2.7988   41.5196 LP  0  0  0  0  0  0  0  0  0  0  0  0  # atno 16635 bound_to 9528
   23.4164   20.1051   36.3385 LP  0  0  0  0  0  0  0  0  0  0  0  0  # atno 16636 bound_to 3357
   23.8793   20.2191   38.0036 LP  0  0  0  0  0  0  0  0  0  0  0  0  # atno 16637 bound_to 3357
   21.4158   21.6234   39.9378 LP  0  0  0  0  0  0  0  0  0  0  0  0  # atno 16638 bound_to 3415
   22.4547   20.3966   40.5825 LP  0  0  0  0  0  0  0  0  0  0  0  0  # atno 16639 bound_to 3415
   24.1118   23.0381   36.5596 LP  0  0  0  0  0  0  0  0  0  0  0  0  # atno 16640 bound_to 3412
   23.6117   21.8639   39.8272 LP  0  0  0  0  0  0  0  0  0  0  0  0  # atno 16641 bound_to 3478
    9.1145   15.1964   43.3219 LP  0  0  0  0  0  0  0  0  0  0  0  0  # atno 16646 bound_to 9102
    8.3613   13.7735   43.9606 LP  0  0  0  0  0  0  0  0  0  0  0  0  # atno 16647 bound_to 9102
    9.8823   15.8655   45.5996 LP  0  0  0  0  0  0  0  0  0  0  0  0  # atno 16648 bound_to 9168
   14.9688   17.7985   47.2760 LP  0  0  0  0  0  0  0  0  0  0  0  0  # atno 16649 bound_to 9178
   14.9162   16.4575   46.3456 LP  0  0  0  0  0  0  0  0  0  0  0  0  # atno 16650 bound_to 9178
   10.9811   23.8190   36.2952 LP  0  0  0  0  0  0  0  0  0  0  0  0  # atno 16654 bound_to 6255
   10.0407   25.0640   36.7773 LP  0  0  0  0  0  0  0  0  0  0  0  0  # atno 16655 bound_to 6255
   13.4641   18.9175   47.7990 LP  0  0  0  0  0  0  0  0  0  0  0  0  # atno 16656 bound_to 9176
   12.1805   18.2377   48.5452 LP  0  0  0  0  0  0  0  0  0  0  0  0  # atno 16657 bound_to 9176

> <Gold.Score>
     Fitness  S(hb_ext) S(vdw_ext)  S(hb_int)    S(int)      intcor
     27.22       1.55      18.82       0.00      -0.21      -0.76

> <Gold.Goldscore.Fitness>
27.2219

> <Gold.Goldscore.Internal.Vdw>
-0.5580

> <Gold.Goldscore.Internal.Torsion>
-0.4105

> <Gold.Goldscore.External.Vdw>
18.8219

> <Gold.Goldscore.Internal.HBond>
0.0000

> <Gold.Goldscore.External.HBond>
1.5538

> <Gold.Goldscore.Internal.Correction>
-0.7565

> <Gold.Goldscore.Hbonds>
donor molecule, donor type, donor heavy atom, donor atom, acceptor molecule, acceptor atom, score
      L1  H     8    22       P1 11199  0.78

> <Gold.Goldscore.Internal.Vdw.Weighted>
-0.5580

> <Gold.Goldscore.Internal.Torsion.Weighted>
-0.4105

> <Gold.Goldscore.External.Vdw.Weighted>
25.8801

> <Gold.Goldscore.Internal.HBond.Weighted>
0.0000

> <Gold.Goldscore.External.HBond.Weighted>
1.5538

> <Gold.Goldscore.Internal.Correction.Weighted>
-0.7565

> <Gold.Rescore>
     Score     S(PLP)   S(hbond)     S(cho)   S(metal)  DE(clash)   DE(tors)     intcor
     24.10     -21.66       0.99       0.00       0.00       0.00       0.27       ----

> <Gold.PLP.Fitness>
24.0974

> <Gold.PLP.PLP>
-21.6586

> <Gold.PLP.part.hbond>
-1.2712

> <Gold.PLP.part.metal>
0.0000

> <Gold.PLP.part.buried>
-3.2121

> <Gold.PLP.part.nonpolar>
-18.1016

> <Gold.PLP.part.repulsive>
1.0074

> <Gold.PLP.ligand.clash>
0.0000

> <Gold.PLP.ligand.torsion>
0.2675

> <Gold.PLP.Chemscore.Hbond>
0.9913

> <Gold.PLP.Chemscore.CHOScore>
0.0000

> <Gold.PLP.Chemscore.Metal>
0.0000

> <Gold.Chemscore.Hbonds>
donor molecule, donor type, donor heavy atom, donor atom, acceptor molecule, acceptor atom, score
      L1  H     8    22       P1 11199  0.44

> <Gold.PLP.Chemscore.Internal.Correction>
   9.000000E+99

#       Name:                CT1002167954
#       Creating user name   hitesit
#       Creation time:       Sun Apr 16 22:54:29 2023


#       File generated by GOLD software.
#

@<TRIPOS>MOLECULE
CT1002167954|ligand_prepared|mol2|1|dock9
    29    30     1
SMALL
NO_CHARGES


@<TRIPOS>ATOM
      1 C1          13.0610 -11.8294  32.4698 C.3            1 RES1               0.0000
      2 C2          12.8767 -10.3055  32.6198 C.ar           1 RES1               0.0000
      3 C3          11.7021 -12.3867  32.0560 C.2            1 RES1               0.0000
      4 C4          14.1572 -12.0261  31.4285 C.2            1 RES1               0.0000
      5 C5          13.5060 -12.5361  33.7713 C.3            1 RES1               0.0000
      6 C6          12.3015  -9.5572  31.5971 C.ar           1 RES1               0.0000
      7 C7          13.2738  -9.6356  33.7740 C.ar           1 RES1               0.0000
      8 N8          11.5505 -12.7852  30.7606 N.am           1 RES1               0.0000
      9 O9          10.7660 -12.4388  32.8442 O.2            1 RES1               0.0000
     10 N10         13.8155 -12.6163  30.2400 N.am           1 RES1               0.0000
     11 O11         15.3104 -11.6602  31.6200 O.2            1 RES1               0.0000
     12 C12         13.5567 -14.0518  33.6596 C.3            1 RES1               0.0000
     13 C13         12.1268  -8.1892  31.7247 C.ar           1 RES1               0.0000
     14 C14         13.0984  -8.2674  33.8994 C.ar           1 RES1               0.0000
     15 C15         12.5554 -12.9769  29.8468 C.2            1 RES1               0.0000
     16 C16         12.5247  -7.5434  32.8759 C.ar           1 RES1               0.0000
     17 O17         12.3191 -13.4524  28.7400 O.2            1 RES1               0.0000
     18 H18         14.5016 -12.1691  34.0497 H              1 RES1               0.0000
     19 H19         12.8115 -12.2645  34.5758 H              1 RES1               0.0000
     20 H20         11.9845 -10.0477  30.6828 H              1 RES1               0.0000
     21 H21         13.7284 -10.1846  34.5916 H              1 RES1               0.0000
     22 H22         10.6021 -12.9564  30.4418 H              1 RES1               0.0000
     23 H23         14.5703 -12.8045  29.5880 H              1 RES1               0.0000
     24 H24         13.8745 -14.4974  34.5998 H              1 RES1               0.0000
     25 H25         12.5770 -14.4530  33.4084 H              1 RES1               0.0000
     26 H26         14.2571 -14.3582  32.8854 H              1 RES1               0.0000
     27 H27         11.6761  -7.6238  30.9158 H              1 RES1               0.0000
     28 H28         13.4136  -7.7632  34.8070 H              1 RES1               0.0000
     29 H29         12.3874  -6.4718  32.9758 H              1 RES1               0.0000
@<TRIPOS>BOND
    1    1    2 1     
    2    1    3 1     
    3    1    4 1     
    4    1    5 1     
    5    2    6 ar    
    6    2    7 ar    
    7    3    8 1     
    8    3    9 2     
    9    4   10 1     
   10    4   11 2     
   11    5   12 1     
   12    5   18 1     
   13    5   19 1     
   14    6   13 ar    
   15    6   20 1     
   16    7   14 ar    
   17    7   21 1     
   18    8   15 1     
   19    8   22 1     
   20   10   15 1     
   21   10   23 1     
   22   12   24 1     
   23   12   25 1     
   24   12   26 1     
   25   13   16 ar    
   26   13   27 1     
   27   14   16 ar    
   28   14   28 1     
   29   15   17 2     
   30   16   29 1     
@<TRIPOS>SUBSTRUCTURE
      1 RES1           1
@<TRIPOS>SET
DONOR_HYDROGENS      STATIC     ATOMS    <user>   **** ""
2 22 23
ATOM$RED        STATIC     ATOMS    COLORGROUP SYSTEM
2 22 23
@<TRIPOS>COMMENT
> <Gold.Version>
2022.3.0

> <Gold.Id.Protein>
unknown|3mvj_clean|pdb

> <Gold.Protein.RotatedTorsions>
[ 10968 10947 10946 10944 ] final  155.63 input   60.01 | X-H torsion
[ 10728 10707 10706 10704 ] final  -66.61 input   59.96 | X-H torsion
[ 10960 10936 10937 10938 ] final -170.75 input   23.31 | X-H torsion
[ 12067 12045 12046 12047 ] final   41.21 input   63.71 | X-H torsion
[ 15542 15533 15534 15535 ] final   24.23 input   83.29 | X-H torsion
[ 15588 15579 15580 15581 ] final  -80.76 input  107.67 | X-H torsion
[ 15633 15624 15625 15626 ] final    1.85 input   84.82 | X-H torsion
[ 10915 10907 10908 10909 ] final -153.48 input  -87.38 | X-H torsion
[ 6151 6129 6130 6131 ] final   -8.80 input   27.76 | X-H torsion
[ 6109 6101 6102 6103 ] final -138.79 input  -93.79 | X-H torsion
[ 5929 5907 5908 5909 ] final  -15.75 input  119.25 | X-H torsion
[ 6001 5979 5980 5981 ] final  -19.68 input  112.51 | X-H torsion
[ 6064 6048 6049 6050 ] final  -66.11 input  108.26 | X-H torsion
[ 11206 11196 11197 11198 ] final    9.21 input   -0.63 | X-H torsion
[ 11245 11229 11230 11231 ] final   79.91 input  120.69 | X-H torsion
[ 11164 11142 11143 11144 ] final   -9.72 input   33.88 | X-H torsion
[ 11104 11082 11083 11084 ] final -118.13 input   45.00 | X-H torsion
[ 11284 11266 11267 11268 ] final -179.64 input   49.58 | X-H torsion
[ 9439 9421 9422 9423 ] final   13.73 input  116.39 | X-H torsion
[ 11482 11466 11467 11468 ] final  179.51 input  126.08 | X-H torsion
[ 11374 11358 11359 11360 ] final   27.77 input   98.08 | X-H torsion
[ 11559 11538 11537 11535 ] final  113.45 input   60.01 | X-H torsion
[ 9349 9335 9336 9337 ] final   20.85 input   84.14 | X-H torsion
[ 9355 9341 9339 9336 ] final   60.02 input   60.02 | X-H torsion
[ 9493 9469 9470 9471 ] final -131.50 input   75.21 | X-H torsion
[ 7840 7822 7823 7824 ] final  114.33 input  121.36 | X-H torsion
[ 7742 7722 7721 7720 ] final  144.39 input   60.01 | X-H torsion
[ 5728 5706 5707 5708 ] final   30.61 input  119.20 | X-H torsion
[ 5773 5761 5762 5763 ] final  -72.45 input  120.20 | X-H torsion
[ 5777 5766 5765 5762 ] final   -4.70 input   59.99 | X-H torsion
[ 7882 7866 7867 7868 ] final  -73.52 input   81.17 | X-H torsion
[ 9501 9480 9479 9477 ] final  -15.91 input   60.03 | X-H torsion
[ 7732 7714 7715 7716 ] final  158.08 input  -10.67 | X-H torsion
[ 15083 15054 15053 15052 ] final -111.55 input   60.01 | X-H torsion
[ 9319 9311 9312 9313 ] final   51.81 input  -66.31 | X-H torsion
[ 15194 15161 15160 15159 ] final  142.96 input   59.99 | X-H torsion
[ 15326 15310 15309 15306 ] final -166.42 input   59.99 | X-H torsion
[ 9292 9280 9281 9282 ] final -100.98 input   22.77 | X-H torsion
[ 7636 7620 7621 7622 ] final -144.22 input   34.37 | X-H torsion
[ 9241 9225 9226 9227 ] final  -55.80 input   96.07 | X-H torsion
[ 9544 9528 9529 9530 ] final -149.23 input   99.68 | X-H torsion
[ 3443 3412 3413 3414 ] final -161.36 input -120.58 | X-H torsion
[ 3504 3478 3479 3480 ] final  -67.12 input   70.69 | X-H torsion
[ 9190 9168 9169 9170 ] final -148.72 input  115.65 | X-H torsion
[ 9198 9178 9175 9174 ] final   44.52 input   59.98 | X-H torsion
[ 6282 6255 6254 6251 ] final  128.90 input   60.00 | X-H torsion
[ 9196 9176 9175 9174 ] final  -86.24 input   60.01 | X-H torsion
[ 12157 12142 12143 12144 ] final   29.80 input  108.55 | X-H torsion
[ 11995 11973 11974 11975 ] final  -61.07 input   68.31 | X-H torsion
[ 11434 11416 11417 11418 ] final -169.06 input  102.35 | X-H torsion
[ 5626 5608 5609 5610 ] final   17.84 input  119.09 | X-H torsion
[ 10774 10756 10757 10758 ] final -143.60 input  129.22 | X-H torsion
[ 10816 10800 10801 10802 ] final -153.80 input  128.85 | X-H torsion
[ 8641 8619 8620 8621 ] final  150.63 input   87.35 | X-H torsion
[ 3659 3632 3633 3634 ] final    5.88 input  116.97 | X-H torsion
[ 10029 10008 10007 10005 ] final  -49.68 input   60.01 | X-H torsion
[ 16458 15536 15535 15534 ] final  -99.84 input    0.00 | X-H torsion
[ 16468 10881 10880 10879 ] final  126.56 input    0.00 | X-H torsion
[ 16470 10910 10909 10908 ] final  144.84 input    0.00 | X-H torsion
[ 16473 10997 10996 10995 ] final  168.75 input    0.00 | X-H torsion
[ 16475 11976 11975 11974 ] final  -74.53 input    0.00 | X-H torsion
[ 16477 12048 12047 12046 ] final   94.22 input    0.00 | X-H torsion
[ 16480 10939 10938 10937 ] final  -84.38 input   -0.00 | X-H torsion
[ 16483 11039 11038 11037 ] final   95.62 input    0.00 | X-H torsion
[ 16492 15582 15581 15580 ] final   54.84 input    0.00 | X-H torsion
[ 16496 6104 6103 6102 ] final -140.63 input    0.00 | X-H torsion
[ 16499 5910 5909 5908 ] final -165.94 input   -0.00 | X-H torsion
[ 16502 5850 5849 5848 ] final  113.91 input    0.00 | X-H torsion
[ 16505 6051 6050 6049 ] final   43.59 input    0.00 | X-H torsion
[ 16507 5982 5981 5980 ] final    5.62 input    0.00 | X-H torsion
[ 16511 11145 11144 11143 ] final  164.53 input    0.00 | X-H torsion
[ 16514 11199 11198 11197 ] final  126.56 input    0.00 | X-H torsion
[ 16530 11085 11084 11083 ] final -136.41 input   -0.00 | X-H torsion
[ 16538 11232 11231 11230 ] final  142.03 input    0.00 | X-H torsion
[ 16549 11269 11268 11267 ] final -111.09 input   -0.00 | X-H torsion
[ 16552 11318 11317 11316 ] final  -91.41 input    0.00 | X-H torsion
[ 16558 9314 9313 9312 ] final   -7.03 input    0.00 | X-H torsion
[ 16561 9338 9337 9336 ] final   36.56 input    0.00 | X-H torsion
[ 16565 9380 9379 9378 ] final  -30.94 input    0.00 | X-H torsion
[ 16570 5709 5708 5707 ] final  -91.41 input    0.00 | X-H torsion
[ 16575 7825 7824 7823 ] final   75.94 input    0.00 | X-H torsion
[ 16583 7781 7780 7779 ] final  143.44 input   -0.00 | X-H torsion
[ 16593 9424 9423 9422 ] final -106.88 input   -0.00 | X-H torsion
[ 16597 7659 7658 7657 ] final  -90.00 input   -0.00 | X-H torsion
[ 16599 7717 7716 7715 ] final  -35.16 input    0.00 | X-H torsion
[ 16602 10532 10531 10530 ] final  -70.31 input    0.00 | X-H torsion
[ 16611 7554 7553 7552 ] final  171.56 input    0.00 | X-H torsion
[ 16613 7623 7622 7621 ] final  -15.47 input   -0.00 | X-H torsion
[ 16616 9283 9282 9281 ] final   99.84 input    0.00 | X-H torsion
[ 16618 9228 9227 9226 ] final  -16.88 input   -0.00 | X-H torsion
[ 16636 3357 3356 3355 ] final -146.25 input   -0.00 | X-H torsion
[ 16638 3415 3414 3413 ] final  174.37 input   -0.00 | X-H torsion
[ 16646 9102 9101 9100 ] final  178.59 input    0.00 | X-H torsion

> <Gold.Protein.ActiveResidues>
 ARG45   SER53   PHE54   LEU82   LYS83   GLN84   GLU86   HIS87   GLU127  PHE129 
 SER130  HIS131  LEU132  ARG133  ARG134  ILE135  GLY136  ARG137  PHE138  SER139 
 HIS142  ARG165  ASP166  LEU167  LYS168  PRO169  GLU170  ASN171  ASP184  GLY186 
 PHE187  TRP196  TPO197  LEU198  CYS199  GLY200  THR201  PRO202  GLU203  TYR204 
 LEU205  ILE209  ILE210  TYR215  VAL226  LEU227  TYR229  GLU230  MET231  ALA233 
 GLY234  TYR235  PRO236  PRO237  PHE238  PHE239  ALA240  ASP241  GLN242  PRO243 
 ILE244  GLN245  ILE246  TYR247  LYS249  ARG256  PHE257  PRO258  SER259  HIS260 
 PRO313  PHE314  ILE315  LYS317  LYS319  SER325  ASN326  ASP328  ASP329  GLU331 
 GLU332  GLU333  GLU334 

> <Gold.Protein.RotatedAtoms>
   24.4430   23.5704   36.8992 H   0  0  0  0  0  0  0  0  0  0  0  0  # atno 3443 bound_to 3412
   23.7421   22.2432   40.1466 H   0  0  0  0  0  0  0  0  0  0  0  0  # atno 3504 bound_to 3478
   23.9081   20.3987   45.7372 H   0  0  0  0  0  0  0  0  0  0  0  0  # atno 3659 bound_to 3632
   35.5676   -1.9244   42.0602 H   0  0  0  0  0  0  0  0  0  0  0  0  # atno 5626 bound_to 5608
   31.0821   -2.1936   40.7131 H   0  0  0  0  0  0  0  0  0  0  0  0  # atno 5728 bound_to 5706
   30.5539   -2.8180   38.2102 H   0  0  0  0  0  0  0  0  0  0  0  0  # atno 5773 bound_to 5761
   33.5160   -2.0831   35.9210 H   0  0  0  0  0  0  0  0  0  0  0  0  # atno 5777 bound_to 5766
   29.7156   -7.3866   37.2841 H   0  0  0  0  0  0  0  0  0  0  0  0  # atno 5929 bound_to 5907
   30.4560   -8.2860   35.4441 H   0  0  0  0  0  0  0  0  0  0  0  0  # atno 6001 bound_to 5979
   31.8987  -10.4118   35.4447 H   0  0  0  0  0  0  0  0  0  0  0  0  # atno 6064 bound_to 6048
   29.6596  -10.6082   35.4044 H   0  0  0  0  0  0  0  0  0  0  0  0  # atno 6109 bound_to 6101
   27.8165  -12.7611   37.7564 H   0  0  0  0  0  0  0  0  0  0  0  0  # atno 6151 bound_to 6129
   10.0399   25.0585   36.7726 H   0  0  0  0  0  0  0  0  0  0  0  0  # atno 6282 bound_to 6255
   18.5698    7.3616   46.4227 H   0  0  0  0  0  0  0  0  0  0  0  0  # atno 7636 bound_to 7620
   21.4907    2.3851   44.5353 H   0  0  0  0  0  0  0  0  0  0  0  0  # atno 7732 bound_to 7714
   23.4505    6.7607   41.3183 H   0  0  0  0  0  0  0  0  0  0  0  0  # atno 7742 bound_to 7722
   22.0521    6.6421   40.4370 H   0  0  0  0  0  0  0  0  0  0  0  0  # atno 7743 bound_to 7722
   22.2552    5.7168   41.7974 H   0  0  0  0  0  0  0  0  0  0  0  0  # atno 7744 bound_to 7722
   25.4186    1.2368   40.9495 H   0  0  0  0  0  0  0  0  0  0  0  0  # atno 7840 bound_to 7822
   27.7923    2.7493   42.4864 H   0  0  0  0  0  0  0  0  0  0  0  0  # atno 7882 bound_to 7866
   22.6872   12.8258   45.9765 H   0  0  0  0  0  0  0  0  0  0  0  0  # atno 8641 bound_to 8619
   10.0262   15.9739   45.7424 H   0  0  0  0  0  0  0  0  0  0  0  0  # atno 9190 bound_to 9168
   13.3984   18.9963   47.5529 H   0  0  0  0  0  0  0  0  0  0  0  0  # atno 9196 bound_to 9176
   14.9809   17.5021   46.5197 H   0  0  0  0  0  0  0  0  0  0  0  0  # atno 9198 bound_to 9178
   12.1148   14.2136   43.1584 H   0  0  0  0  0  0  0  0  0  0  0  0  # atno 9241 bound_to 9225
   13.3204   11.9029   41.1483 H   0  0  0  0  0  0  0  0  0  0  0  0  # atno 9292 bound_to 9280
   16.2187   10.0525   40.5730 H   0  0  0  0  0  0  0  0  0  0  0  0  # atno 9319 bound_to 9311
   17.3656    6.4545   40.3725 H   0  0  0  0  0  0  0  0  0  0  0  0  # atno 9349 bound_to 9335
   20.6260    6.3550   39.5080 H   0  0  0  0  0  0  0  0  0  0  0  0  # atno 9355 bound_to 9341
   16.0605    3.1150   37.6393 H   0  0  0  0  0  0  0  0  0  0  0  0  # atno 9439 bound_to 9421
   15.8661    0.9760   38.9790 H   0  0  0  0  0  0  0  0  0  0  0  0  # atno 9493 bound_to 9469
   20.7113   -2.7604   40.5626 H   0  0  0  0  0  0  0  0  0  0  0  0  # atno 9501 bound_to 9480
   14.7809    3.4233   41.0432 H   0  0  0  0  0  0  0  0  0  0  0  0  # atno 9544 bound_to 9528
   12.8538   11.4056   45.3186 H   0  0  0  0  0  0  0  0  0  0  0  0  # atno 10029 bound_to 10008
   13.9832  -10.1186   36.6315 H   0  0  0  0  0  0  0  0  0  0  0  0  # atno 10728 bound_to 10707
   18.2395   -7.6840   40.7150 H   0  0  0  0  0  0  0  0  0  0  0  0  # atno 10774 bound_to 10756
   22.0835   -6.9314   41.6169 H   0  0  0  0  0  0  0  0  0  0  0  0  # atno 10816 bound_to 10800
   22.4384  -11.3396   38.5381 H   0  0  0  0  0  0  0  0  0  0  0  0  # atno 10915 bound_to 10907
   21.8289   -9.3088   35.8471 H   0  0  0  0  0  0  0  0  0  0  0  0  # atno 10960 bound_to 10936
   17.0900  -13.9658   34.2495 H   0  0  0  0  0  0  0  0  0  0  0  0  # atno 10968 bound_to 10947
   13.3645   -5.7217   36.4487 H   0  0  0  0  0  0  0  0  0  0  0  0  # atno 11104 bound_to 11082
   12.7493   -4.0056   32.8958 H   0  0  0  0  0  0  0  0  0  0  0  0  # atno 11164 bound_to 11142
   15.2189   -1.7151   30.2006 H   0  0  0  0  0  0  0  0  0  0  0  0  # atno 11206 bound_to 11196
   13.4023   -0.6927   26.5390 H   0  0  0  0  0  0  0  0  0  0  0  0  # atno 11245 bound_to 11229
   14.3477    1.9806   25.9998 H   0  0  0  0  0  0  0  0  0  0  0  0  # atno 11284 bound_to 11266
   11.1427    4.3185   29.4678 H   0  0  0  0  0  0  0  0  0  0  0  0  # atno 11374 bound_to 11358
    9.1202    3.5359   28.9556 H   0  0  0  0  0  0  0  0  0  0  0  0  # atno 11434 bound_to 11416
   11.1372    0.9594   30.5812 H   0  0  0  0  0  0  0  0  0  0  0  0  # atno 11482 bound_to 11466
   13.0983    8.0771   33.6859 H   0  0  0  0  0  0  0  0  0  0  0  0  # atno 11559 bound_to 11538
    9.1334  -10.9718   38.5346 H   0  0  0  0  0  0  0  0  0  0  0  0  # atno 11995 bound_to 11973
   10.5949  -14.7692   37.9301 H   0  0  0  0  0  0  0  0  0  0  0  0  # atno 12067 bound_to 12045
   16.0508  -18.5554   37.2560 H   0  0  0  0  0  0  0  0  0  0  0  0  # atno 12157 bound_to 12142
   26.8410   14.4990   35.0538 H   0  0  0  0  0  0  0  0  0  0  0  0  # atno 15083 bound_to 15054
   27.1086   15.4896   33.7520 H   0  0  0  0  0  0  0  0  0  0  0  0  # atno 15084 bound_to 15054
   26.0962   15.9767   34.9705 H   0  0  0  0  0  0  0  0  0  0  0  0  # atno 15085 bound_to 15054
   32.0683   10.4910   31.3324 H   0  0  0  0  0  0  0  0  0  0  0  0  # atno 15194 bound_to 15161
   32.6290   12.0178   31.0118 H   0  0  0  0  0  0  0  0  0  0  0  0  # atno 15195 bound_to 15161
   31.0850   11.5937   30.5821 H   0  0  0  0  0  0  0  0  0  0  0  0  # atno 15196 bound_to 15161
   27.8261   10.8774   26.6604 H   0  0  0  0  0  0  0  0  0  0  0  0  # atno 15326 bound_to 15310
    8.9693  -12.0735   27.6684 H   0  0  0  0  0  0  0  0  0  0  0  0  # atno 15542 bound_to 15533
    9.4007  -14.6827   27.7913 H   0  0  0  0  0  0  0  0  0  0  0  0  # atno 15588 bound_to 15579
    8.8141  -18.3195   29.8975 H   0  0  0  0  0  0  0  0  0  0  0  0  # atno 15633 bound_to 15624
   11.2215  -15.6377   27.4601 LP  0  0  0  0  0  0  0  0  0  0  0  0  # atno 16458 bound_to 15536
   11.2845  -14.1006   28.2559 LP  0  0  0  0  0  0  0  0  0  0  0  0  # atno 16459 bound_to 15536
   15.7493  -13.0633   34.4373 LP  0  0  0  0  0  0  0  0  0  0  0  0  # atno 16460 bound_to 10947
   16.6312  -13.5015   35.7399 LP  0  0  0  0  0  0  0  0  0  0  0  0  # atno 16461 bound_to 10947
   13.3359  -11.2378   37.6196 LP  0  0  0  0  0  0  0  0  0  0  0  0  # atno 16466 bound_to 10707
   14.8045  -11.4867   36.9504 LP  0  0  0  0  0  0  0  0  0  0  0  0  # atno 16467 bound_to 10707
   21.3315  -12.2754   35.5895 LP  0  0  0  0  0  0  0  0  0  0  0  0  # atno 16468 bound_to 10881
   21.5250  -13.6708   36.5972 LP  0  0  0  0  0  0  0  0  0  0  0  0  # atno 16469 bound_to 10881
   22.2207   -8.3428   34.1838 LP  0  0  0  0  0  0  0  0  0  0  0  0  # atno 16470 bound_to 10910
   23.7328   -8.4410   35.0229 LP  0  0  0  0  0  0  0  0  0  0  0  0  # atno 16471 bound_to 10910
   20.6550   -9.3194   37.1395 LP  0  0  0  0  0  0  0  0  0  0  0  0  # atno 16472 bound_to 10936
   15.2072   -7.0985   35.6253 LP  0  0  0  0  0  0  0  0  0  0  0  0  # atno 16473 bound_to 10997
   16.7132   -6.4649   35.0503 LP  0  0  0  0  0  0  0  0  0  0  0  0  # atno 16474 bound_to 10997
   12.1841  -11.6270   36.9546 LP  0  0  0  0  0  0  0  0  0  0  0  0  # atno 16475 bound_to 11976
   11.9293  -11.4309   38.6565 LP  0  0  0  0  0  0  0  0  0  0  0  0  # atno 16476 bound_to 11976
   12.2656  -16.0789   36.4889 LP  0  0  0  0  0  0  0  0  0  0  0  0  # atno 16477 bound_to 12048
   12.2384  -17.0396   37.9299 LP  0  0  0  0  0  0  0  0  0  0  0  0  # atno 16478 bound_to 12048
   18.0964   -8.8567   37.3723 LP  0  0  0  0  0  0  0  0  0  0  0  0  # atno 16480 bound_to 10939
   19.2039   -8.0403   38.4244 LP  0  0  0  0  0  0  0  0  0  0  0  0  # atno 16481 bound_to 10939
   11.2507   -6.3849   36.8069 LP  0  0  0  0  0  0  0  0  0  0  0  0  # atno 16483 bound_to 11039
   12.1966   -7.2276   35.6258 LP  0  0  0  0  0  0  0  0  0  0  0  0  # atno 16484 bound_to 11039
   10.8686  -13.0678   38.2143 LP  0  0  0  0  0  0  0  0  0  0  0  0  # atno 16485 bound_to 12045
    8.0414  -11.8969   26.1977 LP  0  0  0  0  0  0  0  0  0  0  0  0  # atno 16490 bound_to 15533
    7.6629  -14.9122   27.8337 LP  0  0  0  0  0  0  0  0  0  0  0  0  # atno 16491 bound_to 15579
    9.2757  -17.0603   26.8084 LP  0  0  0  0  0  0  0  0  0  0  0  0  # atno 16492 bound_to 15582
    8.4267  -18.4973   27.2715 LP  0  0  0  0  0  0  0  0  0  0  0  0  # atno 16493 bound_to 15582
   10.2689  -17.4443   29.4729 LP  0  0  0  0  0  0  0  0  0  0  0  0  # atno 16494 bound_to 15624
   21.0256  -10.9016   37.6012 LP  0  0  0  0  0  0  0  0  0  0  0  0  # atno 16495 bound_to 10907
   25.4995  -10.2718   37.6052 LP  0  0  0  0  0  0  0  0  0  0  0  0  # atno 16496 bound_to 6104
   25.3274  -10.4735   35.8936 LP  0  0  0  0  0  0  0  0  0  0  0  0  # atno 16497 bound_to 6104
   26.4640  -12.1879   36.8108 LP  0  0  0  0  0  0  0  0  0  0  0  0  # atno 16498 bound_to 6129
   30.2470   -9.5784   33.6794 LP  0  0  0  0  0  0  0  0  0  0  0  0  # atno 16499 bound_to 5910
   28.8313   -8.6125   33.4293 LP  0  0  0  0  0  0  0  0  0  0  0  0  # atno 16500 bound_to 5910
   29.4829  -11.6029   36.8262 LP  0  0  0  0  0  0  0  0  0  0  0  0  # atno 16501 bound_to 6101
   27.8863   -9.0014   36.6697 LP  0  0  0  0  0  0  0  0  0  0  0  0  # atno 16502 bound_to 5850
   29.4004   -9.5604   37.2983 LP  0  0  0  0  0  0  0  0  0  0  0  0  # atno 16503 bound_to 5850
   28.8383   -5.8831   37.1434 LP  0  0  0  0  0  0  0  0  0  0  0  0  # atno 16504 bound_to 5907
   29.7015  -13.9914   37.1481 LP  0  0  0  0  0  0  0  0  0  0  0  0  # atno 16505 bound_to 6051
   29.0702  -13.7491   35.5535 LP  0  0  0  0  0  0  0  0  0  0  0  0  # atno 16506 bound_to 6051
   32.6715  -11.1502   33.5151 LP  0  0  0  0  0  0  0  0  0  0  0  0  # atno 16507 bound_to 5982
   31.9681  -12.2203   34.6813 LP  0  0  0  0  0  0  0  0  0  0  0  0  # atno 16508 bound_to 5982
   31.5976   -6.9813   35.1999 LP  0  0  0  0  0  0  0  0  0  0  0  0  # atno 16509 bound_to 5979
   31.8027   -9.7170   37.0465 LP  0  0  0  0  0  0  0  0  0  0  0  0  # atno 16510 bound_to 6048
   12.4019   -3.7874   29.7746 LP  0  0  0  0  0  0  0  0  0  0  0  0  # atno 16511 bound_to 11145
   12.8485   -4.6897   31.1839 LP  0  0  0  0  0  0  0  0  0  0  0  0  # atno 16512 bound_to 11145
   14.0484   -2.9946   30.4762 LP  0  0  0  0  0  0  0  0  0  0  0  0  # atno 16513 bound_to 11196
   16.5154   -0.3766   28.2555 LP  0  0  0  0  0  0  0  0  0  0  0  0  # atno 16514 bound_to 11199
   15.3642    0.1333   29.4449 LP  0  0  0  0  0  0  0  0  0  0  0  0  # atno 16515 bound_to 11199
   14.8748   -1.2526   27.3084 LP  0  0  0  0  0  0  0  0  0  0  0  0  # atno 16516 bound_to 11229
   14.0400   -3.9321   34.0647 LP  0  0  0  0  0  0  0  0  0  0  0  0  # atno 16525 bound_to 11142
   14.4814   -1.5601   34.1574 LP  0  0  0  0  0  0  0  0  0  0  0  0  # atno 16530 bound_to 11085
   14.8937   -2.4261   35.5997 LP  0  0  0  0  0  0  0  0  0  0  0  0  # atno 16531 bound_to 11085
   14.1069   -4.2356   37.0002 LP  0  0  0  0  0  0  0  0  0  0  0  0  # atno 16533 bound_to 11082
   16.0035    3.4574   25.9919 LP  0  0  0  0  0  0  0  0  0  0  0  0  # atno 16538 bound_to 11232
   17.0481    2.1104   26.2994 LP  0  0  0  0  0  0  0  0  0  0  0  0  # atno 16539 bound_to 11232
   13.9219    1.3987   27.6007 LP  0  0  0  0  0  0  0  0  0  0  0  0  # atno 16542 bound_to 11266
   15.8213    2.7375   35.9533 LP  0  0  0  0  0  0  0  0  0  0  0  0  # atno 16548 bound_to 9421
   11.5167    3.0696   29.4238 LP  0  0  0  0  0  0  0  0  0  0  0  0  # atno 16549 bound_to 11269
   12.7965    1.9034   29.3807 LP  0  0  0  0  0  0  0  0  0  0  0  0  # atno 16550 bound_to 11269
   11.1185    3.1598   32.0745 LP  0  0  0  0  0  0  0  0  0  0  0  0  # atno 16552 bound_to 11318
   10.9819    4.6984   32.8580 LP  0  0  0  0  0  0  0  0  0  0  0  0  # atno 16553 bound_to 11318
    9.6506    1.6471   31.2015 LP  0  0  0  0  0  0  0  0  0  0  0  0  # atno 16554 bound_to 11466
   11.4315    5.7429   30.4217 LP  0  0  0  0  0  0  0  0  0  0  0  0  # atno 16555 bound_to 11358
   13.3597    7.6236   35.2265 LP  0  0  0  0  0  0  0  0  0  0  0  0  # atno 16556 bound_to 11538
   12.4179    8.9175   34.9017 LP  0  0  0  0  0  0  0  0  0  0  0  0  # atno 16557 bound_to 11538
   17.1699    9.5399   38.7468 LP  0  0  0  0  0  0  0  0  0  0  0  0  # atno 16558 bound_to 9314
   17.6278    8.1591   37.8068 LP  0  0  0  0  0  0  0  0  0  0  0  0  # atno 16559 bound_to 9314
   18.7166    7.4768   39.9459 LP  0  0  0  0  0  0  0  0  0  0  0  0  # atno 16560 bound_to 9335
   16.4421    5.0785   40.0668 LP  0  0  0  0  0  0  0  0  0  0  0  0  # atno 16561 bound_to 9338
   15.8991    3.8742   38.9466 LP  0  0  0  0  0  0  0  0  0  0  0  0  # atno 16562 bound_to 9338
   20.7662    6.2874   37.8879 LP  0  0  0  0  0  0  0  0  0  0  0  0  # atno 16563 bound_to 9341
   21.4170    5.1121   38.8162 LP  0  0  0  0  0  0  0  0  0  0  0  0  # atno 16564 bound_to 9341
   13.4090    3.7437   38.2966 LP  0  0  0  0  0  0  0  0  0  0  0  0  # atno 16565 bound_to 9380
   13.4591    2.1466   37.6282 LP  0  0  0  0  0  0  0  0  0  0  0  0  # atno 16566 bound_to 9380
   15.6987    2.7144   39.0958 LP  0  0  0  0  0  0  0  0  0  0  0  0  # atno 16567 bound_to 9469
   29.6897   -4.7895   37.9572 LP  0  0  0  0  0  0  0  0  0  0  0  0  # atno 16570 bound_to 5709
   29.3688   -3.5724   36.7674 LP  0  0  0  0  0  0  0  0  0  0  0  0  # atno 16571 bound_to 5709
   26.7183    0.4414   41.8024 LP  0  0  0  0  0  0  0  0  0  0  0  0  # atno 16574 bound_to 7822
   28.8060    4.5831   41.4689 LP  0  0  0  0  0  0  0  0  0  0  0  0  # atno 16575 bound_to 7825
   29.6617    3.3781   42.3721 LP  0  0  0  0  0  0  0  0  0  0  0  0  # atno 16576 bound_to 7825
   29.5198   -2.1393   41.4896 LP  0  0  0  0  0  0  0  0  0  0  0  0  # atno 16579 bound_to 5706
   31.8800   -2.1554   39.1382 LP  0  0  0  0  0  0  0  0  0  0  0  0  # atno 16580 bound_to 5761
   35.0920   -2.4189   36.1451 LP  0  0  0  0  0  0  0  0  0  0  0  0  # atno 16581 bound_to 5766
   34.4134   -1.1350   36.8920 LP  0  0  0  0  0  0  0  0  0  0  0  0  # atno 16582 bound_to 5766
   28.6957    0.4271   41.9535 LP  0  0  0  0  0  0  0  0  0  0  0  0  # atno 16583 bound_to 7781
   28.0813   -0.0746   43.4933 LP  0  0  0  0  0  0  0  0  0  0  0  0  # atno 16584 bound_to 7781
   26.0876    2.6969   42.8841 LP  0  0  0  0  0  0  0  0  0  0  0  0  # atno 16585 bound_to 7866
   13.9007   -0.1942   39.4883 LP  0  0  0  0  0  0  0  0  0  0  0  0  # atno 16593 bound_to 9424
   15.3575   -1.0705   39.1565 LP  0  0  0  0  0  0  0  0  0  0  0  0  # atno 16594 bound_to 9424
   20.0175   -3.1495   41.9822 LP  0  0  0  0  0  0  0  0  0  0  0  0  # atno 16595 bound_to 9480
   21.3551   -2.2132   41.9534 LP  0  0  0  0  0  0  0  0  0  0  0  0  # atno 16596 bound_to 9480
   19.5416    1.9045   43.7726 LP  0  0  0  0  0  0  0  0  0  0  0  0  # atno 16597 bound_to 7659
   20.2938    3.3826   43.2732 LP  0  0  0  0  0  0  0  0  0  0  0  0  # atno 16598 bound_to 7659
   24.6768    2.3667   43.9157 LP  0  0  0  0  0  0  0  0  0  0  0  0  # atno 16599 bound_to 7717
   25.5935    0.9385   44.2618 LP  0  0  0  0  0  0  0  0  0  0  0  0  # atno 16600 bound_to 7717
   22.9205    1.6472   45.2238 LP  0  0  0  0  0  0  0  0  0  0  0  0  # atno 16601 bound_to 7714
   17.8657   -6.0878   42.2353 LP  0  0  0  0  0  0  0  0  0  0  0  0  # atno 16602 bound_to 10532
   18.7811   -4.7124   41.7153 LP  0  0  0  0  0  0  0  0  0  0  0  0  # atno 16603 bound_to 10532
   17.6063   10.7859   41.3399 LP  0  0  0  0  0  0  0  0  0  0  0  0  # atno 16604 bound_to 9311
   26.5009   11.7721   26.3570 LP  0  0  0  0  0  0  0  0  0  0  0  0  # atno 16607 bound_to 15310
   27.4916   11.3348   25.1347 LP  0  0  0  0  0  0  0  0  0  0  0  0  # atno 16608 bound_to 15310
   18.6686    7.9185   44.4481 LP  0  0  0  0  0  0  0  0  0  0  0  0  # atno 16611 bound_to 7554
   17.1744    8.5100   45.0940 LP  0  0  0  0  0  0  0  0  0  0  0  0  # atno 16612 bound_to 7554
   22.1300    5.6770   43.9091 LP  0  0  0  0  0  0  0  0  0  0  0  0  # atno 16613 bound_to 7623
   22.4732    4.2216   44.7833 LP  0  0  0  0  0  0  0  0  0  0  0  0  # atno 16614 bound_to 7623
   13.8261   11.9273   42.8098 LP  0  0  0  0  0  0  0  0  0  0  0  0  # atno 16615 bound_to 9280
   14.8307    8.6633   41.8203 LP  0  0  0  0  0  0  0  0  0  0  0  0  # atno 16616 bound_to 9283
   15.4858    9.3329   43.2772 LP  0  0  0  0  0  0  0  0  0  0  0  0  # atno 16617 bound_to 9283
   13.5902   14.4431   40.1072 LP  0  0  0  0  0  0  0  0  0  0  0  0  # atno 16618 bound_to 9228
   15.0645   13.9005   40.8367 LP  0  0  0  0  0  0  0  0  0  0  0  0  # atno 16619 bound_to 9228
   19.6692    6.4335   47.4016 LP  0  0  0  0  0  0  0  0  0  0  0  0  # atno 16620 bound_to 7620
   11.0766   14.8467   41.9055 LP  0  0  0  0  0  0  0  0  0  0  0  0  # atno 16628 bound_to 9225
   13.5351    2.3367   40.4765 LP  0  0  0  0  0  0  0  0  0  0  0  0  # atno 16635 bound_to 9528
   22.9390   20.6090   37.3897 LP  0  0  0  0  0  0  0  0  0  0  0  0  # atno 16636 bound_to 3357
   24.3567   19.7152   36.9524 LP  0  0  0  0  0  0  0  0  0  0  0  0  # atno 16637 bound_to 3357
   22.4576   20.5197   40.7468 LP  0  0  0  0  0  0  0  0  0  0  0  0  # atno 16638 bound_to 3415
   21.4129   21.5003   39.7736 LP  0  0  0  0  0  0  0  0  0  0  0  0  # atno 16639 bound_to 3415
   24.8163   21.9574   37.4622 LP  0  0  0  0  0  0  0  0  0  0  0  0  # atno 16640 bound_to 3412
   25.1451   21.7012   39.2508 LP  0  0  0  0  0  0  0  0  0  0  0  0  # atno 16641 bound_to 3478
    9.5331   14.5935   43.3156 LP  0  0  0  0  0  0  0  0  0  0  0  0  # atno 16646 bound_to 9102
    7.9428   14.3765   43.9668 LP  0  0  0  0  0  0  0  0  0  0  0  0  # atno 16647 bound_to 9102
   10.5548   14.3229   45.9412 LP  0  0  0  0  0  0  0  0  0  0  0  0  # atno 16648 bound_to 9168
   14.8497   15.9461   46.9772 LP  0  0  0  0  0  0  0  0  0  0  0  0  # atno 16649 bound_to 9178
   14.8820   17.1307   48.1008 LP  0  0  0  0  0  0  0  0  0  0  0  0  # atno 16650 bound_to 9178
    9.7251   24.2977   35.3691 LP  0  0  0  0  0  0  0  0  0  0  0  0  # atno 16654 bound_to 6255
   10.9814   23.8197   36.2965 LP  0  0  0  0  0  0  0  0  0  0  0  0  # atno 16655 bound_to 6255
   12.4283   18.2711   48.6403 LP  0  0  0  0  0  0  0  0  0  0  0  0  # atno 16656 bound_to 9176
   11.8428   18.6989   47.1771 LP  0  0  0  0  0  0  0  0  0  0  0  0  # atno 16657 bound_to 9176

> <Gold.Score>
     Fitness  S(hb_ext) S(vdw_ext)  S(hb_int)    S(int)      intcor
     26.31       0.00      19.20       0.00      -0.08      -0.76

> <Gold.Goldscore.Fitness>
26.3140

> <Gold.Goldscore.Internal.Vdw>
-0.4191

> <Gold.Goldscore.Internal.Torsion>
-0.4198

> <Gold.Goldscore.External.Vdw>
19.1974

> <Gold.Goldscore.Internal.HBond>
0.0000

> <Gold.Goldscore.External.HBond>
0.0000

> <Gold.Goldscore.Internal.Correction>
-0.7565

> <Gold.Goldscore.Internal.Vdw.Weighted>
-0.4191

> <Gold.Goldscore.Internal.Torsion.Weighted>
-0.4198

> <Gold.Goldscore.External.Vdw.Weighted>
26.3964

> <Gold.Goldscore.Internal.HBond.Weighted>
0.0000

> <Gold.Goldscore.External.HBond.Weighted>
0.0000

> <Gold.Goldscore.Internal.Correction.Weighted>
-0.7565

> <Gold.Rescore>
     Score     S(PLP)   S(hbond)     S(cho)   S(metal)  DE(clash)   DE(tors)     intcor
     26.54     -26.92       0.00       0.00       0.00       0.00       0.19       ----

> <Gold.PLP.Fitness>
26.5426

> <Gold.PLP.PLP>
-26.9170

> <Gold.PLP.part.hbond>
-0.3867

> <Gold.PLP.part.metal>
0.0000

> <Gold.PLP.part.buried>
-1.0165

> <Gold.PLP.part.nonpolar>
-27.0252

> <Gold.PLP.part.repulsive>
1.8092

> <Gold.PLP.ligand.clash>
0.0000

> <Gold.PLP.ligand.torsion>
0.1872

> <Gold.PLP.Chemscore.Hbond>
0.0000

> <Gold.PLP.Chemscore.CHOScore>
0.0000

> <Gold.PLP.Chemscore.Metal>
0.0000

> <Gold.PLP.Chemscore.Internal.Correction>
   9.000000E+99

