#       Name:                GA Fitting Points
#       Creating user name   hitesit
#       Creation time:       Sun Apr 16 22:54:00 2023


#       Fitting Points Used by GA Software.
#

@<TRIPOS>MOLECULE
GA Fitting Points
 26865    0    0
SMALL
NO_CHARGES


@<TRIPOS>ATOM
      1 ****         7.0000  -9.0000  34.2500 Du        
      2 ****         7.0000  -8.7500  34.0000 Du        
      3 ****         7.0000  -8.7500  34.2500 Du        
      4 ****         7.0000  -8.5000  34.0000 Du        
      5 ****         7.0000  -8.5000  34.2500 Du        
      6 ****         7.0000  -8.2500  34.0000 Du        
      7 ****         7.0000  -8.0000  33.7500 Du        
      8 ****         7.0000  -8.0000  34.0000 Du        
      9 ****         7.0000  -7.7500  33.7500 Du        
     10 ****         7.0000  -7.7500  34.0000 Du        
     11 ****         7.0000  -7.5000  33.7500 Du        
     12 ****         7.0000  -7.5000  34.0000 Du        
     13 ****         7.0000  -7.2500  33.5000 Du        
     14 ****         7.0000  -7.2500  33.7500 Du        
     15 ****         7.0000  -7.2500  34.0000 Du        
     16 ****         7.0000  -7.0000  25.7500 Du        
     17 ****         7.0000  -7.0000  26.0000 Du        
     18 ****         7.0000  -7.0000  33.5000 Du        
     19 ****         7.0000  -7.0000  33.7500 Du        
     20 ****         7.0000  -7.0000  34.0000 Du        
     21 ****         7.0000  -7.0000  34.2500 Du        
     22 ****         7.0000  -6.7500  25.5000 Du        
     23 ****         7.0000  -6.7500  25.7500 Du        
     24 ****         7.0000  -6.7500  26.0000 Du        
     25 ****         7.0000  -6.7500  26.2500 Du        
     26 ****         7.0000  -6.7500  33.5000 Du        
     27 ****         7.0000  -6.7500  33.7500 Du        
     28 ****         7.0000  -6.7500  34.0000 Du        
     29 ****         7.0000  -6.7500  34.2500 Du        
     30 ****         7.0000  -6.7500  34.5000 Du        
     31 ****         7.0000  -6.5000  25.5000 Du        
     32 ****         7.0000  -6.5000  25.7500 Du        
     33 ****         7.0000  -6.5000  26.0000 Du        
     34 ****         7.0000  -6.5000  26.2500 Du        
     35 ****         7.0000  -6.5000  33.7500 Du        
     36 ****         7.0000  -6.5000  34.0000 Du        
     37 ****         7.0000  -6.5000  34.2500 Du        
     38 ****         7.0000  -6.5000  34.5000 Du        
     39 ****         7.0000  -6.2500  25.5000 Du        
     40 ****         7.0000  -6.2500  25.7500 Du        
     41 ****         7.0000  -6.2500  26.0000 Du        
     42 ****         7.0000  -6.2500  26.2500 Du        
     43 ****         7.0000  -6.2500  34.0000 Du        
     44 ****         7.0000  -6.2500  34.2500 Du        
     45 ****         7.0000  -6.2500  34.5000 Du        
     46 ****         7.0000  -6.2500  34.7500 Du        
     47 ****         7.0000  -6.0000  25.7500 Du        
     48 ****         7.0000  -6.0000  26.0000 Du        
     49 ****         7.0000  -6.0000  26.2500 Du        
     50 ****         7.0000  -6.0000  34.5000 Du        
     51 ****         7.0000  -6.0000  34.7500 Du        
     52 ****         7.0000  -5.5000  41.7500 Du        
     53 ****         7.0000  -3.0000  27.7500 Du        
     54 ****         7.0000  -2.7500  27.2500 Du        
     55 ****         7.0000  -2.7500  27.5000 Du        
     56 ****         7.0000  -2.7500  27.7500 Du        
     57 ****         7.0000  -2.7500  28.0000 Du        
     58 ****         7.0000  -2.5000  27.2500 Du        
     59 ****         7.0000  -2.5000  27.5000 Du        
     60 ****         7.0000  -2.5000  27.7500 Du        
     61 ****         7.0000  -2.5000  28.0000 Du        
     62 ****         7.0000  -2.5000  28.2500 Du        
     63 ****         7.0000  -2.5000  28.5000 Du        
     64 ****         7.0000  -2.2500  27.5000 Du        
     65 ****         7.0000  -2.2500  27.7500 Du        
     66 ****         7.0000  -2.2500  28.0000 Du        
     67 ****         7.0000  -2.2500  28.2500 Du        
     68 ****         7.0000  -2.2500  28.5000 Du        
     69 ****         7.0000  -2.0000  27.7500 Du        
     70 ****         7.0000  -2.0000  28.0000 Du        
     71 ****         7.0000  -2.0000  28.2500 Du        
     72 ****         7.0000   9.0000  34.5000 Du        
     73 ****         7.0000   9.0000  34.7500 Du        
     74 ****         7.0000   9.2500  34.0000 Du        
     75 ****         7.0000   9.2500  34.2500 Du        
     76 ****         7.0000   9.2500  34.5000 Du        
     77 ****         7.0000   9.2500  34.7500 Du        
     78 ****         7.0000   9.2500  35.0000 Du        
     79 ****         7.0000   9.2500  35.2500 Du        
     80 ****         7.0000   9.5000  34.0000 Du        
     81 ****         7.0000   9.5000  34.2500 Du        
     82 ****         7.0000   9.5000  34.5000 Du        
     83 ****         7.0000   9.5000  34.7500 Du        
     84 ****         7.0000   9.5000  35.0000 Du        
     85 ****         7.0000   9.5000  35.2500 Du        
     86 ****         7.0000   9.5000  35.5000 Du        
     87 ****         7.0000   9.7500  34.5000 Du        
     88 ****         7.0000   9.7500  34.7500 Du        
     89 ****         7.0000   9.7500  35.0000 Du        
     90 ****         7.0000   9.7500  35.2500 Du        
     91 ****         7.0000   9.7500  35.5000 Du        
     92 ****         7.0000   9.7500  35.7500 Du        
     93 ****         7.0000  10.0000  35.0000 Du        
     94 ****         7.0000  10.0000  35.2500 Du        
     95 ****         7.0000  10.0000  35.5000 Du        
     96 ****         7.0000  10.0000  35.7500 Du        
     97 ****         7.0000  10.0000  36.0000 Du        
     98 ****         7.0000  10.2500  35.5000 Du        
     99 ****         7.0000  10.2500  35.7500 Du        
    100 ****         7.0000  10.2500  36.0000 Du        
    101 ****         7.0000  10.5000  36.0000 Du        
    102 ****         7.0000  10.5000  36.2500 Du        
    103 ****         7.0000  10.7500  36.2500 Du        
    104 ****         7.0000  10.7500  36.5000 Du        
    105 ****         7.0000  11.0000  36.5000 Du        
    106 ****         7.0000  11.0000  36.7500 Du        
    107 ****         7.0000  11.2500  36.7500 Du        
    108 ****         7.0000  11.2500  37.0000 Du        
    109 ****         7.0000  11.5000  36.7500 Du        
    110 ****         7.0000  11.5000  37.0000 Du        
    111 ****         7.0000  11.5000  37.2500 Du        
    112 ****         7.0000  11.5000  37.5000 Du        
    113 ****         7.0000  11.7500  36.7500 Du        
    114 ****         7.0000  11.7500  37.0000 Du        
    115 ****         7.0000  11.7500  37.2500 Du        
    116 ****         7.0000  11.7500  37.5000 Du        
    117 ****         7.0000  11.7500  37.7500 Du        
    118 ****         7.0000  12.0000  37.0000 Du        
    119 ****         7.0000  12.0000  37.2500 Du        
    120 ****         7.0000  12.0000  37.5000 Du        
    121 ****         7.0000  12.0000  37.7500 Du        
    122 ****         7.0000  12.2500  37.0000 Du        
    123 ****         7.0000  12.2500  37.2500 Du        
    124 ****         7.0000  12.2500  37.5000 Du        
    125 ****         7.0000  12.2500  37.7500 Du        
    126 ****         7.0000  12.5000  37.0000 Du        
    127 ****         7.0000  12.5000  37.2500 Du        
    128 ****         7.0000  12.5000  37.5000 Du        
    129 ****         7.0000  12.5000  37.7500 Du        
    130 ****         7.0000  12.7500  37.0000 Du        
    131 ****         7.0000  12.7500  37.2500 Du        
    132 ****         7.0000  12.7500  37.5000 Du        
    133 ****         7.0000  12.7500  37.7500 Du        
    134 ****         7.0000  13.0000  37.0000 Du        
    135 ****         7.0000  13.0000  37.2500 Du        
    136 ****         7.0000  13.0000  37.5000 Du        
    137 ****         7.0000  13.0000  37.7500 Du        
    138 ****         7.0000  13.0000  38.0000 Du        
    139 ****         7.0000  13.2500  37.0000 Du        
    140 ****         7.0000  13.2500  37.2500 Du        
    141 ****         7.0000  13.2500  37.5000 Du        
    142 ****         7.0000  13.2500  37.7500 Du        
    143 ****         7.0000  13.2500  38.0000 Du        
    144 ****         7.0000  13.5000  37.2500 Du        
    145 ****         7.0000  13.5000  37.5000 Du        
    146 ****         7.0000  13.5000  37.7500 Du        
    147 ****         7.0000  13.5000  38.0000 Du        
    148 ****         7.0000  13.7500  37.5000 Du        
    149 ****         7.0000  13.7500  37.7500 Du        
    150 ****         7.0000  13.7500  38.0000 Du        
    151 ****         7.0000  13.7500  38.2500 Du        
    152 ****         7.0000  14.0000  37.7500 Du        
    153 ****         7.0000  14.0000  38.0000 Du        
    154 ****         7.0000  14.0000  38.2500 Du        
    155 ****         7.0000  14.2500  38.2500 Du        
    156 ****         7.0000  14.2500  41.7500 Du        
    157 ****         7.0000  14.2500  42.0000 Du        
    158 ****         7.0000  14.5000  41.7500 Du        
    159 ****         7.0000  14.7500  41.0000 Du        
    160 ****         7.0000  14.7500  41.2500 Du        
    161 ****         7.0000  14.7500  41.5000 Du        
    162 ****         7.0000  14.7500  41.7500 Du        
    163 ****         7.0000  14.7500  42.0000 Du        
    164 ****         7.0000  15.0000  40.7500 Du        
    165 ****         7.0000  15.0000  41.0000 Du        
    166 ****         7.0000  15.0000  41.2500 Du        
    167 ****         7.0000  15.0000  41.5000 Du        
    168 ****         7.0000  15.0000  41.7500 Du        
    169 ****         7.0000  15.0000  42.0000 Du        
    170 ****         7.0000  15.2500  40.7500 Du        
    171 ****         7.0000  15.2500  41.0000 Du        
    172 ****         7.0000  15.2500  41.2500 Du        
    173 ****         7.0000  15.2500  41.5000 Du        
    174 ****         7.0000  15.2500  41.7500 Du        
    175 ****         7.0000  15.2500  42.0000 Du        
    176 ****         7.0000  15.5000  41.0000 Du        
    177 ****         7.0000  15.5000  41.2500 Du        
    178 ****         7.0000  15.5000  41.5000 Du        
    179 ****         7.0000  15.5000  41.7500 Du        
    180 ****         7.0000  15.5000  42.0000 Du        
    181 ****         7.0000  15.7500  41.0000 Du        
    182 ****         7.0000  15.7500  41.2500 Du        
    183 ****         7.0000  15.7500  41.5000 Du        
    184 ****         7.0000  15.7500  41.7500 Du        
    185 ****         7.0000  15.7500  42.0000 Du        
    186 ****         7.0000  16.0000  41.2500 Du        
    187 ****         7.0000  16.0000  41.5000 Du        
    188 ****         7.0000  16.0000  41.7500 Du        
    189 ****         7.0000  16.0000  42.0000 Du        
    190 ****         7.0000  16.2500  41.7500 Du        
    191 ****         7.0000  16.2500  42.0000 Du        
    192 ****         7.2500  -9.0000  34.2500 Du        
    193 ****         7.2500  -9.0000  34.5000 Du        
    194 ****         7.2500  -8.7500  34.0000 Du        
    195 ****         7.2500  -8.7500  34.2500 Du        
    196 ****         7.2500  -8.7500  34.5000 Du        
    197 ****         7.2500  -8.5000  34.0000 Du        
    198 ****         7.2500  -8.5000  34.2500 Du        
    199 ****         7.2500  -8.5000  34.5000 Du        
    200 ****         7.2500  -8.2500  34.0000 Du        
    201 ****         7.2500  -8.2500  34.2500 Du        
    202 ****         7.2500  -8.2500  34.5000 Du        
    203 ****         7.2500  -8.0000  34.0000 Du        
    204 ****         7.2500  -8.0000  34.2500 Du        
    205 ****         7.2500  -8.0000  34.5000 Du        
    206 ****         7.2500  -7.7500  33.7500 Du        
    207 ****         7.2500  -7.7500  34.0000 Du        
    208 ****         7.2500  -7.7500  34.2500 Du        
    209 ****         7.2500  -7.5000  33.7500 Du        
    210 ****         7.2500  -7.5000  34.0000 Du        
    211 ****         7.2500  -7.5000  34.2500 Du        
    212 ****         7.2500  -7.2500  33.7500 Du        
    213 ****         7.2500  -7.2500  34.0000 Du        
    214 ****         7.2500  -7.2500  34.2500 Du        
    215 ****         7.2500  -7.2500  34.5000 Du        
    216 ****         7.2500  -7.0000  25.5000 Du        
    217 ****         7.2500  -7.0000  25.7500 Du        
    218 ****         7.2500  -7.0000  26.0000 Du        
    219 ****         7.2500  -7.0000  33.5000 Du        
    220 ****         7.2500  -7.0000  33.7500 Du        
    221 ****         7.2500  -7.0000  34.0000 Du        
    222 ****         7.2500  -7.0000  34.2500 Du        
    223 ****         7.2500  -7.0000  34.5000 Du        
    224 ****         7.2500  -6.7500  25.2500 Du        
    225 ****         7.2500  -6.7500  25.5000 Du        
    226 ****         7.2500  -6.7500  25.7500 Du        
    227 ****         7.2500  -6.7500  26.0000 Du        
    228 ****         7.2500  -6.7500  26.2500 Du        
    229 ****         7.2500  -6.7500  33.5000 Du        
    230 ****         7.2500  -6.7500  33.7500 Du        
    231 ****         7.2500  -6.7500  34.0000 Du        
    232 ****         7.2500  -6.7500  34.2500 Du        
    233 ****         7.2500  -6.7500  34.5000 Du        
    234 ****         7.2500  -6.7500  34.7500 Du        
    235 ****         7.2500  -6.5000  25.5000 Du        
    236 ****         7.2500  -6.5000  25.7500 Du        
    237 ****         7.2500  -6.5000  26.0000 Du        
    238 ****         7.2500  -6.5000  26.2500 Du        
    239 ****         7.2500  -6.5000  33.7500 Du        
    240 ****         7.2500  -6.5000  34.0000 Du        
    241 ****         7.2500  -6.5000  34.2500 Du        
    242 ****         7.2500  -6.5000  34.5000 Du        
    243 ****         7.2500  -6.5000  34.7500 Du        
    244 ****         7.2500  -6.2500  25.5000 Du        
    245 ****         7.2500  -6.2500  25.7500 Du        
    246 ****         7.2500  -6.2500  26.0000 Du        
    247 ****         7.2500  -6.2500  26.2500 Du        
    248 ****         7.2500  -6.2500  34.0000 Du        
    249 ****         7.2500  -6.2500  34.2500 Du        
    250 ****         7.2500  -6.2500  34.5000 Du        
    251 ****         7.2500  -6.2500  34.7500 Du        
    252 ****         7.2500  -6.0000  26.0000 Du        
    253 ****         7.2500  -6.0000  34.7500 Du        
    254 ****         7.2500  -3.0000  27.5000 Du        
    255 ****         7.2500  -2.7500  27.0000 Du        
    256 ****         7.2500  -2.7500  27.2500 Du        
    257 ****         7.2500  -2.7500  27.5000 Du        
    258 ****         7.2500  -2.7500  27.7500 Du        
    259 ****         7.2500  -2.5000  27.2500 Du        
    260 ****         7.2500  -2.5000  27.5000 Du        
    261 ****         7.2500  -2.5000  27.7500 Du        
    262 ****         7.2500  -2.5000  28.0000 Du        
    263 ****         7.2500  -2.5000  28.2500 Du        
    264 ****         7.2500  -2.2500  27.5000 Du        
    265 ****         7.2500  -2.2500  27.7500 Du        
    266 ****         7.2500  -2.2500  28.0000 Du        
    267 ****         7.2500  -2.2500  28.2500 Du        
    268 ****         7.2500   9.2500  34.5000 Du        
    269 ****         7.2500   9.2500  34.7500 Du        
    270 ****         7.2500   9.2500  35.0000 Du        
    271 ****         7.2500   9.2500  35.2500 Du        
    272 ****         7.2500   9.5000  34.2500 Du        
    273 ****         7.2500   9.5000  34.5000 Du        
    274 ****         7.2500   9.5000  34.7500 Du        
    275 ****         7.2500   9.5000  35.0000 Du        
    276 ****         7.2500   9.5000  35.2500 Du        
    277 ****         7.2500   9.5000  35.5000 Du        
    278 ****         7.2500   9.7500  34.7500 Du        
    279 ****         7.2500   9.7500  35.0000 Du        
    280 ****         7.2500   9.7500  35.2500 Du        
    281 ****         7.2500   9.7500  35.5000 Du        
    282 ****         7.2500   9.7500  35.7500 Du        
    283 ****         7.2500   9.7500  36.0000 Du        
    284 ****         7.2500  10.0000  35.2500 Du        
    285 ****         7.2500  10.0000  35.5000 Du        
    286 ****         7.2500  10.0000  35.7500 Du        
    287 ****         7.2500  10.0000  36.0000 Du        
    288 ****         7.2500  10.2500  35.7500 Du        
    289 ****         7.2500  10.2500  36.0000 Du        
    290 ****         7.2500  10.2500  36.2500 Du        
    291 ****         7.2500  10.5000  36.0000 Du        
    292 ****         7.2500  10.5000  36.2500 Du        
    293 ****         7.2500  10.5000  36.5000 Du        
    294 ****         7.2500  10.7500  36.2500 Du        
    295 ****         7.2500  10.7500  36.5000 Du        
    296 ****         7.2500  10.7500  36.7500 Du        
    297 ****         7.2500  11.0000  36.5000 Du        
    298 ****         7.2500  11.0000  36.7500 Du        
    299 ****         7.2500  11.0000  37.0000 Du        
    300 ****         7.2500  11.2500  36.7500 Du        
    301 ****         7.2500  11.2500  37.0000 Du        
    302 ****         7.2500  11.2500  37.2500 Du        
    303 ****         7.2500  11.5000  36.7500 Du        
    304 ****         7.2500  11.5000  37.0000 Du        
    305 ****         7.2500  11.5000  37.2500 Du        
    306 ****         7.2500  11.5000  37.5000 Du        
    307 ****         7.2500  11.5000  37.7500 Du        
    308 ****         7.2500  11.7500  37.0000 Du        
    309 ****         7.2500  11.7500  37.2500 Du        
    310 ****         7.2500  11.7500  37.5000 Du        
    311 ****         7.2500  11.7500  37.7500 Du        
    312 ****         7.2500  11.7500  38.0000 Du        
    313 ****         7.2500  12.0000  37.0000 Du        
    314 ****         7.2500  12.0000  37.2500 Du        
    315 ****         7.2500  12.0000  37.5000 Du        
    316 ****         7.2500  12.0000  37.7500 Du        
    317 ****         7.2500  12.0000  38.0000 Du        
    318 ****         7.2500  12.0000  38.2500 Du        
    319 ****         7.2500  12.0000  44.0000 Du        
    320 ****         7.2500  12.0000  44.2500 Du        
    321 ****         7.2500  12.2500  37.0000 Du        
    322 ****         7.2500  12.2500  37.2500 Du        
    323 ****         7.2500  12.2500  37.5000 Du        
    324 ****         7.2500  12.2500  37.7500 Du        
    325 ****         7.2500  12.2500  38.0000 Du        
    326 ****         7.2500  12.2500  38.2500 Du        
    327 ****         7.2500  12.2500  44.0000 Du        
    328 ****         7.2500  12.2500  44.2500 Du        
    329 ****         7.2500  12.5000  37.2500 Du        
    330 ****         7.2500  12.5000  37.5000 Du        
    331 ****         7.2500  12.5000  37.7500 Du        
    332 ****         7.2500  12.5000  38.0000 Du        
    333 ****         7.2500  12.7500  37.2500 Du        
    334 ****         7.2500  12.7500  37.5000 Du        
    335 ****         7.2500  12.7500  37.7500 Du        
    336 ****         7.2500  12.7500  38.0000 Du        
    337 ****         7.2500  12.7500  38.2500 Du        
    338 ****         7.2500  13.0000  37.2500 Du        
    339 ****         7.2500  13.0000  37.5000 Du        
    340 ****         7.2500  13.0000  37.7500 Du        
    341 ****         7.2500  13.0000  38.0000 Du        
    342 ****         7.2500  13.0000  38.2500 Du        
    343 ****         7.2500  13.2500  37.2500 Du        
    344 ****         7.2500  13.2500  37.5000 Du        
    345 ****         7.2500  13.2500  37.7500 Du        
    346 ****         7.2500  13.2500  38.0000 Du        
    347 ****         7.2500  13.2500  38.2500 Du        
    348 ****         7.2500  13.5000  37.2500 Du        
    349 ****         7.2500  13.5000  37.5000 Du        
    350 ****         7.2500  13.5000  37.7500 Du        
    351 ****         7.2500  13.5000  38.0000 Du        
    352 ****         7.2500  13.5000  38.2500 Du        
    353 ****         7.2500  13.5000  38.5000 Du        
    354 ****         7.2500  13.7500  37.2500 Du        
    355 ****         7.2500  13.7500  37.5000 Du        
    356 ****         7.2500  13.7500  37.7500 Du        
    357 ****         7.2500  13.7500  38.0000 Du        
    358 ****         7.2500  13.7500  38.2500 Du        
    359 ****         7.2500  13.7500  38.5000 Du        
    360 ****         7.2500  13.7500  38.7500 Du        
    361 ****         7.2500  13.7500  41.7500 Du        
    362 ****         7.2500  14.0000  37.5000 Du        
    363 ****         7.2500  14.0000  37.7500 Du        
    364 ****         7.2500  14.0000  38.0000 Du        
    365 ****         7.2500  14.0000  38.2500 Du        
    366 ****         7.2500  14.0000  38.5000 Du        
    367 ****         7.2500  14.0000  38.7500 Du        
    368 ****         7.2500  14.0000  41.5000 Du        
    369 ****         7.2500  14.0000  41.7500 Du        
    370 ****         7.2500  14.0000  42.0000 Du        
    371 ****         7.2500  14.2500  37.7500 Du        
    372 ****         7.2500  14.2500  38.0000 Du        
    373 ****         7.2500  14.2500  38.2500 Du        
    374 ****         7.2500  14.2500  38.5000 Du        
    375 ****         7.2500  14.2500  38.7500 Du        
    376 ****         7.2500  14.2500  39.0000 Du        
    377 ****         7.2500  14.2500  39.2500 Du        
    378 ****         7.2500  14.2500  41.0000 Du        
    379 ****         7.2500  14.2500  41.2500 Du        
    380 ****         7.2500  14.2500  41.5000 Du        
    381 ****         7.2500  14.2500  41.7500 Du        
    382 ****         7.2500  14.5000  38.2500 Du        
    383 ****         7.2500  14.5000  38.5000 Du        
    384 ****         7.2500  14.5000  38.7500 Du        
    385 ****         7.2500  14.5000  39.0000 Du        
    386 ****         7.2500  14.5000  39.2500 Du        
    387 ****         7.2500  14.5000  40.7500 Du        
    388 ****         7.2500  14.5000  41.0000 Du        
    389 ****         7.2500  14.5000  41.2500 Du        
    390 ****         7.2500  14.5000  41.5000 Du        
    391 ****         7.2500  14.5000  41.7500 Du        
    392 ****         7.2500  14.7500  38.5000 Du        
    393 ****         7.2500  14.7500  38.7500 Du        
    394 ****         7.2500  14.7500  39.0000 Du        
    395 ****         7.2500  14.7500  39.2500 Du        
    396 ****         7.2500  14.7500  39.7500 Du        
    397 ****         7.2500  14.7500  40.0000 Du        
    398 ****         7.2500  14.7500  40.2500 Du        
    399 ****         7.2500  14.7500  40.5000 Du        
    400 ****         7.2500  14.7500  40.7500 Du        
    401 ****         7.2500  14.7500  41.0000 Du        
    402 ****         7.2500  14.7500  41.2500 Du        
    403 ****         7.2500  14.7500  41.5000 Du        
    404 ****         7.2500  14.7500  41.7500 Du        
    405 ****         7.2500  15.0000  38.7500 Du        
    406 ****         7.2500  15.0000  39.0000 Du        
    407 ****         7.2500  15.0000  39.2500 Du        
    408 ****         7.2500  15.0000  39.5000 Du        
    409 ****         7.2500  15.0000  39.7500 Du        
    410 ****         7.2500  15.0000  40.0000 Du        
    411 ****         7.2500  15.0000  40.2500 Du        
    412 ****         7.2500  15.0000  40.5000 Du        
    413 ****         7.2500  15.0000  40.7500 Du        
    414 ****         7.2500  15.0000  41.0000 Du        
    415 ****         7.2500  15.0000  41.2500 Du        
    416 ****         7.2500  15.0000  41.5000 Du        
    417 ****         7.2500  15.0000  41.7500 Du        
    418 ****         7.2500  15.2500  39.7500 Du        
    419 ****         7.2500  15.2500  40.0000 Du        
    420 ****         7.2500  15.2500  40.2500 Du        
    421 ****         7.2500  15.2500  40.5000 Du        
    422 ****         7.2500  15.2500  40.7500 Du        
    423 ****         7.2500  15.2500  41.0000 Du        
    424 ****         7.2500  15.2500  41.2500 Du        
    425 ****         7.2500  15.2500  41.5000 Du        
    426 ****         7.2500  15.2500  41.7500 Du        
    427 ****         7.2500  15.5000  40.5000 Du        
    428 ****         7.2500  15.5000  40.7500 Du        
    429 ****         7.2500  15.5000  41.0000 Du        
    430 ****         7.2500  15.5000  41.2500 Du        
    431 ****         7.2500  15.5000  41.5000 Du        
    432 ****         7.2500  15.5000  41.7500 Du        
    433 ****         7.2500  15.7500  40.7500 Du        
    434 ****         7.2500  15.7500  41.0000 Du        
    435 ****         7.2500  15.7500  41.2500 Du        
    436 ****         7.2500  15.7500  41.5000 Du        
    437 ****         7.2500  15.7500  41.7500 Du        
    438 ****         7.2500  16.0000  40.7500 Du        
    439 ****         7.2500  16.0000  41.0000 Du        
    440 ****         7.2500  16.0000  41.2500 Du        
    441 ****         7.2500  16.0000  41.5000 Du        
    442 ****         7.2500  16.0000  41.7500 Du        
    443 ****         7.2500  16.2500  41.0000 Du        
    444 ****         7.2500  16.2500  41.2500 Du        
    445 ****         7.2500  16.2500  41.5000 Du        
    446 ****         7.2500  16.2500  41.7500 Du        
    447 ****         7.2500  16.2500  42.0000 Du        
    448 ****         7.2500  16.5000  41.7500 Du        
    449 ****         7.5000  -9.0000  34.5000 Du        
    450 ****         7.5000  -9.0000  34.7500 Du        
    451 ****         7.5000  -8.7500  34.2500 Du        
    452 ****         7.5000  -8.7500  34.5000 Du        
    453 ****         7.5000  -8.7500  34.7500 Du        
    454 ****         7.5000  -8.5000  34.0000 Du        
    455 ****         7.5000  -8.5000  34.2500 Du        
    456 ****         7.5000  -8.5000  34.5000 Du        
    457 ****         7.5000  -8.5000  34.7500 Du        
    458 ****         7.5000  -8.2500  34.0000 Du        
    459 ****         7.5000  -8.2500  34.2500 Du        
    460 ****         7.5000  -8.2500  34.5000 Du        
    461 ****         7.5000  -8.2500  34.7500 Du        
    462 ****         7.5000  -8.0000  34.0000 Du        
    463 ****         7.5000  -8.0000  34.2500 Du        
    464 ****         7.5000  -8.0000  34.5000 Du        
    465 ****         7.5000  -8.0000  34.7500 Du        
    466 ****         7.5000  -7.7500  33.7500 Du        
    467 ****         7.5000  -7.7500  34.0000 Du        
    468 ****         7.5000  -7.7500  34.2500 Du        
    469 ****         7.5000  -7.7500  34.5000 Du        
    470 ****         7.5000  -7.7500  34.7500 Du        
    471 ****         7.5000  -7.5000  33.7500 Du        
    472 ****         7.5000  -7.5000  34.0000 Du        
    473 ****         7.5000  -7.5000  34.2500 Du        
    474 ****         7.5000  -7.5000  34.5000 Du        
    475 ****         7.5000  -7.5000  34.7500 Du        
    476 ****         7.5000  -7.2500  33.7500 Du        
    477 ****         7.5000  -7.2500  34.0000 Du        
    478 ****         7.5000  -7.2500  34.2500 Du        
    479 ****         7.5000  -7.2500  34.5000 Du        
    480 ****         7.5000  -7.2500  34.7500 Du        
    481 ****         7.5000  -7.0000  25.2500 Du        
    482 ****         7.5000  -7.0000  25.5000 Du        
    483 ****         7.5000  -7.0000  25.7500 Du        
    484 ****         7.5000  -7.0000  26.0000 Du        
    485 ****         7.5000  -7.0000  33.7500 Du        
    486 ****         7.5000  -7.0000  34.0000 Du        
    487 ****         7.5000  -7.0000  34.2500 Du        
    488 ****         7.5000  -7.0000  34.5000 Du        
    489 ****         7.5000  -7.0000  34.7500 Du        
    490 ****         7.5000  -6.7500  25.2500 Du        
    491 ****         7.5000  -6.7500  25.5000 Du        
    492 ****         7.5000  -6.7500  25.7500 Du        
    493 ****         7.5000  -6.7500  26.0000 Du        
    494 ****         7.5000  -6.7500  26.2500 Du        
    495 ****         7.5000  -6.7500  33.7500 Du        
    496 ****         7.5000  -6.7500  34.0000 Du        
    497 ****         7.5000  -6.7500  34.2500 Du        
    498 ****         7.5000  -6.7500  34.5000 Du        
    499 ****         7.5000  -6.7500  34.7500 Du        
    500 ****         7.5000  -6.5000  25.5000 Du        
    501 ****         7.5000  -6.5000  25.7500 Du        
    502 ****         7.5000  -6.5000  26.0000 Du        
    503 ****         7.5000  -6.5000  26.2500 Du        
    504 ****         7.5000  -6.5000  33.7500 Du        
    505 ****         7.5000  -6.5000  34.0000 Du        
    506 ****         7.5000  -6.5000  34.2500 Du        
    507 ****         7.5000  -6.5000  34.5000 Du        
    508 ****         7.5000  -6.5000  34.7500 Du        
    509 ****         7.5000  -6.2500  25.5000 Du        
    510 ****         7.5000  -6.2500  25.7500 Du        
    511 ****         7.5000  -6.2500  26.0000 Du        
    512 ****         7.5000  -6.2500  26.2500 Du        
    513 ****         7.5000  -6.2500  34.2500 Du        
    514 ****         7.5000  -6.2500  34.5000 Du        
    515 ****         7.5000  -6.2500  34.7500 Du        
    516 ****         7.5000  -6.2500  35.0000 Du        
    517 ****         7.5000  -2.7500  27.5000 Du        
    518 ****         7.5000  -2.5000  27.5000 Du        
    519 ****         7.5000  -2.5000  27.7500 Du        
    520 ****         7.5000   5.7500  24.5000 Du        
    521 ****         7.5000   5.7500  24.7500 Du        
    522 ****         7.5000   6.0000  24.5000 Du        
    523 ****         7.5000   9.2500  34.7500 Du        
    524 ****         7.5000   9.2500  35.0000 Du        
    525 ****         7.5000   9.2500  35.2500 Du        
    526 ****         7.5000   9.5000  34.5000 Du        
    527 ****         7.5000   9.5000  34.7500 Du        
    528 ****         7.5000   9.5000  35.0000 Du        
    529 ****         7.5000   9.5000  35.2500 Du        
    530 ****         7.5000   9.5000  35.5000 Du        
    531 ****         7.5000   9.5000  35.7500 Du        
    532 ****         7.5000   9.7500  34.7500 Du        
    533 ****         7.5000   9.7500  35.0000 Du        
    534 ****         7.5000   9.7500  35.2500 Du        
    535 ****         7.5000   9.7500  35.5000 Du        
    536 ****         7.5000   9.7500  35.7500 Du        
    537 ****         7.5000   9.7500  36.0000 Du        
    538 ****         7.5000   9.7500  36.2500 Du        
    539 ****         7.5000  10.0000  35.2500 Du        
    540 ****         7.5000  10.0000  35.5000 Du        
    541 ****         7.5000  10.0000  35.7500 Du        
    542 ****         7.5000  10.0000  36.0000 Du        
    543 ****         7.5000  10.0000  36.2500 Du        
    544 ****         7.5000  10.0000  36.5000 Du        
    545 ****         7.5000  10.2500  35.5000 Du        
    546 ****         7.5000  10.2500  35.7500 Du        
    547 ****         7.5000  10.2500  36.0000 Du        
    548 ****         7.5000  10.2500  36.2500 Du        
    549 ****         7.5000  10.2500  36.5000 Du        
    550 ****         7.5000  10.5000  36.0000 Du        
    551 ****         7.5000  10.5000  36.2500 Du        
    552 ****         7.5000  10.5000  36.5000 Du        
    553 ****         7.5000  10.5000  36.7500 Du        
    554 ****         7.5000  10.7500  36.2500 Du        
    555 ****         7.5000  10.7500  36.5000 Du        
    556 ****         7.5000  10.7500  36.7500 Du        
    557 ****         7.5000  10.7500  37.0000 Du        
    558 ****         7.5000  11.0000  36.5000 Du        
    559 ****         7.5000  11.0000  36.7500 Du        
    560 ****         7.5000  11.0000  37.0000 Du        
    561 ****         7.5000  11.0000  37.2500 Du        
    562 ****         7.5000  11.2500  36.7500 Du        
    563 ****         7.5000  11.2500  37.0000 Du        
    564 ****         7.5000  11.2500  37.2500 Du        
    565 ****         7.5000  11.2500  37.5000 Du        
    566 ****         7.5000  11.2500  37.7500 Du        
    567 ****         7.5000  11.5000  37.0000 Du        
    568 ****         7.5000  11.5000  37.2500 Du        
    569 ****         7.5000  11.5000  37.5000 Du        
    570 ****         7.5000  11.5000  37.7500 Du        
    571 ****         7.5000  11.5000  38.0000 Du        
    572 ****         7.5000  11.7500  37.0000 Du        
    573 ****         7.5000  11.7500  37.2500 Du        
    574 ****         7.5000  11.7500  37.5000 Du        
    575 ****         7.5000  11.7500  37.7500 Du        
    576 ****         7.5000  11.7500  38.0000 Du        
    577 ****         7.5000  11.7500  38.2500 Du        
    578 ****         7.5000  12.0000  37.2500 Du        
    579 ****         7.5000  12.0000  37.5000 Du        
    580 ****         7.5000  12.0000  37.7500 Du        
    581 ****         7.5000  12.0000  38.0000 Du        
    582 ****         7.5000  12.0000  38.2500 Du        
    583 ****         7.5000  12.0000  38.5000 Du        
    584 ****         7.5000  12.0000  43.5000 Du        
    585 ****         7.5000  12.0000  43.7500 Du        
    586 ****         7.5000  12.0000  44.0000 Du        
    587 ****         7.5000  12.2500  37.2500 Du        
    588 ****         7.5000  12.2500  37.5000 Du        
    589 ****         7.5000  12.2500  37.7500 Du        
    590 ****         7.5000  12.2500  38.0000 Du        
    591 ****         7.5000  12.2500  38.2500 Du        
    592 ****         7.5000  12.2500  38.5000 Du        
    593 ****         7.5000  12.2500  43.2500 Du        
    594 ****         7.5000  12.2500  43.5000 Du        
    595 ****         7.5000  12.2500  43.7500 Du        
    596 ****         7.5000  12.2500  44.0000 Du        
    597 ****         7.5000  12.5000  37.2500 Du        
    598 ****         7.5000  12.5000  37.5000 Du        
    599 ****         7.5000  12.5000  37.7500 Du        
    600 ****         7.5000  12.5000  38.0000 Du        
    601 ****         7.5000  12.5000  38.2500 Du        
    602 ****         7.5000  12.5000  38.5000 Du        
    603 ****         7.5000  12.7500  37.2500 Du        
    604 ****         7.5000  12.7500  37.5000 Du        
    605 ****         7.5000  12.7500  37.7500 Du        
    606 ****         7.5000  12.7500  38.0000 Du        
    607 ****         7.5000  12.7500  38.2500 Du        
    608 ****         7.5000  12.7500  38.5000 Du        
    609 ****         7.5000  12.7500  41.7500 Du        
    610 ****         7.5000  12.7500  42.0000 Du        
    611 ****         7.5000  13.0000  37.2500 Du        
    612 ****         7.5000  13.0000  37.5000 Du        
    613 ****         7.5000  13.0000  37.7500 Du        
    614 ****         7.5000  13.0000  38.0000 Du        
    615 ****         7.5000  13.0000  38.2500 Du        
    616 ****         7.5000  13.0000  38.5000 Du        
    617 ****         7.5000  13.0000  38.7500 Du        
    618 ****         7.5000  13.0000  41.5000 Du        
    619 ****         7.5000  13.0000  41.7500 Du        
    620 ****         7.5000  13.0000  42.0000 Du        
    621 ****         7.5000  13.0000  42.2500 Du        
    622 ****         7.5000  13.2500  37.2500 Du        
    623 ****         7.5000  13.2500  37.5000 Du        
    624 ****         7.5000  13.2500  37.7500 Du        
    625 ****         7.5000  13.2500  38.0000 Du        
    626 ****         7.5000  13.2500  38.2500 Du        
    627 ****         7.5000  13.2500  38.5000 Du        
    628 ****         7.5000  13.2500  38.7500 Du        
    629 ****         7.5000  13.2500  41.2500 Du        
    630 ****         7.5000  13.2500  41.5000 Du        
    631 ****         7.5000  13.2500  41.7500 Du        
    632 ****         7.5000  13.2500  42.0000 Du        
    633 ****         7.5000  13.5000  37.2500 Du        
    634 ****         7.5000  13.5000  37.5000 Du        
    635 ****         7.5000  13.5000  37.7500 Du        
    636 ****         7.5000  13.5000  38.0000 Du        
    637 ****         7.5000  13.5000  38.2500 Du        
    638 ****         7.5000  13.5000  38.5000 Du        
    639 ****         7.5000  13.5000  38.7500 Du        
    640 ****         7.5000  13.5000  41.2500 Du        
    641 ****         7.5000  13.5000  41.5000 Du        
    642 ****         7.5000  13.5000  41.7500 Du        
    643 ****         7.5000  13.7500  37.2500 Du        
    644 ****         7.5000  13.7500  37.5000 Du        
    645 ****         7.5000  13.7500  37.7500 Du        
    646 ****         7.5000  13.7500  38.0000 Du        
    647 ****         7.5000  13.7500  38.2500 Du        
    648 ****         7.5000  13.7500  38.5000 Du        
    649 ****         7.5000  13.7500  38.7500 Du        
    650 ****         7.5000  13.7500  39.0000 Du        
    651 ****         7.5000  13.7500  41.0000 Du        
    652 ****         7.5000  13.7500  41.2500 Du        
    653 ****         7.5000  13.7500  41.5000 Du        
    654 ****         7.5000  13.7500  41.7500 Du        
    655 ****         7.5000  14.0000  37.5000 Du        
    656 ****         7.5000  14.0000  37.7500 Du        
    657 ****         7.5000  14.0000  38.0000 Du        
    658 ****         7.5000  14.0000  38.2500 Du        
    659 ****         7.5000  14.0000  38.5000 Du        
    660 ****         7.5000  14.0000  38.7500 Du        
    661 ****         7.5000  14.0000  39.0000 Du        
    662 ****         7.5000  14.0000  39.2500 Du        
    663 ****         7.5000  14.0000  40.7500 Du        
    664 ****         7.5000  14.0000  41.0000 Du        
    665 ****         7.5000  14.0000  41.2500 Du        
    666 ****         7.5000  14.0000  41.5000 Du        
    667 ****         7.5000  14.0000  41.7500 Du        
    668 ****         7.5000  14.2500  37.7500 Du        
    669 ****         7.5000  14.2500  38.0000 Du        
    670 ****         7.5000  14.2500  38.2500 Du        
    671 ****         7.5000  14.2500  38.5000 Du        
    672 ****         7.5000  14.2500  38.7500 Du        
    673 ****         7.5000  14.2500  39.0000 Du        
    674 ****         7.5000  14.2500  39.2500 Du        
    675 ****         7.5000  14.2500  39.5000 Du        
    676 ****         7.5000  14.2500  39.7500 Du        
    677 ****         7.5000  14.2500  40.0000 Du        
    678 ****         7.5000  14.2500  40.2500 Du        
    679 ****         7.5000  14.2500  40.5000 Du        
    680 ****         7.5000  14.2500  40.7500 Du        
    681 ****         7.5000  14.2500  41.0000 Du        
    682 ****         7.5000  14.2500  41.2500 Du        
    683 ****         7.5000  14.2500  41.5000 Du        
    684 ****         7.5000  14.2500  41.7500 Du        
    685 ****         7.5000  14.5000  38.0000 Du        
    686 ****         7.5000  14.5000  38.2500 Du        
    687 ****         7.5000  14.5000  38.5000 Du        
    688 ****         7.5000  14.5000  38.7500 Du        
    689 ****         7.5000  14.5000  39.0000 Du        
    690 ****         7.5000  14.5000  39.2500 Du        
    691 ****         7.5000  14.5000  39.5000 Du        
    692 ****         7.5000  14.5000  39.7500 Du        
    693 ****         7.5000  14.5000  40.0000 Du        
    694 ****         7.5000  14.5000  40.2500 Du        
    695 ****         7.5000  14.5000  40.5000 Du        
    696 ****         7.5000  14.5000  40.7500 Du        
    697 ****         7.5000  14.5000  41.0000 Du        
    698 ****         7.5000  14.5000  41.2500 Du        
    699 ****         7.5000  14.5000  41.5000 Du        
    700 ****         7.5000  14.7500  38.2500 Du        
    701 ****         7.5000  14.7500  38.5000 Du        
    702 ****         7.5000  14.7500  38.7500 Du        
    703 ****         7.5000  14.7500  39.0000 Du        
    704 ****         7.5000  14.7500  39.2500 Du        
    705 ****         7.5000  14.7500  39.5000 Du        
    706 ****         7.5000  14.7500  39.7500 Du        
    707 ****         7.5000  14.7500  40.0000 Du        
    708 ****         7.5000  14.7500  40.2500 Du        
    709 ****         7.5000  14.7500  40.5000 Du        
    710 ****         7.5000  14.7500  40.7500 Du        
    711 ****         7.5000  14.7500  41.0000 Du        
    712 ****         7.5000  14.7500  41.2500 Du        
    713 ****         7.5000  14.7500  41.5000 Du        
    714 ****         7.5000  14.7500  41.7500 Du        
    715 ****         7.5000  15.0000  38.2500 Du        
    716 ****         7.5000  15.0000  38.5000 Du        
    717 ****         7.5000  15.0000  38.7500 Du        
    718 ****         7.5000  15.0000  39.0000 Du        
    719 ****         7.5000  15.0000  39.2500 Du        
    720 ****         7.5000  15.0000  39.5000 Du        
    721 ****         7.5000  15.0000  39.7500 Du        
    722 ****         7.5000  15.0000  40.0000 Du        
    723 ****         7.5000  15.0000  40.2500 Du        
    724 ****         7.5000  15.0000  40.5000 Du        
    725 ****         7.5000  15.0000  40.7500 Du        
    726 ****         7.5000  15.0000  41.0000 Du        
    727 ****         7.5000  15.0000  41.2500 Du        
    728 ****         7.5000  15.0000  41.5000 Du        
    729 ****         7.5000  15.0000  41.7500 Du        
    730 ****         7.5000  15.2500  38.5000 Du        
    731 ****         7.5000  15.2500  38.7500 Du        
    732 ****         7.5000  15.2500  39.0000 Du        
    733 ****         7.5000  15.2500  39.2500 Du        
    734 ****         7.5000  15.2500  39.5000 Du        
    735 ****         7.5000  15.2500  39.7500 Du        
    736 ****         7.5000  15.2500  40.0000 Du        
    737 ****         7.5000  15.2500  40.2500 Du        
    738 ****         7.5000  15.2500  40.5000 Du        
    739 ****         7.5000  15.2500  40.7500 Du        
    740 ****         7.5000  15.2500  41.0000 Du        
    741 ****         7.5000  15.2500  41.2500 Du        
    742 ****         7.5000  15.2500  41.5000 Du        
    743 ****         7.5000  15.2500  41.7500 Du        
    744 ****         7.5000  15.5000  38.7500 Du        
    745 ****         7.5000  15.5000  39.0000 Du        
    746 ****         7.5000  15.5000  39.2500 Du        
    747 ****         7.5000  15.5000  39.5000 Du        
    748 ****         7.5000  15.5000  39.7500 Du        
    749 ****         7.5000  15.5000  40.0000 Du        
    750 ****         7.5000  15.5000  40.2500 Du        
    751 ****         7.5000  15.5000  40.5000 Du        
    752 ****         7.5000  15.5000  40.7500 Du        
    753 ****         7.5000  15.5000  41.0000 Du        
    754 ****         7.5000  15.5000  41.2500 Du        
    755 ****         7.5000  15.5000  41.5000 Du        
    756 ****         7.5000  15.5000  41.7500 Du        
    757 ****         7.5000  15.7500  39.0000 Du        
    758 ****         7.5000  15.7500  39.7500 Du        
    759 ****         7.5000  15.7500  40.0000 Du        
    760 ****         7.5000  15.7500  40.2500 Du        
    761 ****         7.5000  15.7500  40.5000 Du        
    762 ****         7.5000  15.7500  40.7500 Du        
    763 ****         7.5000  15.7500  41.0000 Du        
    764 ****         7.5000  15.7500  41.2500 Du        
    765 ****         7.5000  15.7500  41.5000 Du        
    766 ****         7.5000  15.7500  41.7500 Du        
    767 ****         7.5000  16.0000  40.2500 Du        
    768 ****         7.5000  16.0000  40.5000 Du        
    769 ****         7.5000  16.0000  40.7500 Du        
    770 ****         7.5000  16.0000  41.0000 Du        
    771 ****         7.5000  16.0000  41.2500 Du        
    772 ****         7.5000  16.0000  41.5000 Du        
    773 ****         7.5000  16.0000  41.7500 Du        
    774 ****         7.5000  16.2500  40.5000 Du        
    775 ****         7.5000  16.2500  40.7500 Du        
    776 ****         7.5000  16.2500  41.0000 Du        
    777 ****         7.5000  16.2500  41.2500 Du        
    778 ****         7.5000  16.2500  41.5000 Du        
    779 ****         7.5000  16.2500  41.7500 Du        
    780 ****         7.5000  16.5000  40.7500 Du        
    781 ****         7.5000  16.5000  41.0000 Du        
    782 ****         7.5000  16.5000  41.2500 Du        
    783 ****         7.5000  16.5000  41.5000 Du        
    784 ****         7.5000  16.5000  41.7500 Du        
    785 ****         7.5000  16.7500  41.0000 Du        
    786 ****         7.5000  16.7500  41.2500 Du        
    787 ****         7.5000  16.7500  41.5000 Du        
    788 ****         7.5000  16.7500  41.7500 Du        
    789 ****         7.5000  17.0000  41.2500 Du        
    790 ****         7.5000  17.0000  41.7500 Du        
    791 ****         7.5000  17.0000  42.0000 Du        
    792 ****         7.7500  -9.0000  34.7500 Du        
    793 ****         7.7500  -8.7500  34.2500 Du        
    794 ****         7.7500  -8.7500  34.5000 Du        
    795 ****         7.7500  -8.7500  34.7500 Du        
    796 ****         7.7500  -8.7500  35.0000 Du        
    797 ****         7.7500  -8.5000  34.0000 Du        
    798 ****         7.7500  -8.5000  34.2500 Du        
    799 ****         7.7500  -8.5000  34.5000 Du        
    800 ****         7.7500  -8.5000  34.7500 Du        
    801 ****         7.7500  -8.5000  35.0000 Du        
    802 ****         7.7500  -8.2500  34.0000 Du        
    803 ****         7.7500  -8.2500  34.2500 Du        
    804 ****         7.7500  -8.2500  34.5000 Du        
    805 ****         7.7500  -8.2500  34.7500 Du        
    806 ****         7.7500  -8.2500  35.0000 Du        
    807 ****         7.7500  -8.0000  34.0000 Du        
    808 ****         7.7500  -8.0000  34.2500 Du        
    809 ****         7.7500  -8.0000  34.5000 Du        
    810 ****         7.7500  -8.0000  34.7500 Du        
    811 ****         7.7500  -7.7500  34.0000 Du        
    812 ****         7.7500  -7.7500  34.2500 Du        
    813 ****         7.7500  -7.7500  34.5000 Du        
    814 ****         7.7500  -7.7500  34.7500 Du        
    815 ****         7.7500  -7.5000  34.0000 Du        
    816 ****         7.7500  -7.5000  34.2500 Du        
    817 ****         7.7500  -7.5000  34.5000 Du        
    818 ****         7.7500  -7.5000  34.7500 Du        
    819 ****         7.7500  -7.2500  33.7500 Du        
    820 ****         7.7500  -7.2500  34.0000 Du        
    821 ****         7.7500  -7.2500  34.2500 Du        
    822 ****         7.7500  -7.2500  34.5000 Du        
    823 ****         7.7500  -7.2500  34.7500 Du        
    824 ****         7.7500  -7.0000  25.2500 Du        
    825 ****         7.7500  -7.0000  25.5000 Du        
    826 ****         7.7500  -7.0000  25.7500 Du        
    827 ****         7.7500  -7.0000  26.0000 Du        
    828 ****         7.7500  -7.0000  33.7500 Du        
    829 ****         7.7500  -7.0000  34.0000 Du        
    830 ****         7.7500  -7.0000  34.2500 Du        
    831 ****         7.7500  -7.0000  34.5000 Du        
    832 ****         7.7500  -7.0000  34.7500 Du        
    833 ****         7.7500  -6.7500  25.0000 Du        
    834 ****         7.7500  -6.7500  25.2500 Du        
    835 ****         7.7500  -6.7500  25.5000 Du        
    836 ****         7.7500  -6.7500  25.7500 Du        
    837 ****         7.7500  -6.7500  26.0000 Du        
    838 ****         7.7500  -6.7500  26.2500 Du        
    839 ****         7.7500  -6.7500  33.7500 Du        
    840 ****         7.7500  -6.7500  34.0000 Du        
    841 ****         7.7500  -6.7500  34.2500 Du        
    842 ****         7.7500  -6.7500  34.5000 Du        
    843 ****         7.7500  -6.7500  34.7500 Du        
    844 ****         7.7500  -6.5000  25.5000 Du        
    845 ****         7.7500  -6.5000  25.7500 Du        
    846 ****         7.7500  -6.5000  26.0000 Du        
    847 ****         7.7500  -6.5000  26.2500 Du        
    848 ****         7.7500  -6.5000  34.0000 Du        
    849 ****         7.7500  -6.5000  34.2500 Du        
    850 ****         7.7500  -6.5000  34.5000 Du        
    851 ****         7.7500  -6.5000  34.7500 Du        
    852 ****         7.7500  -6.5000  35.0000 Du        
    853 ****         7.7500  -6.2500  25.7500 Du        
    854 ****         7.7500  -6.2500  26.0000 Du        
    855 ****         7.7500  -6.2500  26.2500 Du        
    856 ****         7.7500  -6.2500  34.5000 Du        
    857 ****         7.7500  -6.2500  34.7500 Du        
    858 ****         7.7500  -2.7500  27.5000 Du        
    859 ****         7.7500   5.0000  24.5000 Du        
    860 ****         7.7500   5.0000  24.7500 Du        
    861 ****         7.7500   5.5000  24.5000 Du        
    862 ****         7.7500   5.7500  24.5000 Du        
    863 ****         7.7500   6.0000  24.2500 Du        
    864 ****         7.7500   6.0000  24.5000 Du        
    865 ****         7.7500   9.2500  35.0000 Du        
    866 ****         7.7500   9.2500  35.2500 Du        
    867 ****         7.7500   9.2500  35.5000 Du        
    868 ****         7.7500   9.5000  34.7500 Du        
    869 ****         7.7500   9.5000  35.0000 Du        
    870 ****         7.7500   9.5000  35.2500 Du        
    871 ****         7.7500   9.5000  35.5000 Du        
    872 ****         7.7500   9.5000  35.7500 Du        
    873 ****         7.7500   9.5000  36.0000 Du        
    874 ****         7.7500   9.7500  35.0000 Du        
    875 ****         7.7500   9.7500  35.2500 Du        
    876 ****         7.7500   9.7500  35.5000 Du        
    877 ****         7.7500   9.7500  35.7500 Du        
    878 ****         7.7500   9.7500  36.0000 Du        
    879 ****         7.7500   9.7500  36.2500 Du        
    880 ****         7.7500   9.7500  36.5000 Du        
    881 ****         7.7500  10.0000  35.2500 Du        
    882 ****         7.7500  10.0000  35.5000 Du        
    883 ****         7.7500  10.0000  35.7500 Du        
    884 ****         7.7500  10.0000  36.0000 Du        
    885 ****         7.7500  10.0000  36.2500 Du        
    886 ****         7.7500  10.0000  36.5000 Du        
    887 ****         7.7500  10.2500  35.7500 Du        
    888 ****         7.7500  10.2500  36.0000 Du        
    889 ****         7.7500  10.2500  36.2500 Du        
    890 ****         7.7500  10.2500  36.5000 Du        
    891 ****         7.7500  10.2500  36.7500 Du        
    892 ****         7.7500  10.5000  36.0000 Du        
    893 ****         7.7500  10.5000  36.2500 Du        
    894 ****         7.7500  10.5000  36.5000 Du        
    895 ****         7.7500  10.5000  36.7500 Du        
    896 ****         7.7500  10.5000  37.0000 Du        
    897 ****         7.7500  10.7500  36.2500 Du        
    898 ****         7.7500  10.7500  36.5000 Du        
    899 ****         7.7500  10.7500  36.7500 Du        
    900 ****         7.7500  10.7500  37.0000 Du        
    901 ****         7.7500  10.7500  37.2500 Du        
    902 ****         7.7500  11.0000  36.5000 Du        
    903 ****         7.7500  11.0000  36.7500 Du        
    904 ****         7.7500  11.0000  37.0000 Du        
    905 ****         7.7500  11.0000  37.2500 Du        
    906 ****         7.7500  11.0000  37.5000 Du        
    907 ****         7.7500  11.2500  36.7500 Du        
    908 ****         7.7500  11.2500  37.0000 Du        
    909 ****         7.7500  11.2500  37.2500 Du        
    910 ****         7.7500  11.2500  37.5000 Du        
    911 ****         7.7500  11.2500  37.7500 Du        
    912 ****         7.7500  11.5000  37.0000 Du        
    913 ****         7.7500  11.5000  37.2500 Du        
    914 ****         7.7500  11.5000  37.5000 Du        
    915 ****         7.7500  11.5000  37.7500 Du        
    916 ****         7.7500  11.5000  38.0000 Du        
    917 ****         7.7500  11.7500  37.0000 Du        
    918 ****         7.7500  11.7500  37.2500 Du        
    919 ****         7.7500  11.7500  37.5000 Du        
    920 ****         7.7500  11.7500  37.7500 Du        
    921 ****         7.7500  11.7500  38.0000 Du        
    922 ****         7.7500  11.7500  38.2500 Du        
    923 ****         7.7500  11.7500  43.2500 Du        
    924 ****         7.7500  11.7500  43.5000 Du        
    925 ****         7.7500  12.0000  37.2500 Du        
    926 ****         7.7500  12.0000  37.5000 Du        
    927 ****         7.7500  12.0000  37.7500 Du        
    928 ****         7.7500  12.0000  38.0000 Du        
    929 ****         7.7500  12.0000  38.2500 Du        
    930 ****         7.7500  12.0000  42.7500 Du        
    931 ****         7.7500  12.0000  43.0000 Du        
    932 ****         7.7500  12.0000  43.2500 Du        
    933 ****         7.7500  12.0000  43.5000 Du        
    934 ****         7.7500  12.0000  43.7500 Du        
    935 ****         7.7500  12.2500  37.2500 Du        
    936 ****         7.7500  12.2500  37.5000 Du        
    937 ****         7.7500  12.2500  37.7500 Du        
    938 ****         7.7500  12.2500  38.0000 Du        
    939 ****         7.7500  12.2500  38.2500 Du        
    940 ****         7.7500  12.2500  38.5000 Du        
    941 ****         7.7500  12.2500  42.0000 Du        
    942 ****         7.7500  12.2500  42.2500 Du        
    943 ****         7.7500  12.2500  42.5000 Du        
    944 ****         7.7500  12.2500  42.7500 Du        
    945 ****         7.7500  12.2500  43.0000 Du        
    946 ****         7.7500  12.2500  43.2500 Du        
    947 ****         7.7500  12.2500  43.5000 Du        
    948 ****         7.7500  12.2500  43.7500 Du        
    949 ****         7.7500  12.5000  37.2500 Du        
    950 ****         7.7500  12.5000  37.5000 Du        
    951 ****         7.7500  12.5000  37.7500 Du        
    952 ****         7.7500  12.5000  38.0000 Du        
    953 ****         7.7500  12.5000  38.2500 Du        
    954 ****         7.7500  12.5000  38.5000 Du        
    955 ****         7.7500  12.5000  38.7500 Du        
    956 ****         7.7500  12.5000  41.5000 Du        
    957 ****         7.7500  12.5000  41.7500 Du        
    958 ****         7.7500  12.5000  42.0000 Du        
    959 ****         7.7500  12.5000  42.2500 Du        
    960 ****         7.7500  12.5000  42.5000 Du        
    961 ****         7.7500  12.5000  42.7500 Du        
    962 ****         7.7500  12.5000  43.0000 Du        
    963 ****         7.7500  12.7500  37.2500 Du        
    964 ****         7.7500  12.7500  37.5000 Du        
    965 ****         7.7500  12.7500  37.7500 Du        
    966 ****         7.7500  12.7500  38.0000 Du        
    967 ****         7.7500  12.7500  38.2500 Du        
    968 ****         7.7500  12.7500  38.5000 Du        
    969 ****         7.7500  12.7500  38.7500 Du        
    970 ****         7.7500  12.7500  41.2500 Du        
    971 ****         7.7500  12.7500  41.5000 Du        
    972 ****         7.7500  12.7500  41.7500 Du        
    973 ****         7.7500  12.7500  42.0000 Du        
    974 ****         7.7500  12.7500  42.2500 Du        
    975 ****         7.7500  12.7500  42.5000 Du        
    976 ****         7.7500  13.0000  37.2500 Du        
    977 ****         7.7500  13.0000  37.5000 Du        
    978 ****         7.7500  13.0000  37.7500 Du        
    979 ****         7.7500  13.0000  38.0000 Du        
    980 ****         7.7500  13.0000  38.2500 Du        
    981 ****         7.7500  13.0000  38.5000 Du        
    982 ****         7.7500  13.0000  38.7500 Du        
    983 ****         7.7500  13.0000  39.0000 Du        
    984 ****         7.7500  13.0000  41.2500 Du        
    985 ****         7.7500  13.0000  41.5000 Du        
    986 ****         7.7500  13.0000  41.7500 Du        
    987 ****         7.7500  13.0000  42.0000 Du        
    988 ****         7.7500  13.0000  42.2500 Du        
    989 ****         7.7500  13.2500  37.2500 Du        
    990 ****         7.7500  13.2500  37.5000 Du        
    991 ****         7.7500  13.2500  37.7500 Du        
    992 ****         7.7500  13.2500  38.0000 Du        
    993 ****         7.7500  13.2500  38.2500 Du        
    994 ****         7.7500  13.2500  38.5000 Du        
    995 ****         7.7500  13.2500  38.7500 Du        
    996 ****         7.7500  13.2500  39.0000 Du        
    997 ****         7.7500  13.2500  41.2500 Du        
    998 ****         7.7500  13.2500  41.5000 Du        
    999 ****         7.7500  13.2500  41.7500 Du        
   1000 ****         7.7500  13.2500  42.0000 Du        
   1001 ****         7.7500  13.5000  37.2500 Du        
   1002 ****         7.7500  13.5000  37.5000 Du        
   1003 ****         7.7500  13.5000  37.7500 Du        
   1004 ****         7.7500  13.5000  38.0000 Du        
   1005 ****         7.7500  13.5000  38.2500 Du        
   1006 ****         7.7500  13.5000  38.5000 Du        
   1007 ****         7.7500  13.5000  38.7500 Du        
   1008 ****         7.7500  13.5000  39.0000 Du        
   1009 ****         7.7500  13.5000  41.2500 Du        
   1010 ****         7.7500  13.5000  41.5000 Du        
   1011 ****         7.7500  13.5000  41.7500 Du        
   1012 ****         7.7500  13.7500  37.5000 Du        
   1013 ****         7.7500  13.7500  37.7500 Du        
   1014 ****         7.7500  13.7500  38.0000 Du        
   1015 ****         7.7500  13.7500  38.2500 Du        
   1016 ****         7.7500  13.7500  38.5000 Du        
   1017 ****         7.7500  13.7500  38.7500 Du        
   1018 ****         7.7500  13.7500  39.0000 Du        
   1019 ****         7.7500  13.7500  39.2500 Du        
   1020 ****         7.7500  13.7500  41.0000 Du        
   1021 ****         7.7500  13.7500  41.2500 Du        
   1022 ****         7.7500  13.7500  41.5000 Du        
   1023 ****         7.7500  13.7500  41.7500 Du        
   1024 ****         7.7500  14.0000  37.5000 Du        
   1025 ****         7.7500  14.0000  37.7500 Du        
   1026 ****         7.7500  14.0000  38.0000 Du        
   1027 ****         7.7500  14.0000  38.2500 Du        
   1028 ****         7.7500  14.0000  38.5000 Du        
   1029 ****         7.7500  14.0000  38.7500 Du        
   1030 ****         7.7500  14.0000  39.0000 Du        
   1031 ****         7.7500  14.0000  39.2500 Du        
   1032 ****         7.7500  14.0000  39.5000 Du        
   1033 ****         7.7500  14.0000  40.7500 Du        
   1034 ****         7.7500  14.0000  41.0000 Du        
   1035 ****         7.7500  14.0000  41.2500 Du        
   1036 ****         7.7500  14.0000  41.5000 Du        
   1037 ****         7.7500  14.2500  37.7500 Du        
   1038 ****         7.7500  14.2500  38.0000 Du        
   1039 ****         7.7500  14.2500  38.2500 Du        
   1040 ****         7.7500  14.2500  38.5000 Du        
   1041 ****         7.7500  14.2500  38.7500 Du        
   1042 ****         7.7500  14.2500  39.0000 Du        
   1043 ****         7.7500  14.2500  39.2500 Du        
   1044 ****         7.7500  14.2500  39.5000 Du        
   1045 ****         7.7500  14.2500  39.7500 Du        
   1046 ****         7.7500  14.2500  40.0000 Du        
   1047 ****         7.7500  14.2500  40.2500 Du        
   1048 ****         7.7500  14.2500  40.5000 Du        
   1049 ****         7.7500  14.2500  40.7500 Du        
   1050 ****         7.7500  14.2500  41.0000 Du        
   1051 ****         7.7500  14.2500  41.2500 Du        
   1052 ****         7.7500  14.2500  41.5000 Du        
   1053 ****         7.7500  14.5000  37.7500 Du        
   1054 ****         7.7500  14.5000  38.0000 Du        
   1055 ****         7.7500  14.5000  38.2500 Du        
   1056 ****         7.7500  14.5000  38.5000 Du        
   1057 ****         7.7500  14.5000  38.7500 Du        
   1058 ****         7.7500  14.5000  39.0000 Du        
   1059 ****         7.7500  14.5000  39.2500 Du        
   1060 ****         7.7500  14.5000  39.5000 Du        
   1061 ****         7.7500  14.5000  39.7500 Du        
   1062 ****         7.7500  14.5000  40.0000 Du        
   1063 ****         7.7500  14.5000  40.2500 Du        
   1064 ****         7.7500  14.5000  40.5000 Du        
   1065 ****         7.7500  14.5000  40.7500 Du        
   1066 ****         7.7500  14.5000  41.0000 Du        
   1067 ****         7.7500  14.5000  41.2500 Du        
   1068 ****         7.7500  14.5000  41.5000 Du        
   1069 ****         7.7500  14.7500  38.0000 Du        
   1070 ****         7.7500  14.7500  38.2500 Du        
   1071 ****         7.7500  14.7500  38.5000 Du        
   1072 ****         7.7500  14.7500  38.7500 Du        
   1073 ****         7.7500  14.7500  39.0000 Du        
   1074 ****         7.7500  14.7500  39.2500 Du        
   1075 ****         7.7500  14.7500  39.5000 Du        
   1076 ****         7.7500  14.7500  39.7500 Du        
   1077 ****         7.7500  14.7500  40.0000 Du        
   1078 ****         7.7500  14.7500  40.2500 Du        
   1079 ****         7.7500  14.7500  40.5000 Du        
   1080 ****         7.7500  14.7500  40.7500 Du        
   1081 ****         7.7500  14.7500  41.0000 Du        
   1082 ****         7.7500  14.7500  41.2500 Du        
   1083 ****         7.7500  14.7500  41.5000 Du        
   1084 ****         7.7500  15.0000  38.0000 Du        
   1085 ****         7.7500  15.0000  38.2500 Du        
   1086 ****         7.7500  15.0000  38.5000 Du        
   1087 ****         7.7500  15.0000  38.7500 Du        
   1088 ****         7.7500  15.0000  39.0000 Du        
   1089 ****         7.7500  15.0000  39.2500 Du        
   1090 ****         7.7500  15.0000  39.5000 Du        
   1091 ****         7.7500  15.0000  39.7500 Du        
   1092 ****         7.7500  15.0000  40.0000 Du        
   1093 ****         7.7500  15.0000  40.2500 Du        
   1094 ****         7.7500  15.0000  40.5000 Du        
   1095 ****         7.7500  15.0000  40.7500 Du        
   1096 ****         7.7500  15.0000  41.0000 Du        
   1097 ****         7.7500  15.0000  41.2500 Du        
   1098 ****         7.7500  15.0000  41.5000 Du        
   1099 ****         7.7500  15.2500  38.2500 Du        
   1100 ****         7.7500  15.2500  38.5000 Du        
   1101 ****         7.7500  15.2500  38.7500 Du        
   1102 ****         7.7500  15.2500  39.0000 Du        
   1103 ****         7.7500  15.2500  39.2500 Du        
   1104 ****         7.7500  15.2500  39.5000 Du        
   1105 ****         7.7500  15.2500  39.7500 Du        
   1106 ****         7.7500  15.2500  40.0000 Du        
   1107 ****         7.7500  15.2500  40.2500 Du        
   1108 ****         7.7500  15.2500  40.5000 Du        
   1109 ****         7.7500  15.2500  40.7500 Du        
   1110 ****         7.7500  15.2500  41.0000 Du        
   1111 ****         7.7500  15.2500  41.2500 Du        
   1112 ****         7.7500  15.2500  41.5000 Du        
   1113 ****         7.7500  15.5000  38.5000 Du        
   1114 ****         7.7500  15.5000  38.7500 Du        
   1115 ****         7.7500  15.5000  39.0000 Du        
   1116 ****         7.7500  15.5000  39.2500 Du        
   1117 ****         7.7500  15.5000  39.5000 Du        
   1118 ****         7.7500  15.5000  39.7500 Du        
   1119 ****         7.7500  15.5000  40.0000 Du        
   1120 ****         7.7500  15.5000  40.2500 Du        
   1121 ****         7.7500  15.5000  40.5000 Du        
   1122 ****         7.7500  15.5000  40.7500 Du        
   1123 ****         7.7500  15.5000  41.0000 Du        
   1124 ****         7.7500  15.5000  41.2500 Du        
   1125 ****         7.7500  15.5000  41.5000 Du        
   1126 ****         7.7500  15.7500  38.5000 Du        
   1127 ****         7.7500  15.7500  38.7500 Du        
   1128 ****         7.7500  15.7500  39.0000 Du        
   1129 ****         7.7500  15.7500  39.2500 Du        
   1130 ****         7.7500  15.7500  39.5000 Du        
   1131 ****         7.7500  15.7500  39.7500 Du        
   1132 ****         7.7500  15.7500  40.0000 Du        
   1133 ****         7.7500  15.7500  40.2500 Du        
   1134 ****         7.7500  15.7500  40.5000 Du        
   1135 ****         7.7500  15.7500  40.7500 Du        
   1136 ****         7.7500  15.7500  41.0000 Du        
   1137 ****         7.7500  15.7500  41.2500 Du        
   1138 ****         7.7500  15.7500  41.5000 Du        
   1139 ****         7.7500  16.0000  38.7500 Du        
   1140 ****         7.7500  16.0000  39.0000 Du        
   1141 ****         7.7500  16.0000  39.2500 Du        
   1142 ****         7.7500  16.0000  39.5000 Du        
   1143 ****         7.7500  16.0000  39.7500 Du        
   1144 ****         7.7500  16.0000  40.0000 Du        
   1145 ****         7.7500  16.0000  40.2500 Du        
   1146 ****         7.7500  16.0000  40.5000 Du        
   1147 ****         7.7500  16.0000  40.7500 Du        
   1148 ****         7.7500  16.0000  41.0000 Du        
   1149 ****         7.7500  16.0000  41.2500 Du        
   1150 ****         7.7500  16.0000  41.5000 Du        
   1151 ****         7.7500  16.0000  41.7500 Du        
   1152 ****         7.7500  16.2500  39.0000 Du        
   1153 ****         7.7500  16.2500  39.2500 Du        
   1154 ****         7.7500  16.2500  39.7500 Du        
   1155 ****         7.7500  16.2500  40.0000 Du        
   1156 ****         7.7500  16.2500  40.2500 Du        
   1157 ****         7.7500  16.2500  40.5000 Du        
   1158 ****         7.7500  16.2500  40.7500 Du        
   1159 ****         7.7500  16.2500  41.0000 Du        
   1160 ****         7.7500  16.2500  41.2500 Du        
   1161 ****         7.7500  16.2500  41.5000 Du        
   1162 ****         7.7500  16.2500  41.7500 Du        
   1163 ****         7.7500  16.5000  40.5000 Du        
   1164 ****         7.7500  16.5000  40.7500 Du        
   1165 ****         7.7500  16.5000  41.0000 Du        
   1166 ****         7.7500  16.5000  41.2500 Du        
   1167 ****         7.7500  16.5000  41.5000 Du        
   1168 ****         7.7500  16.5000  41.7500 Du        
   1169 ****         7.7500  16.7500  40.5000 Du        
   1170 ****         7.7500  16.7500  40.7500 Du        
   1171 ****         7.7500  16.7500  41.0000 Du        
   1172 ****         7.7500  16.7500  41.2500 Du        
   1173 ****         7.7500  16.7500  41.5000 Du        
   1174 ****         7.7500  16.7500  41.7500 Du        
   1175 ****         7.7500  16.7500  42.0000 Du        
   1176 ****         7.7500  17.0000  41.0000 Du        
   1177 ****         7.7500  17.0000  41.2500 Du        
   1178 ****         7.7500  17.0000  41.5000 Du        
   1179 ****         7.7500  17.0000  41.7500 Du        
   1180 ****         7.7500  17.0000  42.0000 Du        
   1181 ****         7.7500  17.2500  41.2500 Du        
   1182 ****         7.7500  17.2500  41.7500 Du        
   1183 ****         7.7500  17.2500  42.0000 Du        
   1184 ****         7.7500  17.2500  42.2500 Du        
   1185 ****         8.0000 -10.0000  21.5000 Du        
   1186 ****         8.0000 -10.0000  21.7500 Du        
   1187 ****         8.0000 -10.0000  22.0000 Du        
   1188 ****         8.0000  -9.7500  21.5000 Du        
   1189 ****         8.0000  -9.7500  21.7500 Du        
   1190 ****         8.0000  -9.7500  22.0000 Du        
   1191 ****         8.0000  -9.5000  21.5000 Du        
   1192 ****         8.0000  -9.5000  21.7500 Du        
   1193 ****         8.0000  -8.7500  34.2500 Du        
   1194 ****         8.0000  -8.7500  34.5000 Du        
   1195 ****         8.0000  -8.7500  34.7500 Du        
   1196 ****         8.0000  -8.7500  35.0000 Du        
   1197 ****         8.0000  -8.5000  34.2500 Du        
   1198 ****         8.0000  -8.5000  34.5000 Du        
   1199 ****         8.0000  -8.5000  34.7500 Du        
   1200 ****         8.0000  -8.5000  35.0000 Du        
   1201 ****         8.0000  -8.2500  34.0000 Du        
   1202 ****         8.0000  -8.2500  34.2500 Du        
   1203 ****         8.0000  -8.2500  34.5000 Du        
   1204 ****         8.0000  -8.2500  34.7500 Du        
   1205 ****         8.0000  -8.2500  35.0000 Du        
   1206 ****         8.0000  -8.0000  34.0000 Du        
   1207 ****         8.0000  -8.0000  34.2500 Du        
   1208 ****         8.0000  -8.0000  34.5000 Du        
   1209 ****         8.0000  -8.0000  34.7500 Du        
   1210 ****         8.0000  -8.0000  35.0000 Du        
   1211 ****         8.0000  -7.7500  34.0000 Du        
   1212 ****         8.0000  -7.7500  34.2500 Du        
   1213 ****         8.0000  -7.7500  34.5000 Du        
   1214 ****         8.0000  -7.7500  34.7500 Du        
   1215 ****         8.0000  -7.7500  35.0000 Du        
   1216 ****         8.0000  -7.5000  34.0000 Du        
   1217 ****         8.0000  -7.5000  34.2500 Du        
   1218 ****         8.0000  -7.5000  34.5000 Du        
   1219 ****         8.0000  -7.5000  34.7500 Du        
   1220 ****         8.0000  -7.5000  35.0000 Du        
   1221 ****         8.0000  -7.2500  25.5000 Du        
   1222 ****         8.0000  -7.2500  25.7500 Du        
   1223 ****         8.0000  -7.2500  33.7500 Du        
   1224 ****         8.0000  -7.2500  34.0000 Du        
   1225 ****         8.0000  -7.2500  34.2500 Du        
   1226 ****         8.0000  -7.2500  34.5000 Du        
   1227 ****         8.0000  -7.2500  34.7500 Du        
   1228 ****         8.0000  -7.2500  35.0000 Du        
   1229 ****         8.0000  -7.0000  25.0000 Du        
   1230 ****         8.0000  -7.0000  25.2500 Du        
   1231 ****         8.0000  -7.0000  25.5000 Du        
   1232 ****         8.0000  -7.0000  25.7500 Du        
   1233 ****         8.0000  -7.0000  26.0000 Du        
   1234 ****         8.0000  -7.0000  33.7500 Du        
   1235 ****         8.0000  -7.0000  34.0000 Du        
   1236 ****         8.0000  -7.0000  34.2500 Du        
   1237 ****         8.0000  -7.0000  34.5000 Du        
   1238 ****         8.0000  -7.0000  34.7500 Du        
   1239 ****         8.0000  -7.0000  35.0000 Du        
   1240 ****         8.0000  -6.7500  25.0000 Du        
   1241 ****         8.0000  -6.7500  25.2500 Du        
   1242 ****         8.0000  -6.7500  25.5000 Du        
   1243 ****         8.0000  -6.7500  25.7500 Du        
   1244 ****         8.0000  -6.7500  26.0000 Du        
   1245 ****         8.0000  -6.7500  26.2500 Du        
   1246 ****         8.0000  -6.7500  33.7500 Du        
   1247 ****         8.0000  -6.7500  34.0000 Du        
   1248 ****         8.0000  -6.7500  34.2500 Du        
   1249 ****         8.0000  -6.7500  34.5000 Du        
   1250 ****         8.0000  -6.7500  34.7500 Du        
   1251 ****         8.0000  -6.7500  35.0000 Du        
   1252 ****         8.0000  -6.5000  25.5000 Du        
   1253 ****         8.0000  -6.5000  25.7500 Du        
   1254 ****         8.0000  -6.5000  26.0000 Du        
   1255 ****         8.0000  -6.5000  26.2500 Du        
   1256 ****         8.0000  -6.5000  34.0000 Du        
   1257 ****         8.0000  -6.5000  34.2500 Du        
   1258 ****         8.0000  -6.5000  34.5000 Du        
   1259 ****         8.0000  -6.5000  34.7500 Du        
   1260 ****         8.0000  -6.5000  35.0000 Du        
   1261 ****         8.0000  -6.2500  26.0000 Du        
   1262 ****         8.0000   4.5000  24.5000 Du        
   1263 ****         8.0000   4.5000  24.7500 Du        
   1264 ****         8.0000   4.7500  24.5000 Du        
   1265 ****         8.0000   4.7500  24.7500 Du        
   1266 ****         8.0000   5.0000  24.5000 Du        
   1267 ****         8.0000   5.0000  24.7500 Du        
   1268 ****         8.0000   5.2500  24.5000 Du        
   1269 ****         8.0000   5.2500  24.7500 Du        
   1270 ****         8.0000   5.5000  24.5000 Du        
   1271 ****         8.0000   5.5000  24.7500 Du        
   1272 ****         8.0000   5.7500  24.2500 Du        
   1273 ****         8.0000   5.7500  24.5000 Du        
   1274 ****         8.0000   5.7500  24.7500 Du        
   1275 ****         8.0000   6.0000  24.0000 Du        
   1276 ****         8.0000   6.0000  24.2500 Du        
   1277 ****         8.0000   6.0000  24.5000 Du        
   1278 ****         8.0000   6.2500  24.2500 Du        
   1279 ****         8.0000   6.2500  24.5000 Du        
   1280 ****         8.0000   9.2500  35.2500 Du        
   1281 ****         8.0000   9.2500  35.5000 Du        
   1282 ****         8.0000   9.2500  35.7500 Du        
   1283 ****         8.0000   9.2500  36.0000 Du        
   1284 ****         8.0000   9.5000  35.0000 Du        
   1285 ****         8.0000   9.5000  35.2500 Du        
   1286 ****         8.0000   9.5000  35.5000 Du        
   1287 ****         8.0000   9.5000  35.7500 Du        
   1288 ****         8.0000   9.5000  36.0000 Du        
   1289 ****         8.0000   9.5000  36.2500 Du        
   1290 ****         8.0000   9.7500  35.0000 Du        
   1291 ****         8.0000   9.7500  35.2500 Du        
   1292 ****         8.0000   9.7500  35.5000 Du        
   1293 ****         8.0000   9.7500  35.7500 Du        
   1294 ****         8.0000   9.7500  36.0000 Du        
   1295 ****         8.0000   9.7500  36.2500 Du        
   1296 ****         8.0000   9.7500  36.5000 Du        
   1297 ****         8.0000  10.0000  35.2500 Du        
   1298 ****         8.0000  10.0000  35.5000 Du        
   1299 ****         8.0000  10.0000  35.7500 Du        
   1300 ****         8.0000  10.0000  36.0000 Du        
   1301 ****         8.0000  10.0000  36.2500 Du        
   1302 ****         8.0000  10.0000  36.5000 Du        
   1303 ****         8.0000  10.0000  36.7500 Du        
   1304 ****         8.0000  10.2500  35.7500 Du        
   1305 ****         8.0000  10.2500  36.0000 Du        
   1306 ****         8.0000  10.2500  36.2500 Du        
   1307 ****         8.0000  10.2500  36.5000 Du        
   1308 ****         8.0000  10.2500  36.7500 Du        
   1309 ****         8.0000  10.2500  37.0000 Du        
   1310 ****         8.0000  10.5000  36.0000 Du        
   1311 ****         8.0000  10.5000  36.2500 Du        
   1312 ****         8.0000  10.5000  36.5000 Du        
   1313 ****         8.0000  10.5000  36.7500 Du        
   1314 ****         8.0000  10.5000  37.0000 Du        
   1315 ****         8.0000  10.5000  37.2500 Du        
   1316 ****         8.0000  10.7500  36.2500 Du        
   1317 ****         8.0000  10.7500  36.5000 Du        
   1318 ****         8.0000  10.7500  36.7500 Du        
   1319 ****         8.0000  10.7500  37.0000 Du        
   1320 ****         8.0000  10.7500  37.2500 Du        
   1321 ****         8.0000  11.0000  36.5000 Du        
   1322 ****         8.0000  11.0000  36.7500 Du        
   1323 ****         8.0000  11.0000  37.0000 Du        
   1324 ****         8.0000  11.0000  37.2500 Du        
   1325 ****         8.0000  11.0000  37.5000 Du        
   1326 ****         8.0000  11.2500  36.7500 Du        
   1327 ****         8.0000  11.2500  37.0000 Du        
   1328 ****         8.0000  11.2500  37.2500 Du        
   1329 ****         8.0000  11.2500  37.5000 Du        
   1330 ****         8.0000  11.5000  37.0000 Du        
   1331 ****         8.0000  11.5000  37.2500 Du        
   1332 ****         8.0000  11.5000  37.5000 Du        
   1333 ****         8.0000  11.7500  37.2500 Du        
   1334 ****         8.0000  11.7500  37.5000 Du        
   1335 ****         8.0000  11.7500  37.7500 Du        
   1336 ****         8.0000  11.7500  43.0000 Du        
   1337 ****         8.0000  11.7500  43.2500 Du        
   1338 ****         8.0000  12.0000  37.2500 Du        
   1339 ****         8.0000  12.0000  37.5000 Du        
   1340 ****         8.0000  12.0000  37.7500 Du        
   1341 ****         8.0000  12.0000  38.0000 Du        
   1342 ****         8.0000  12.0000  42.2500 Du        
   1343 ****         8.0000  12.0000  42.5000 Du        
   1344 ****         8.0000  12.0000  42.7500 Du        
   1345 ****         8.0000  12.0000  43.0000 Du        
   1346 ****         8.0000  12.0000  43.2500 Du        
   1347 ****         8.0000  12.0000  43.5000 Du        
   1348 ****         8.0000  12.2500  37.2500 Du        
   1349 ****         8.0000  12.2500  37.5000 Du        
   1350 ****         8.0000  12.2500  37.7500 Du        
   1351 ****         8.0000  12.2500  38.0000 Du        
   1352 ****         8.0000  12.2500  41.7500 Du        
   1353 ****         8.0000  12.2500  42.0000 Du        
   1354 ****         8.0000  12.2500  42.2500 Du        
   1355 ****         8.0000  12.2500  42.5000 Du        
   1356 ****         8.0000  12.2500  42.7500 Du        
   1357 ****         8.0000  12.2500  43.0000 Du        
   1358 ****         8.0000  12.2500  43.2500 Du        
   1359 ****         8.0000  12.2500  43.5000 Du        
   1360 ****         8.0000  12.5000  37.5000 Du        
   1361 ****         8.0000  12.5000  37.7500 Du        
   1362 ****         8.0000  12.5000  38.0000 Du        
   1363 ****         8.0000  12.5000  41.5000 Du        
   1364 ****         8.0000  12.5000  41.7500 Du        
   1365 ****         8.0000  12.5000  42.0000 Du        
   1366 ****         8.0000  12.5000  42.2500 Du        
   1367 ****         8.0000  12.5000  42.5000 Du        
   1368 ****         8.0000  12.5000  42.7500 Du        
   1369 ****         8.0000  12.5000  43.0000 Du        
   1370 ****         8.0000  12.7500  37.5000 Du        
   1371 ****         8.0000  12.7500  37.7500 Du        
   1372 ****         8.0000  12.7500  38.0000 Du        
   1373 ****         8.0000  12.7500  38.2500 Du        
   1374 ****         8.0000  12.7500  41.5000 Du        
   1375 ****         8.0000  12.7500  41.7500 Du        
   1376 ****         8.0000  12.7500  42.0000 Du        
   1377 ****         8.0000  12.7500  42.2500 Du        
   1378 ****         8.0000  12.7500  42.5000 Du        
   1379 ****         8.0000  13.0000  37.5000 Du        
   1380 ****         8.0000  13.0000  37.7500 Du        
   1381 ****         8.0000  13.0000  38.0000 Du        
   1382 ****         8.0000  13.0000  38.2500 Du        
   1383 ****         8.0000  13.0000  38.5000 Du        
   1384 ****         8.0000  13.0000  41.5000 Du        
   1385 ****         8.0000  13.0000  41.7500 Du        
   1386 ****         8.0000  13.0000  42.0000 Du        
   1387 ****         8.0000  13.0000  42.2500 Du        
   1388 ****         8.0000  13.2500  37.5000 Du        
   1389 ****         8.0000  13.2500  37.7500 Du        
   1390 ****         8.0000  13.2500  38.0000 Du        
   1391 ****         8.0000  13.2500  38.2500 Du        
   1392 ****         8.0000  13.2500  38.5000 Du        
   1393 ****         8.0000  13.2500  41.7500 Du        
   1394 ****         8.0000  13.2500  42.0000 Du        
   1395 ****         8.0000  13.5000  37.5000 Du        
   1396 ****         8.0000  13.5000  37.7500 Du        
   1397 ****         8.0000  13.5000  38.0000 Du        
   1398 ****         8.0000  13.5000  38.2500 Du        
   1399 ****         8.0000  13.5000  38.5000 Du        
   1400 ****         8.0000  13.5000  38.7500 Du        
   1401 ****         8.0000  13.7500  37.5000 Du        
   1402 ****         8.0000  13.7500  37.7500 Du        
   1403 ****         8.0000  13.7500  38.0000 Du        
   1404 ****         8.0000  13.7500  38.2500 Du        
   1405 ****         8.0000  13.7500  38.5000 Du        
   1406 ****         8.0000  13.7500  38.7500 Du        
   1407 ****         8.0000  14.0000  37.5000 Du        
   1408 ****         8.0000  14.0000  37.7500 Du        
   1409 ****         8.0000  14.0000  38.0000 Du        
   1410 ****         8.0000  14.0000  38.2500 Du        
   1411 ****         8.0000  14.0000  38.5000 Du        
   1412 ****         8.0000  14.0000  38.7500 Du        
   1413 ****         8.0000  14.0000  39.0000 Du        
   1414 ****         8.0000  14.2500  37.5000 Du        
   1415 ****         8.0000  14.2500  37.7500 Du        
   1416 ****         8.0000  14.2500  38.0000 Du        
   1417 ****         8.0000  14.2500  38.2500 Du        
   1418 ****         8.0000  14.2500  38.5000 Du        
   1419 ****         8.0000  14.2500  38.7500 Du        
   1420 ****         8.0000  14.2500  39.0000 Du        
   1421 ****         8.0000  14.2500  39.2500 Du        
   1422 ****         8.0000  14.2500  41.2500 Du        
   1423 ****         8.0000  14.5000  37.7500 Du        
   1424 ****         8.0000  14.5000  38.0000 Du        
   1425 ****         8.0000  14.5000  38.2500 Du        
   1426 ****         8.0000  14.5000  38.5000 Du        
   1427 ****         8.0000  14.5000  38.7500 Du        
   1428 ****         8.0000  14.5000  39.0000 Du        
   1429 ****         8.0000  14.5000  39.2500 Du        
   1430 ****         8.0000  14.5000  41.0000 Du        
   1431 ****         8.0000  14.5000  41.2500 Du        
   1432 ****         8.0000  14.7500  37.7500 Du        
   1433 ****         8.0000  14.7500  38.0000 Du        
   1434 ****         8.0000  14.7500  38.2500 Du        
   1435 ****         8.0000  14.7500  38.5000 Du        
   1436 ****         8.0000  14.7500  38.7500 Du        
   1437 ****         8.0000  14.7500  39.0000 Du        
   1438 ****         8.0000  14.7500  39.2500 Du        
   1439 ****         8.0000  14.7500  39.5000 Du        
   1440 ****         8.0000  14.7500  39.7500 Du        
   1441 ****         8.0000  14.7500  40.0000 Du        
   1442 ****         8.0000  14.7500  40.2500 Du        
   1443 ****         8.0000  14.7500  40.5000 Du        
   1444 ****         8.0000  14.7500  40.7500 Du        
   1445 ****         8.0000  14.7500  41.0000 Du        
   1446 ****         8.0000  14.7500  41.2500 Du        
   1447 ****         8.0000  15.0000  38.0000 Du        
   1448 ****         8.0000  15.0000  38.2500 Du        
   1449 ****         8.0000  15.0000  38.5000 Du        
   1450 ****         8.0000  15.0000  38.7500 Du        
   1451 ****         8.0000  15.0000  39.0000 Du        
   1452 ****         8.0000  15.0000  39.2500 Du        
   1453 ****         8.0000  15.0000  39.5000 Du        
   1454 ****         8.0000  15.0000  39.7500 Du        
   1455 ****         8.0000  15.0000  40.0000 Du        
   1456 ****         8.0000  15.0000  40.2500 Du        
   1457 ****         8.0000  15.0000  40.5000 Du        
   1458 ****         8.0000  15.0000  40.7500 Du        
   1459 ****         8.0000  15.0000  41.0000 Du        
   1460 ****         8.0000  15.0000  41.2500 Du        
   1461 ****         8.0000  15.2500  38.0000 Du        
   1462 ****         8.0000  15.2500  38.2500 Du        
   1463 ****         8.0000  15.2500  38.5000 Du        
   1464 ****         8.0000  15.2500  38.7500 Du        
   1465 ****         8.0000  15.2500  39.0000 Du        
   1466 ****         8.0000  15.2500  39.2500 Du        
   1467 ****         8.0000  15.2500  39.5000 Du        
   1468 ****         8.0000  15.2500  39.7500 Du        
   1469 ****         8.0000  15.2500  40.0000 Du        
   1470 ****         8.0000  15.2500  40.2500 Du        
   1471 ****         8.0000  15.2500  40.5000 Du        
   1472 ****         8.0000  15.2500  40.7500 Du        
   1473 ****         8.0000  15.2500  41.0000 Du        
   1474 ****         8.0000  15.2500  41.2500 Du        
   1475 ****         8.0000  15.2500  41.5000 Du        
   1476 ****         8.0000  15.5000  38.2500 Du        
   1477 ****         8.0000  15.5000  38.5000 Du        
   1478 ****         8.0000  15.5000  38.7500 Du        
   1479 ****         8.0000  15.5000  39.0000 Du        
   1480 ****         8.0000  15.5000  39.2500 Du        
   1481 ****         8.0000  15.5000  39.5000 Du        
   1482 ****         8.0000  15.5000  39.7500 Du        
   1483 ****         8.0000  15.5000  40.0000 Du        
   1484 ****         8.0000  15.5000  40.2500 Du        
   1485 ****         8.0000  15.5000  40.5000 Du        
   1486 ****         8.0000  15.5000  40.7500 Du        
   1487 ****         8.0000  15.5000  41.0000 Du        
   1488 ****         8.0000  15.5000  41.2500 Du        
   1489 ****         8.0000  15.5000  41.5000 Du        
   1490 ****         8.0000  15.7500  38.2500 Du        
   1491 ****         8.0000  15.7500  38.5000 Du        
   1492 ****         8.0000  15.7500  38.7500 Du        
   1493 ****         8.0000  15.7500  39.0000 Du        
   1494 ****         8.0000  15.7500  39.2500 Du        
   1495 ****         8.0000  15.7500  39.5000 Du        
   1496 ****         8.0000  15.7500  39.7500 Du        
   1497 ****         8.0000  15.7500  40.0000 Du        
   1498 ****         8.0000  15.7500  40.2500 Du        
   1499 ****         8.0000  15.7500  40.5000 Du        
   1500 ****         8.0000  15.7500  40.7500 Du        
   1501 ****         8.0000  15.7500  41.0000 Du        
   1502 ****         8.0000  15.7500  41.2500 Du        
   1503 ****         8.0000  15.7500  41.5000 Du        
   1504 ****         8.0000  16.0000  38.2500 Du        
   1505 ****         8.0000  16.0000  38.5000 Du        
   1506 ****         8.0000  16.0000  38.7500 Du        
   1507 ****         8.0000  16.0000  39.0000 Du        
   1508 ****         8.0000  16.0000  39.2500 Du        
   1509 ****         8.0000  16.0000  39.5000 Du        
   1510 ****         8.0000  16.0000  39.7500 Du        
   1511 ****         8.0000  16.0000  40.0000 Du        
   1512 ****         8.0000  16.0000  40.2500 Du        
   1513 ****         8.0000  16.0000  40.5000 Du        
   1514 ****         8.0000  16.0000  40.7500 Du        
   1515 ****         8.0000  16.0000  41.0000 Du        
   1516 ****         8.0000  16.0000  41.2500 Du        
   1517 ****         8.0000  16.0000  41.5000 Du        
   1518 ****         8.0000  16.0000  41.7500 Du        
   1519 ****         8.0000  16.2500  38.5000 Du        
   1520 ****         8.0000  16.2500  38.7500 Du        
   1521 ****         8.0000  16.2500  39.0000 Du        
   1522 ****         8.0000  16.2500  39.2500 Du        
   1523 ****         8.0000  16.2500  39.5000 Du        
   1524 ****         8.0000  16.2500  39.7500 Du        
   1525 ****         8.0000  16.2500  40.0000 Du        
   1526 ****         8.0000  16.2500  40.2500 Du        
   1527 ****         8.0000  16.2500  40.5000 Du        
   1528 ****         8.0000  16.2500  40.7500 Du        
   1529 ****         8.0000  16.2500  41.0000 Du        
   1530 ****         8.0000  16.2500  41.2500 Du        
   1531 ****         8.0000  16.2500  41.5000 Du        
   1532 ****         8.0000  16.2500  41.7500 Du        
   1533 ****         8.0000  16.5000  38.5000 Du        
   1534 ****         8.0000  16.5000  38.7500 Du        
   1535 ****         8.0000  16.5000  39.0000 Du        
   1536 ****         8.0000  16.5000  39.2500 Du        
   1537 ****         8.0000  16.5000  39.5000 Du        
   1538 ****         8.0000  16.5000  39.7500 Du        
   1539 ****         8.0000  16.5000  40.0000 Du        
   1540 ****         8.0000  16.5000  40.2500 Du        
   1541 ****         8.0000  16.5000  40.5000 Du        
   1542 ****         8.0000  16.5000  40.7500 Du        
   1543 ****         8.0000  16.5000  41.0000 Du        
   1544 ****         8.0000  16.5000  41.2500 Du        
   1545 ****         8.0000  16.5000  41.5000 Du        
   1546 ****         8.0000  16.5000  41.7500 Du        
   1547 ****         8.0000  16.7500  38.5000 Du        
   1548 ****         8.0000  16.7500  38.7500 Du        
   1549 ****         8.0000  16.7500  39.0000 Du        
   1550 ****         8.0000  16.7500  39.2500 Du        
   1551 ****         8.0000  16.7500  39.5000 Du        
   1552 ****         8.0000  16.7500  39.7500 Du        
   1553 ****         8.0000  16.7500  40.0000 Du        
   1554 ****         8.0000  16.7500  40.2500 Du        
   1555 ****         8.0000  16.7500  40.5000 Du        
   1556 ****         8.0000  16.7500  40.7500 Du        
   1557 ****         8.0000  16.7500  41.0000 Du        
   1558 ****         8.0000  16.7500  41.2500 Du        
   1559 ****         8.0000  16.7500  41.5000 Du        
   1560 ****         8.0000  16.7500  41.7500 Du        
   1561 ****         8.0000  16.7500  42.0000 Du        
   1562 ****         8.0000  17.0000  38.7500 Du        
   1563 ****         8.0000  17.0000  39.0000 Du        
   1564 ****         8.0000  17.0000  39.2500 Du        
   1565 ****         8.0000  17.0000  39.5000 Du        
   1566 ****         8.0000  17.0000  39.7500 Du        
   1567 ****         8.0000  17.0000  40.5000 Du        
   1568 ****         8.0000  17.0000  40.7500 Du        
   1569 ****         8.0000  17.0000  41.0000 Du        
   1570 ****         8.0000  17.0000  41.2500 Du        
   1571 ****         8.0000  17.0000  41.5000 Du        
   1572 ****         8.0000  17.0000  41.7500 Du        
   1573 ****         8.0000  17.0000  42.0000 Du        
   1574 ****         8.0000  17.2500  38.7500 Du        
   1575 ****         8.0000  17.2500  39.0000 Du        
   1576 ****         8.0000  17.2500  39.2500 Du        
   1577 ****         8.0000  17.2500  41.2500 Du        
   1578 ****         8.0000  17.2500  41.5000 Du        
   1579 ****         8.0000  17.2500  41.7500 Du        
   1580 ****         8.0000  17.2500  42.0000 Du        
   1581 ****         8.0000  17.5000  38.7500 Du        
   1582 ****         8.0000  17.5000  39.0000 Du        
   1583 ****         8.0000  17.7500  38.7500 Du        
   1584 ****         8.0000  17.7500  39.0000 Du        
   1585 ****         8.0000  18.0000  38.5000 Du        
   1586 ****         8.0000  18.0000  38.7500 Du        
   1587 ****         8.0000  18.0000  39.0000 Du        
   1588 ****         8.0000  18.2500  38.5000 Du        
   1589 ****         8.0000  18.2500  38.7500 Du        
   1590 ****         8.0000  18.2500  39.0000 Du        
   1591 ****         8.0000  18.7500  38.2500 Du        
   1592 ****         8.0000  18.7500  38.5000 Du        
   1593 ****         8.0000  18.7500  38.7500 Du        
   1594 ****         8.0000  19.0000  38.0000 Du        
   1595 ****         8.0000  19.0000  38.2500 Du        
   1596 ****         8.0000  19.0000  38.5000 Du        
   1597 ****         8.0000  19.0000  38.7500 Du        
   1598 ****         8.0000  19.0000  39.0000 Du        
   1599 ****         8.0000  19.2500  38.0000 Du        
   1600 ****         8.0000  19.2500  38.2500 Du        
   1601 ****         8.0000  19.2500  38.5000 Du        
   1602 ****         8.0000  19.2500  38.7500 Du        
   1603 ****         8.0000  19.5000  38.0000 Du        
   1604 ****         8.0000  19.5000  38.2500 Du        
   1605 ****         8.0000  19.5000  38.5000 Du        
   1606 ****         8.0000  19.5000  38.7500 Du        
   1607 ****         8.0000  19.5000  39.0000 Du        
   1608 ****         8.0000  19.7500  38.7500 Du        
   1609 ****         8.0000  19.7500  39.0000 Du        
   1610 ****         8.2500 -10.0000  21.5000 Du        
   1611 ****         8.2500 -10.0000  21.7500 Du        
   1612 ****         8.2500 -10.0000  22.0000 Du        
   1613 ****         8.2500  -9.7500  21.2500 Du        
   1614 ****         8.2500  -9.7500  21.5000 Du        
   1615 ****         8.2500  -9.7500  21.7500 Du        
   1616 ****         8.2500  -9.7500  22.0000 Du        
   1617 ****         8.2500  -9.7500  22.2500 Du        
   1618 ****         8.2500  -9.5000  21.5000 Du        
   1619 ****         8.2500  -9.5000  21.7500 Du        
   1620 ****         8.2500  -9.5000  22.0000 Du        
   1621 ****         8.2500  -9.2500  21.5000 Du        
   1622 ****         8.2500  -9.2500  21.7500 Du        
   1623 ****         8.2500  -9.2500  22.0000 Du        
   1624 ****         8.2500  -9.2500  22.2500 Du        
   1625 ****         8.2500  -9.0000  21.7500 Du        
   1626 ****         8.2500  -9.0000  22.0000 Du        
   1627 ****         8.2500  -8.7500  34.2500 Du        
   1628 ****         8.2500  -8.7500  34.5000 Du        
   1629 ****         8.2500  -8.7500  34.7500 Du        
   1630 ****         8.2500  -8.7500  35.0000 Du        
   1631 ****         8.2500  -8.5000  34.2500 Du        
   1632 ****         8.2500  -8.5000  34.5000 Du        
   1633 ****         8.2500  -8.5000  34.7500 Du        
   1634 ****         8.2500  -8.5000  35.0000 Du        
   1635 ****         8.2500  -8.2500  34.0000 Du        
   1636 ****         8.2500  -8.2500  34.2500 Du        
   1637 ****         8.2500  -8.2500  34.5000 Du        
   1638 ****         8.2500  -8.2500  34.7500 Du        
   1639 ****         8.2500  -8.2500  35.0000 Du        
   1640 ****         8.2500  -8.2500  35.2500 Du        
   1641 ****         8.2500  -8.0000  34.0000 Du        
   1642 ****         8.2500  -8.0000  34.2500 Du        
   1643 ****         8.2500  -8.0000  34.5000 Du        
   1644 ****         8.2500  -8.0000  34.7500 Du        
   1645 ****         8.2500  -8.0000  35.0000 Du        
   1646 ****         8.2500  -7.7500  34.0000 Du        
   1647 ****         8.2500  -7.7500  34.2500 Du        
   1648 ****         8.2500  -7.7500  34.5000 Du        
   1649 ****         8.2500  -7.7500  34.7500 Du        
   1650 ****         8.2500  -7.7500  35.0000 Du        
   1651 ****         8.2500  -7.5000  34.0000 Du        
   1652 ****         8.2500  -7.5000  34.2500 Du        
   1653 ****         8.2500  -7.5000  34.5000 Du        
   1654 ****         8.2500  -7.5000  34.7500 Du        
   1655 ****         8.2500  -7.5000  35.0000 Du        
   1656 ****         8.2500  -7.2500  25.0000 Du        
   1657 ****         8.2500  -7.2500  25.2500 Du        
   1658 ****         8.2500  -7.2500  25.5000 Du        
   1659 ****         8.2500  -7.2500  25.7500 Du        
   1660 ****         8.2500  -7.2500  33.7500 Du        
   1661 ****         8.2500  -7.2500  34.0000 Du        
   1662 ****         8.2500  -7.2500  34.2500 Du        
   1663 ****         8.2500  -7.2500  34.5000 Du        
   1664 ****         8.2500  -7.2500  34.7500 Du        
   1665 ****         8.2500  -7.2500  35.0000 Du        
   1666 ****         8.2500  -7.0000  25.0000 Du        
   1667 ****         8.2500  -7.0000  25.2500 Du        
   1668 ****         8.2500  -7.0000  25.5000 Du        
   1669 ****         8.2500  -7.0000  25.7500 Du        
   1670 ****         8.2500  -7.0000  26.0000 Du        
   1671 ****         8.2500  -7.0000  33.7500 Du        
   1672 ****         8.2500  -7.0000  34.0000 Du        
   1673 ****         8.2500  -7.0000  34.2500 Du        
   1674 ****         8.2500  -7.0000  34.5000 Du        
   1675 ****         8.2500  -7.0000  34.7500 Du        
   1676 ****         8.2500  -7.0000  35.0000 Du        
   1677 ****         8.2500  -6.7500  25.0000 Du        
   1678 ****         8.2500  -6.7500  25.2500 Du        
   1679 ****         8.2500  -6.7500  25.5000 Du        
   1680 ****         8.2500  -6.7500  25.7500 Du        
   1681 ****         8.2500  -6.7500  26.0000 Du        
   1682 ****         8.2500  -6.7500  26.2500 Du        
   1683 ****         8.2500  -6.7500  33.7500 Du        
   1684 ****         8.2500  -6.7500  34.0000 Du        
   1685 ****         8.2500  -6.7500  34.2500 Du        
   1686 ****         8.2500  -6.7500  34.5000 Du        
   1687 ****         8.2500  -6.7500  34.7500 Du        
   1688 ****         8.2500  -6.7500  35.0000 Du        
   1689 ****         8.2500  -6.5000  26.0000 Du        
   1690 ****         8.2500  -6.5000  34.0000 Du        
   1691 ****         8.2500  -6.5000  34.2500 Du        
   1692 ****         8.2500  -6.5000  34.5000 Du        
   1693 ****         8.2500  -6.5000  34.7500 Du        
   1694 ****         8.2500   4.2500  24.5000 Du        
   1695 ****         8.2500   4.5000  24.5000 Du        
   1696 ****         8.2500   4.5000  24.7500 Du        
   1697 ****         8.2500   4.7500  24.5000 Du        
   1698 ****         8.2500   4.7500  24.7500 Du        
   1699 ****         8.2500   5.0000  24.5000 Du        
   1700 ****         8.2500   5.0000  24.7500 Du        
   1701 ****         8.2500   5.2500  24.2500 Du        
   1702 ****         8.2500   5.2500  24.5000 Du        
   1703 ****         8.2500   5.2500  24.7500 Du        
   1704 ****         8.2500   5.5000  24.2500 Du        
   1705 ****         8.2500   5.5000  24.5000 Du        
   1706 ****         8.2500   5.7500  24.2500 Du        
   1707 ****         8.2500   5.7500  24.5000 Du        
   1708 ****         8.2500   6.0000  24.0000 Du        
   1709 ****         8.2500   6.0000  24.2500 Du        
   1710 ****         8.2500   6.0000  24.5000 Du        
   1711 ****         8.2500   6.2500  24.2500 Du        
   1712 ****         8.2500   6.2500  24.5000 Du        
   1713 ****         8.2500   9.2500  35.2500 Du        
   1714 ****         8.2500   9.2500  35.5000 Du        
   1715 ****         8.2500   9.2500  35.7500 Du        
   1716 ****         8.2500   9.2500  36.0000 Du        
   1717 ****         8.2500   9.2500  36.2500 Du        
   1718 ****         8.2500   9.5000  35.0000 Du        
   1719 ****         8.2500   9.5000  35.2500 Du        
   1720 ****         8.2500   9.5000  35.5000 Du        
   1721 ****         8.2500   9.5000  35.7500 Du        
   1722 ****         8.2500   9.5000  36.0000 Du        
   1723 ****         8.2500   9.5000  36.2500 Du        
   1724 ****         8.2500   9.5000  36.5000 Du        
   1725 ****         8.2500   9.7500  35.0000 Du        
   1726 ****         8.2500   9.7500  35.2500 Du        
   1727 ****         8.2500   9.7500  35.5000 Du        
   1728 ****         8.2500   9.7500  35.7500 Du        
   1729 ****         8.2500   9.7500  36.0000 Du        
   1730 ****         8.2500   9.7500  36.2500 Du        
   1731 ****         8.2500   9.7500  36.5000 Du        
   1732 ****         8.2500   9.7500  36.7500 Du        
   1733 ****         8.2500  10.0000  35.2500 Du        
   1734 ****         8.2500  10.0000  35.5000 Du        
   1735 ****         8.2500  10.0000  35.7500 Du        
   1736 ****         8.2500  10.0000  36.0000 Du        
   1737 ****         8.2500  10.0000  36.2500 Du        
   1738 ****         8.2500  10.0000  36.5000 Du        
   1739 ****         8.2500  10.0000  36.7500 Du        
   1740 ****         8.2500  10.0000  37.0000 Du        
   1741 ****         8.2500  10.2500  35.7500 Du        
   1742 ****         8.2500  10.2500  36.0000 Du        
   1743 ****         8.2500  10.2500  36.2500 Du        
   1744 ****         8.2500  10.2500  36.5000 Du        
   1745 ****         8.2500  10.2500  36.7500 Du        
   1746 ****         8.2500  10.2500  37.0000 Du        
   1747 ****         8.2500  10.5000  36.0000 Du        
   1748 ****         8.2500  10.5000  36.2500 Du        
   1749 ****         8.2500  10.5000  36.5000 Du        
   1750 ****         8.2500  10.5000  36.7500 Du        
   1751 ****         8.2500  10.5000  37.0000 Du        
   1752 ****         8.2500  10.7500  36.2500 Du        
   1753 ****         8.2500  10.7500  36.5000 Du        
   1754 ****         8.2500  10.7500  36.7500 Du        
   1755 ****         8.2500  10.7500  37.0000 Du        
   1756 ****         8.2500  10.7500  37.2500 Du        
   1757 ****         8.2500  11.0000  36.7500 Du        
   1758 ****         8.2500  11.0000  37.0000 Du        
   1759 ****         8.2500  11.0000  37.2500 Du        
   1760 ****         8.2500  11.2500  37.0000 Du        
   1761 ****         8.2500  11.2500  37.2500 Du        
   1762 ****         8.2500  11.7500  43.0000 Du        
   1763 ****         8.2500  12.0000  42.2500 Du        
   1764 ****         8.2500  12.0000  42.5000 Du        
   1765 ****         8.2500  12.0000  42.7500 Du        
   1766 ****         8.2500  12.0000  43.0000 Du        
   1767 ****         8.2500  12.0000  43.2500 Du        
   1768 ****         8.2500  12.2500  41.7500 Du        
   1769 ****         8.2500  12.2500  42.0000 Du        
   1770 ****         8.2500  12.2500  42.2500 Du        
   1771 ****         8.2500  12.2500  42.5000 Du        
   1772 ****         8.2500  12.2500  42.7500 Du        
   1773 ****         8.2500  12.2500  43.0000 Du        
   1774 ****         8.2500  12.2500  43.2500 Du        
   1775 ****         8.2500  12.5000  41.7500 Du        
   1776 ****         8.2500  12.5000  42.0000 Du        
   1777 ****         8.2500  12.5000  42.2500 Du        
   1778 ****         8.2500  12.5000  42.5000 Du        
   1779 ****         8.2500  12.5000  42.7500 Du        
   1780 ****         8.2500  12.7500  42.0000 Du        
   1781 ****         8.2500  12.7500  42.2500 Du        
   1782 ****         8.2500  13.2500  37.7500 Du        
   1783 ****         8.2500  13.2500  38.0000 Du        
   1784 ****         8.2500  13.5000  37.7500 Du        
   1785 ****         8.2500  13.5000  38.0000 Du        
   1786 ****         8.2500  13.7500  37.7500 Du        
   1787 ****         8.2500  13.7500  38.0000 Du        
   1788 ****         8.2500  13.7500  38.2500 Du        
   1789 ****         8.2500  13.7500  38.5000 Du        
   1790 ****         8.2500  14.0000  37.7500 Du        
   1791 ****         8.2500  14.0000  38.0000 Du        
   1792 ****         8.2500  14.0000  38.2500 Du        
   1793 ****         8.2500  14.0000  38.5000 Du        
   1794 ****         8.2500  14.2500  37.7500 Du        
   1795 ****         8.2500  14.2500  38.0000 Du        
   1796 ****         8.2500  14.2500  38.2500 Du        
   1797 ****         8.2500  14.2500  38.5000 Du        
   1798 ****         8.2500  14.2500  38.7500 Du        
   1799 ****         8.2500  14.5000  37.7500 Du        
   1800 ****         8.2500  14.5000  38.0000 Du        
   1801 ****         8.2500  14.5000  38.2500 Du        
   1802 ****         8.2500  14.5000  38.5000 Du        
   1803 ****         8.2500  14.5000  38.7500 Du        
   1804 ****         8.2500  14.5000  39.0000 Du        
   1805 ****         8.2500  14.7500  37.7500 Du        
   1806 ****         8.2500  14.7500  38.0000 Du        
   1807 ****         8.2500  14.7500  38.2500 Du        
   1808 ****         8.2500  14.7500  38.5000 Du        
   1809 ****         8.2500  14.7500  38.7500 Du        
   1810 ****         8.2500  14.7500  39.0000 Du        
   1811 ****         8.2500  14.7500  39.2500 Du        
   1812 ****         8.2500  15.0000  37.7500 Du        
   1813 ****         8.2500  15.0000  38.0000 Du        
   1814 ****         8.2500  15.0000  38.2500 Du        
   1815 ****         8.2500  15.0000  38.5000 Du        
   1816 ****         8.2500  15.0000  38.7500 Du        
   1817 ****         8.2500  15.0000  39.0000 Du        
   1818 ****         8.2500  15.0000  39.2500 Du        
   1819 ****         8.2500  15.0000  39.5000 Du        
   1820 ****         8.2500  15.0000  39.7500 Du        
   1821 ****         8.2500  15.0000  40.0000 Du        
   1822 ****         8.2500  15.0000  40.7500 Du        
   1823 ****         8.2500  15.0000  41.0000 Du        
   1824 ****         8.2500  15.0000  41.2500 Du        
   1825 ****         8.2500  15.2500  38.0000 Du        
   1826 ****         8.2500  15.2500  38.2500 Du        
   1827 ****         8.2500  15.2500  38.5000 Du        
   1828 ****         8.2500  15.2500  38.7500 Du        
   1829 ****         8.2500  15.2500  39.0000 Du        
   1830 ****         8.2500  15.2500  39.2500 Du        
   1831 ****         8.2500  15.2500  39.5000 Du        
   1832 ****         8.2500  15.2500  39.7500 Du        
   1833 ****         8.2500  15.2500  40.0000 Du        
   1834 ****         8.2500  15.2500  40.2500 Du        
   1835 ****         8.2500  15.2500  40.5000 Du        
   1836 ****         8.2500  15.2500  40.7500 Du        
   1837 ****         8.2500  15.2500  41.0000 Du        
   1838 ****         8.2500  15.2500  41.2500 Du        
   1839 ****         8.2500  15.5000  38.0000 Du        
   1840 ****         8.2500  15.5000  38.2500 Du        
   1841 ****         8.2500  15.5000  38.5000 Du        
   1842 ****         8.2500  15.5000  38.7500 Du        
   1843 ****         8.2500  15.5000  39.0000 Du        
   1844 ****         8.2500  15.5000  39.2500 Du        
   1845 ****         8.2500  15.5000  39.5000 Du        
   1846 ****         8.2500  15.5000  39.7500 Du        
   1847 ****         8.2500  15.5000  40.0000 Du        
   1848 ****         8.2500  15.5000  40.2500 Du        
   1849 ****         8.2500  15.5000  40.5000 Du        
   1850 ****         8.2500  15.5000  40.7500 Du        
   1851 ****         8.2500  15.5000  41.0000 Du        
   1852 ****         8.2500  15.5000  41.2500 Du        
   1853 ****         8.2500  15.7500  38.0000 Du        
   1854 ****         8.2500  15.7500  38.2500 Du        
   1855 ****         8.2500  15.7500  38.5000 Du        
   1856 ****         8.2500  15.7500  38.7500 Du        
   1857 ****         8.2500  15.7500  39.0000 Du        
   1858 ****         8.2500  15.7500  39.2500 Du        
   1859 ****         8.2500  15.7500  39.5000 Du        
   1860 ****         8.2500  15.7500  39.7500 Du        
   1861 ****         8.2500  15.7500  40.0000 Du        
   1862 ****         8.2500  15.7500  40.2500 Du        
   1863 ****         8.2500  15.7500  40.5000 Du        
   1864 ****         8.2500  15.7500  40.7500 Du        
   1865 ****         8.2500  15.7500  41.0000 Du        
   1866 ****         8.2500  15.7500  41.2500 Du        
   1867 ****         8.2500  15.7500  41.5000 Du        
   1868 ****         8.2500  16.0000  38.0000 Du        
   1869 ****         8.2500  16.0000  38.2500 Du        
   1870 ****         8.2500  16.0000  38.5000 Du        
   1871 ****         8.2500  16.0000  38.7500 Du        
   1872 ****         8.2500  16.0000  39.0000 Du        
   1873 ****         8.2500  16.0000  39.2500 Du        
   1874 ****         8.2500  16.0000  39.5000 Du        
   1875 ****         8.2500  16.0000  39.7500 Du        
   1876 ****         8.2500  16.0000  40.0000 Du        
   1877 ****         8.2500  16.0000  40.2500 Du        
   1878 ****         8.2500  16.0000  40.5000 Du        
   1879 ****         8.2500  16.0000  40.7500 Du        
   1880 ****         8.2500  16.0000  41.0000 Du        
   1881 ****         8.2500  16.0000  41.2500 Du        
   1882 ****         8.2500  16.0000  41.5000 Du        
   1883 ****         8.2500  16.2500  38.2500 Du        
   1884 ****         8.2500  16.2500  38.5000 Du        
   1885 ****         8.2500  16.2500  38.7500 Du        
   1886 ****         8.2500  16.2500  39.0000 Du        
   1887 ****         8.2500  16.2500  39.2500 Du        
   1888 ****         8.2500  16.2500  39.5000 Du        
   1889 ****         8.2500  16.2500  39.7500 Du        
   1890 ****         8.2500  16.2500  40.0000 Du        
   1891 ****         8.2500  16.2500  40.2500 Du        
   1892 ****         8.2500  16.2500  40.5000 Du        
   1893 ****         8.2500  16.2500  40.7500 Du        
   1894 ****         8.2500  16.2500  41.0000 Du        
   1895 ****         8.2500  16.2500  41.2500 Du        
   1896 ****         8.2500  16.2500  41.5000 Du        
   1897 ****         8.2500  16.2500  41.7500 Du        
   1898 ****         8.2500  16.5000  38.2500 Du        
   1899 ****         8.2500  16.5000  38.5000 Du        
   1900 ****         8.2500  16.5000  38.7500 Du        
   1901 ****         8.2500  16.5000  39.0000 Du        
   1902 ****         8.2500  16.5000  39.2500 Du        
   1903 ****         8.2500  16.5000  39.5000 Du        
   1904 ****         8.2500  16.5000  39.7500 Du        
   1905 ****         8.2500  16.5000  40.0000 Du        
   1906 ****         8.2500  16.5000  40.2500 Du        
   1907 ****         8.2500  16.5000  40.5000 Du        
   1908 ****         8.2500  16.5000  40.7500 Du        
   1909 ****         8.2500  16.5000  41.0000 Du        
   1910 ****         8.2500  16.5000  41.2500 Du        
   1911 ****         8.2500  16.5000  41.5000 Du        
   1912 ****         8.2500  16.5000  41.7500 Du        
   1913 ****         8.2500  16.7500  38.2500 Du        
   1914 ****         8.2500  16.7500  38.5000 Du        
   1915 ****         8.2500  16.7500  38.7500 Du        
   1916 ****         8.2500  16.7500  39.0000 Du        
   1917 ****         8.2500  16.7500  39.2500 Du        
   1918 ****         8.2500  16.7500  39.5000 Du        
   1919 ****         8.2500  16.7500  39.7500 Du        
   1920 ****         8.2500  16.7500  40.0000 Du        
   1921 ****         8.2500  16.7500  40.2500 Du        
   1922 ****         8.2500  16.7500  40.5000 Du        
   1923 ****         8.2500  16.7500  40.7500 Du        
   1924 ****         8.2500  16.7500  41.0000 Du        
   1925 ****         8.2500  16.7500  41.2500 Du        
   1926 ****         8.2500  16.7500  41.5000 Du        
   1927 ****         8.2500  16.7500  41.7500 Du        
   1928 ****         8.2500  17.0000  38.2500 Du        
   1929 ****         8.2500  17.0000  38.5000 Du        
   1930 ****         8.2500  17.0000  38.7500 Du        
   1931 ****         8.2500  17.0000  39.0000 Du        
   1932 ****         8.2500  17.0000  39.2500 Du        
   1933 ****         8.2500  17.0000  39.5000 Du        
   1934 ****         8.2500  17.0000  39.7500 Du        
   1935 ****         8.2500  17.0000  40.0000 Du        
   1936 ****         8.2500  17.0000  40.5000 Du        
   1937 ****         8.2500  17.0000  40.7500 Du        
   1938 ****         8.2500  17.0000  41.0000 Du        
   1939 ****         8.2500  17.0000  41.2500 Du        
   1940 ****         8.2500  17.0000  41.5000 Du        
   1941 ****         8.2500  17.0000  41.7500 Du        
   1942 ****         8.2500  17.0000  42.0000 Du        
   1943 ****         8.2500  17.2500  38.2500 Du        
   1944 ****         8.2500  17.2500  38.5000 Du        
   1945 ****         8.2500  17.2500  38.7500 Du        
   1946 ****         8.2500  17.2500  39.0000 Du        
   1947 ****         8.2500  17.2500  39.2500 Du        
   1948 ****         8.2500  17.2500  40.7500 Du        
   1949 ****         8.2500  17.2500  41.0000 Du        
   1950 ****         8.2500  17.2500  41.2500 Du        
   1951 ****         8.2500  17.2500  41.5000 Du        
   1952 ****         8.2500  17.2500  41.7500 Du        
   1953 ****         8.2500  17.2500  42.0000 Du        
   1954 ****         8.2500  17.5000  38.2500 Du        
   1955 ****         8.2500  17.5000  38.5000 Du        
   1956 ****         8.2500  17.5000  38.7500 Du        
   1957 ****         8.2500  17.5000  39.0000 Du        
   1958 ****         8.2500  17.7500  38.2500 Du        
   1959 ****         8.2500  17.7500  38.5000 Du        
   1960 ****         8.2500  17.7500  38.7500 Du        
   1961 ****         8.2500  17.7500  39.0000 Du        
   1962 ****         8.2500  17.7500  39.2500 Du        
   1963 ****         8.2500  18.0000  38.0000 Du        
   1964 ****         8.2500  18.0000  38.2500 Du        
   1965 ****         8.2500  18.0000  38.5000 Du        
   1966 ****         8.2500  18.0000  38.7500 Du        
   1967 ****         8.2500  18.0000  39.0000 Du        
   1968 ****         8.2500  18.2500  38.0000 Du        
   1969 ****         8.2500  18.2500  38.2500 Du        
   1970 ****         8.2500  18.2500  38.5000 Du        
   1971 ****         8.2500  18.2500  38.7500 Du        
   1972 ****         8.2500  18.2500  39.0000 Du        
   1973 ****         8.2500  18.5000  38.0000 Du        
   1974 ****         8.2500  18.5000  38.2500 Du        
   1975 ****         8.2500  18.5000  38.5000 Du        
   1976 ****         8.2500  18.5000  38.7500 Du        
   1977 ****         8.2500  18.5000  39.0000 Du        
   1978 ****         8.2500  18.7500  37.7500 Du        
   1979 ****         8.2500  18.7500  38.0000 Du        
   1980 ****         8.2500  18.7500  38.2500 Du        
   1981 ****         8.2500  18.7500  38.5000 Du        
   1982 ****         8.2500  18.7500  38.7500 Du        
   1983 ****         8.2500  18.7500  39.0000 Du        
   1984 ****         8.2500  19.0000  37.7500 Du        
   1985 ****         8.2500  19.0000  38.0000 Du        
   1986 ****         8.2500  19.0000  38.2500 Du        
   1987 ****         8.2500  19.0000  38.5000 Du        
   1988 ****         8.2500  19.0000  38.7500 Du        
   1989 ****         8.2500  19.0000  39.0000 Du        
   1990 ****         8.2500  19.2500  37.7500 Du        
   1991 ****         8.2500  19.2500  38.0000 Du        
   1992 ****         8.2500  19.2500  38.2500 Du        
   1993 ****         8.2500  19.2500  38.5000 Du        
   1994 ****         8.2500  19.2500  38.7500 Du        
   1995 ****         8.2500  19.2500  39.0000 Du        
   1996 ****         8.2500  19.5000  38.0000 Du        
   1997 ****         8.2500  19.5000  38.2500 Du        
   1998 ****         8.2500  19.5000  38.5000 Du        
   1999 ****         8.2500  19.5000  38.7500 Du        
   2000 ****         8.2500  19.5000  39.0000 Du        
   2001 ****         8.2500  19.7500  38.2500 Du        
   2002 ****         8.2500  19.7500  38.5000 Du        
   2003 ****         8.2500  19.7500  38.7500 Du        
   2004 ****         8.2500  19.7500  39.0000 Du        
   2005 ****         8.5000 -10.0000  21.5000 Du        
   2006 ****         8.5000 -10.0000  21.7500 Du        
   2007 ****         8.5000 -10.0000  22.0000 Du        
   2008 ****         8.5000  -9.7500  21.2500 Du        
   2009 ****         8.5000  -9.7500  21.5000 Du        
   2010 ****         8.5000  -9.7500  21.7500 Du        
   2011 ****         8.5000  -9.7500  22.0000 Du        
   2012 ****         8.5000  -9.7500  22.2500 Du        
   2013 ****         8.5000  -9.5000  21.2500 Du        
   2014 ****         8.5000  -9.5000  21.5000 Du        
   2015 ****         8.5000  -9.5000  21.7500 Du        
   2016 ****         8.5000  -9.5000  22.0000 Du        
   2017 ****         8.5000  -9.5000  22.2500 Du        
   2018 ****         8.5000  -9.2500  21.2500 Du        
   2019 ****         8.5000  -9.2500  21.5000 Du        
   2020 ****         8.5000  -9.2500  21.7500 Du        
   2021 ****         8.5000  -9.2500  22.0000 Du        
   2022 ****         8.5000  -9.2500  22.2500 Du        
   2023 ****         8.5000  -9.0000  21.5000 Du        
   2024 ****         8.5000  -9.0000  21.7500 Du        
   2025 ****         8.5000  -9.0000  22.0000 Du        
   2026 ****         8.5000  -9.0000  22.2500 Du        
   2027 ****         8.5000  -8.7500  34.2500 Du        
   2028 ****         8.5000  -8.7500  34.5000 Du        
   2029 ****         8.5000  -8.7500  34.7500 Du        
   2030 ****         8.5000  -8.7500  35.0000 Du        
   2031 ****         8.5000  -8.5000  34.2500 Du        
   2032 ****         8.5000  -8.5000  34.5000 Du        
   2033 ****         8.5000  -8.5000  34.7500 Du        
   2034 ****         8.5000  -8.5000  35.0000 Du        
   2035 ****         8.5000  -8.5000  35.2500 Du        
   2036 ****         8.5000  -8.2500  34.0000 Du        
   2037 ****         8.5000  -8.2500  34.2500 Du        
   2038 ****         8.5000  -8.2500  34.5000 Du        
   2039 ****         8.5000  -8.2500  34.7500 Du        
   2040 ****         8.5000  -8.2500  35.0000 Du        
   2041 ****         8.5000  -8.2500  35.2500 Du        
   2042 ****         8.5000  -8.0000  34.0000 Du        
   2043 ****         8.5000  -8.0000  34.2500 Du        
   2044 ****         8.5000  -8.0000  34.5000 Du        
   2045 ****         8.5000  -8.0000  34.7500 Du        
   2046 ****         8.5000  -8.0000  35.0000 Du        
   2047 ****         8.5000  -8.0000  35.2500 Du        
   2048 ****         8.5000  -7.7500  34.0000 Du        
   2049 ****         8.5000  -7.7500  34.2500 Du        
   2050 ****         8.5000  -7.7500  34.5000 Du        
   2051 ****         8.5000  -7.7500  34.7500 Du        
   2052 ****         8.5000  -7.7500  35.0000 Du        
   2053 ****         8.5000  -7.7500  35.2500 Du        
   2054 ****         8.5000  -7.5000  34.0000 Du        
   2055 ****         8.5000  -7.5000  34.2500 Du        
   2056 ****         8.5000  -7.5000  34.5000 Du        
   2057 ****         8.5000  -7.5000  34.7500 Du        
   2058 ****         8.5000  -7.5000  35.0000 Du        
   2059 ****         8.5000  -7.5000  35.2500 Du        
   2060 ****         8.5000  -7.2500  25.0000 Du        
   2061 ****         8.5000  -7.2500  25.2500 Du        
   2062 ****         8.5000  -7.2500  25.5000 Du        
   2063 ****         8.5000  -7.2500  25.7500 Du        
   2064 ****         8.5000  -7.2500  34.0000 Du        
   2065 ****         8.5000  -7.2500  34.2500 Du        
   2066 ****         8.5000  -7.2500  34.5000 Du        
   2067 ****         8.5000  -7.2500  34.7500 Du        
   2068 ****         8.5000  -7.2500  35.0000 Du        
   2069 ****         8.5000  -7.2500  35.2500 Du        
   2070 ****         8.5000  -7.0000  25.0000 Du        
   2071 ****         8.5000  -7.0000  25.2500 Du        
   2072 ****         8.5000  -7.0000  25.5000 Du        
   2073 ****         8.5000  -7.0000  25.7500 Du        
   2074 ****         8.5000  -7.0000  26.0000 Du        
   2075 ****         8.5000  -7.0000  33.7500 Du        
   2076 ****         8.5000  -7.0000  34.0000 Du        
   2077 ****         8.5000  -7.0000  34.2500 Du        
   2078 ****         8.5000  -7.0000  34.5000 Du        
   2079 ****         8.5000  -7.0000  34.7500 Du        
   2080 ****         8.5000  -7.0000  35.0000 Du        
   2081 ****         8.5000  -6.7500  25.2500 Du        
   2082 ****         8.5000  -6.7500  25.7500 Du        
   2083 ****         8.5000  -6.7500  26.0000 Du        
   2084 ****         8.5000  -6.7500  33.7500 Du        
   2085 ****         8.5000  -6.7500  34.0000 Du        
   2086 ****         8.5000  -6.7500  34.2500 Du        
   2087 ****         8.5000  -6.7500  34.5000 Du        
   2088 ****         8.5000  -6.7500  34.7500 Du        
   2089 ****         8.5000  -6.7500  35.0000 Du        
   2090 ****         8.5000  -6.5000  34.2500 Du        
   2091 ****         8.5000  -6.5000  34.5000 Du        
   2092 ****         8.5000  -6.5000  34.7500 Du        
   2093 ****         8.5000   4.2500  24.5000 Du        
   2094 ****         8.5000   4.2500  24.7500 Du        
   2095 ****         8.5000   4.5000  24.2500 Du        
   2096 ****         8.5000   4.5000  24.5000 Du        
   2097 ****         8.5000   4.5000  24.7500 Du        
   2098 ****         8.5000   4.7500  24.0000 Du        
   2099 ****         8.5000   4.7500  24.2500 Du        
   2100 ****         8.5000   4.7500  24.5000 Du        
   2101 ****         8.5000   4.7500  24.7500 Du        
   2102 ****         8.5000   5.0000  24.0000 Du        
   2103 ****         8.5000   5.0000  24.2500 Du        
   2104 ****         8.5000   5.0000  24.5000 Du        
   2105 ****         8.5000   5.0000  24.7500 Du        
   2106 ****         8.5000   5.2500  24.2500 Du        
   2107 ****         8.5000   5.2500  24.5000 Du        
   2108 ****         8.5000   5.2500  24.7500 Du        
   2109 ****         8.5000   5.5000  24.0000 Du        
   2110 ****         8.5000   5.5000  24.2500 Du        
   2111 ****         8.5000   5.5000  24.5000 Du        
   2112 ****         8.5000   5.5000  24.7500 Du        
   2113 ****         8.5000   5.7500  24.0000 Du        
   2114 ****         8.5000   5.7500  24.2500 Du        
   2115 ****         8.5000   5.7500  24.5000 Du        
   2116 ****         8.5000   5.7500  24.7500 Du        
   2117 ****         8.5000   6.0000  24.0000 Du        
   2118 ****         8.5000   6.0000  24.2500 Du        
   2119 ****         8.5000   6.0000  24.5000 Du        
   2120 ****         8.5000   6.0000  24.7500 Du        
   2121 ****         8.5000   6.2500  24.2500 Du        
   2122 ****         8.5000   6.2500  24.5000 Du        
   2123 ****         8.5000   9.2500  35.5000 Du        
   2124 ****         8.5000   9.2500  35.7500 Du        
   2125 ****         8.5000   9.2500  36.0000 Du        
   2126 ****         8.5000   9.2500  36.2500 Du        
   2127 ****         8.5000   9.2500  36.5000 Du        
   2128 ****         8.5000   9.5000  35.2500 Du        
   2129 ****         8.5000   9.5000  35.5000 Du        
   2130 ****         8.5000   9.5000  35.7500 Du        
   2131 ****         8.5000   9.5000  36.0000 Du        
   2132 ****         8.5000   9.5000  36.2500 Du        
   2133 ****         8.5000   9.5000  36.5000 Du        
   2134 ****         8.5000   9.5000  36.7500 Du        
   2135 ****         8.5000   9.7500  35.2500 Du        
   2136 ****         8.5000   9.7500  35.5000 Du        
   2137 ****         8.5000   9.7500  35.7500 Du        
   2138 ****         8.5000   9.7500  36.0000 Du        
   2139 ****         8.5000   9.7500  36.2500 Du        
   2140 ****         8.5000   9.7500  36.5000 Du        
   2141 ****         8.5000   9.7500  36.7500 Du        
   2142 ****         8.5000  10.0000  35.2500 Du        
   2143 ****         8.5000  10.0000  35.5000 Du        
   2144 ****         8.5000  10.0000  35.7500 Du        
   2145 ****         8.5000  10.0000  36.0000 Du        
   2146 ****         8.5000  10.0000  36.2500 Du        
   2147 ****         8.5000  10.0000  36.5000 Du        
   2148 ****         8.5000  10.0000  36.7500 Du        
   2149 ****         8.5000  10.2500  35.5000 Du        
   2150 ****         8.5000  10.2500  35.7500 Du        
   2151 ****         8.5000  10.2500  36.0000 Du        
   2152 ****         8.5000  10.2500  36.2500 Du        
   2153 ****         8.5000  10.2500  36.5000 Du        
   2154 ****         8.5000  10.2500  36.7500 Du        
   2155 ****         8.5000  10.2500  37.0000 Du        
   2156 ****         8.5000  10.5000  36.0000 Du        
   2157 ****         8.5000  10.5000  36.2500 Du        
   2158 ****         8.5000  10.5000  36.5000 Du        
   2159 ****         8.5000  10.5000  36.7500 Du        
   2160 ****         8.5000  10.5000  37.0000 Du        
   2161 ****         8.5000  10.7500  36.2500 Du        
   2162 ****         8.5000  10.7500  36.5000 Du        
   2163 ****         8.5000  10.7500  36.7500 Du        
   2164 ****         8.5000  10.7500  37.0000 Du        
   2165 ****         8.5000  11.0000  36.7500 Du        
   2166 ****         8.5000  12.0000  42.5000 Du        
   2167 ****         8.5000  12.0000  42.7500 Du        
   2168 ****         8.5000  12.0000  43.0000 Du        
   2169 ****         8.5000  12.2500  42.2500 Du        
   2170 ****         8.5000  12.2500  42.5000 Du        
   2171 ****         8.5000  12.2500  42.7500 Du        
   2172 ****         8.5000  12.2500  43.0000 Du        
   2173 ****         8.5000  12.5000  42.2500 Du        
   2174 ****         8.5000  12.5000  42.5000 Du        
   2175 ****         8.5000  14.2500  37.7500 Du        
   2176 ****         8.5000  14.2500  38.0000 Du        
   2177 ****         8.5000  14.2500  38.2500 Du        
   2178 ****         8.5000  14.5000  37.7500 Du        
   2179 ****         8.5000  14.5000  38.0000 Du        
   2180 ****         8.5000  14.5000  38.2500 Du        
   2181 ****         8.5000  14.5000  38.5000 Du        
   2182 ****         8.5000  14.7500  37.7500 Du        
   2183 ****         8.5000  14.7500  38.0000 Du        
   2184 ****         8.5000  14.7500  38.2500 Du        
   2185 ****         8.5000  14.7500  38.5000 Du        
   2186 ****         8.5000  14.7500  38.7500 Du        
   2187 ****         8.5000  15.0000  37.7500 Du        
   2188 ****         8.5000  15.0000  38.0000 Du        
   2189 ****         8.5000  15.0000  38.2500 Du        
   2190 ****         8.5000  15.0000  38.5000 Du        
   2191 ****         8.5000  15.0000  38.7500 Du        
   2192 ****         8.5000  15.0000  39.0000 Du        
   2193 ****         8.5000  15.0000  39.2500 Du        
   2194 ****         8.5000  15.2500  37.7500 Du        
   2195 ****         8.5000  15.2500  38.0000 Du        
   2196 ****         8.5000  15.2500  38.2500 Du        
   2197 ****         8.5000  15.2500  38.5000 Du        
   2198 ****         8.5000  15.2500  38.7500 Du        
   2199 ****         8.5000  15.2500  39.0000 Du        
   2200 ****         8.5000  15.2500  39.2500 Du        
   2201 ****         8.5000  15.2500  39.5000 Du        
   2202 ****         8.5000  15.5000  37.7500 Du        
   2203 ****         8.5000  15.5000  38.0000 Du        
   2204 ****         8.5000  15.5000  38.2500 Du        
   2205 ****         8.5000  15.5000  38.5000 Du        
   2206 ****         8.5000  15.5000  38.7500 Du        
   2207 ****         8.5000  15.5000  39.0000 Du        
   2208 ****         8.5000  15.5000  39.2500 Du        
   2209 ****         8.5000  15.5000  39.5000 Du        
   2210 ****         8.5000  15.5000  39.7500 Du        
   2211 ****         8.5000  15.5000  40.0000 Du        
   2212 ****         8.5000  15.5000  40.2500 Du        
   2213 ****         8.5000  15.5000  40.5000 Du        
   2214 ****         8.5000  15.5000  40.7500 Du        
   2215 ****         8.5000  15.5000  41.0000 Du        
   2216 ****         8.5000  15.7500  37.7500 Du        
   2217 ****         8.5000  15.7500  38.0000 Du        
   2218 ****         8.5000  15.7500  38.2500 Du        
   2219 ****         8.5000  15.7500  38.5000 Du        
   2220 ****         8.5000  15.7500  38.7500 Du        
   2221 ****         8.5000  15.7500  39.0000 Du        
   2222 ****         8.5000  15.7500  39.2500 Du        
   2223 ****         8.5000  15.7500  39.5000 Du        
   2224 ****         8.5000  15.7500  39.7500 Du        
   2225 ****         8.5000  15.7500  40.0000 Du        
   2226 ****         8.5000  15.7500  40.2500 Du        
   2227 ****         8.5000  15.7500  40.5000 Du        
   2228 ****         8.5000  15.7500  40.7500 Du        
   2229 ****         8.5000  15.7500  41.0000 Du        
   2230 ****         8.5000  15.7500  41.2500 Du        
   2231 ****         8.5000  16.0000  37.7500 Du        
   2232 ****         8.5000  16.0000  38.0000 Du        
   2233 ****         8.5000  16.0000  38.2500 Du        
   2234 ****         8.5000  16.0000  38.5000 Du        
   2235 ****         8.5000  16.0000  38.7500 Du        
   2236 ****         8.5000  16.0000  39.0000 Du        
   2237 ****         8.5000  16.0000  39.2500 Du        
   2238 ****         8.5000  16.0000  39.5000 Du        
   2239 ****         8.5000  16.0000  39.7500 Du        
   2240 ****         8.5000  16.0000  40.0000 Du        
   2241 ****         8.5000  16.0000  40.2500 Du        
   2242 ****         8.5000  16.0000  40.5000 Du        
   2243 ****         8.5000  16.0000  40.7500 Du        
   2244 ****         8.5000  16.0000  41.0000 Du        
   2245 ****         8.5000  16.0000  41.2500 Du        
   2246 ****         8.5000  16.2500  37.7500 Du        
   2247 ****         8.5000  16.2500  38.0000 Du        
   2248 ****         8.5000  16.2500  38.2500 Du        
   2249 ****         8.5000  16.2500  38.5000 Du        
   2250 ****         8.5000  16.2500  38.7500 Du        
   2251 ****         8.5000  16.2500  39.0000 Du        
   2252 ****         8.5000  16.2500  39.2500 Du        
   2253 ****         8.5000  16.2500  39.5000 Du        
   2254 ****         8.5000  16.2500  39.7500 Du        
   2255 ****         8.5000  16.2500  40.0000 Du        
   2256 ****         8.5000  16.2500  40.2500 Du        
   2257 ****         8.5000  16.2500  40.5000 Du        
   2258 ****         8.5000  16.2500  40.7500 Du        
   2259 ****         8.5000  16.2500  41.0000 Du        
   2260 ****         8.5000  16.2500  41.2500 Du        
   2261 ****         8.5000  16.2500  41.5000 Du        
   2262 ****         8.5000  16.5000  38.0000 Du        
   2263 ****         8.5000  16.5000  38.2500 Du        
   2264 ****         8.5000  16.5000  38.5000 Du        
   2265 ****         8.5000  16.5000  38.7500 Du        
   2266 ****         8.5000  16.5000  39.0000 Du        
   2267 ****         8.5000  16.5000  39.2500 Du        
   2268 ****         8.5000  16.5000  39.5000 Du        
   2269 ****         8.5000  16.5000  39.7500 Du        
   2270 ****         8.5000  16.5000  40.0000 Du        
   2271 ****         8.5000  16.5000  40.2500 Du        
   2272 ****         8.5000  16.5000  40.5000 Du        
   2273 ****         8.5000  16.5000  40.7500 Du        
   2274 ****         8.5000  16.5000  41.0000 Du        
   2275 ****         8.5000  16.5000  41.2500 Du        
   2276 ****         8.5000  16.5000  41.5000 Du        
   2277 ****         8.5000  16.7500  38.0000 Du        
   2278 ****         8.5000  16.7500  38.2500 Du        
   2279 ****         8.5000  16.7500  38.5000 Du        
   2280 ****         8.5000  16.7500  38.7500 Du        
   2281 ****         8.5000  16.7500  39.0000 Du        
   2282 ****         8.5000  16.7500  39.2500 Du        
   2283 ****         8.5000  16.7500  39.5000 Du        
   2284 ****         8.5000  16.7500  39.7500 Du        
   2285 ****         8.5000  16.7500  40.0000 Du        
   2286 ****         8.5000  16.7500  40.2500 Du        
   2287 ****         8.5000  16.7500  40.5000 Du        
   2288 ****         8.5000  16.7500  40.7500 Du        
   2289 ****         8.5000  16.7500  41.0000 Du        
   2290 ****         8.5000  16.7500  41.2500 Du        
   2291 ****         8.5000  16.7500  41.5000 Du        
   2292 ****         8.5000  16.7500  41.7500 Du        
   2293 ****         8.5000  17.0000  38.0000 Du        
   2294 ****         8.5000  17.0000  38.2500 Du        
   2295 ****         8.5000  17.0000  38.5000 Du        
   2296 ****         8.5000  17.0000  38.7500 Du        
   2297 ****         8.5000  17.0000  39.0000 Du        
   2298 ****         8.5000  17.0000  39.2500 Du        
   2299 ****         8.5000  17.0000  40.7500 Du        
   2300 ****         8.5000  17.0000  41.0000 Du        
   2301 ****         8.5000  17.0000  41.2500 Du        
   2302 ****         8.5000  17.0000  41.5000 Du        
   2303 ****         8.5000  17.2500  38.0000 Du        
   2304 ****         8.5000  17.2500  38.2500 Du        
   2305 ****         8.5000  17.2500  38.5000 Du        
   2306 ****         8.5000  17.2500  38.7500 Du        
   2307 ****         8.5000  17.2500  39.0000 Du        
   2308 ****         8.5000  17.2500  39.2500 Du        
   2309 ****         8.5000  17.5000  38.0000 Du        
   2310 ****         8.5000  17.5000  38.2500 Du        
   2311 ****         8.5000  17.5000  38.5000 Du        
   2312 ****         8.5000  17.5000  38.7500 Du        
   2313 ****         8.5000  17.5000  39.0000 Du        
   2314 ****         8.5000  17.5000  39.2500 Du        
   2315 ****         8.5000  17.7500  37.7500 Du        
   2316 ****         8.5000  17.7500  38.0000 Du        
   2317 ****         8.5000  17.7500  38.2500 Du        
   2318 ****         8.5000  17.7500  38.5000 Du        
   2319 ****         8.5000  17.7500  38.7500 Du        
   2320 ****         8.5000  17.7500  39.0000 Du        
   2321 ****         8.5000  17.7500  39.2500 Du        
   2322 ****         8.5000  18.0000  37.7500 Du        
   2323 ****         8.5000  18.0000  38.0000 Du        
   2324 ****         8.5000  18.0000  38.2500 Du        
   2325 ****         8.5000  18.0000  38.5000 Du        
   2326 ****         8.5000  18.0000  38.7500 Du        
   2327 ****         8.5000  18.0000  39.0000 Du        
   2328 ****         8.5000  18.0000  39.2500 Du        
   2329 ****         8.5000  18.2500  37.7500 Du        
   2330 ****         8.5000  18.2500  38.0000 Du        
   2331 ****         8.5000  18.2500  38.2500 Du        
   2332 ****         8.5000  18.2500  38.5000 Du        
   2333 ****         8.5000  18.2500  38.7500 Du        
   2334 ****         8.5000  18.2500  39.0000 Du        
   2335 ****         8.5000  18.2500  39.2500 Du        
   2336 ****         8.5000  18.5000  37.5000 Du        
   2337 ****         8.5000  18.5000  37.7500 Du        
   2338 ****         8.5000  18.5000  38.0000 Du        
   2339 ****         8.5000  18.5000  38.2500 Du        
   2340 ****         8.5000  18.5000  38.5000 Du        
   2341 ****         8.5000  18.5000  38.7500 Du        
   2342 ****         8.5000  18.5000  39.0000 Du        
   2343 ****         8.5000  18.7500  37.5000 Du        
   2344 ****         8.5000  18.7500  37.7500 Du        
   2345 ****         8.5000  18.7500  38.0000 Du        
   2346 ****         8.5000  18.7500  38.2500 Du        
   2347 ****         8.5000  18.7500  38.5000 Du        
   2348 ****         8.5000  18.7500  38.7500 Du        
   2349 ****         8.5000  18.7500  39.0000 Du        
   2350 ****         8.5000  19.0000  37.5000 Du        
   2351 ****         8.5000  19.0000  37.7500 Du        
   2352 ****         8.5000  19.0000  38.0000 Du        
   2353 ****         8.5000  19.0000  38.2500 Du        
   2354 ****         8.5000  19.0000  38.5000 Du        
   2355 ****         8.5000  19.0000  38.7500 Du        
   2356 ****         8.5000  19.0000  39.0000 Du        
   2357 ****         8.5000  19.2500  37.7500 Du        
   2358 ****         8.5000  19.2500  38.0000 Du        
   2359 ****         8.5000  19.2500  38.2500 Du        
   2360 ****         8.5000  19.2500  38.5000 Du        
   2361 ****         8.5000  19.2500  38.7500 Du        
   2362 ****         8.5000  19.2500  39.0000 Du        
   2363 ****         8.5000  19.5000  38.0000 Du        
   2364 ****         8.5000  19.5000  38.2500 Du        
   2365 ****         8.5000  19.5000  38.5000 Du        
   2366 ****         8.7500 -10.0000  21.5000 Du        
   2367 ****         8.7500 -10.0000  21.7500 Du        
   2368 ****         8.7500 -10.0000  22.0000 Du        
   2369 ****         8.7500  -9.7500  21.2500 Du        
   2370 ****         8.7500  -9.7500  21.5000 Du        
   2371 ****         8.7500  -9.7500  21.7500 Du        
   2372 ****         8.7500  -9.7500  22.0000 Du        
   2373 ****         8.7500  -9.7500  22.2500 Du        
   2374 ****         8.7500  -9.5000  21.2500 Du        
   2375 ****         8.7500  -9.5000  21.5000 Du        
   2376 ****         8.7500  -9.5000  21.7500 Du        
   2377 ****         8.7500  -9.5000  22.0000 Du        
   2378 ****         8.7500  -9.5000  22.2500 Du        
   2379 ****         8.7500  -9.5000  22.5000 Du        
   2380 ****         8.7500  -9.2500  21.2500 Du        
   2381 ****         8.7500  -9.2500  21.5000 Du        
   2382 ****         8.7500  -9.2500  21.7500 Du        
   2383 ****         8.7500  -9.2500  22.0000 Du        
   2384 ****         8.7500  -9.2500  22.2500 Du        
   2385 ****         8.7500  -9.2500  22.5000 Du        
   2386 ****         8.7500  -9.0000  21.2500 Du        
   2387 ****         8.7500  -9.0000  21.5000 Du        
   2388 ****         8.7500  -9.0000  21.7500 Du        
   2389 ****         8.7500  -9.0000  22.0000 Du        
   2390 ****         8.7500  -9.0000  22.2500 Du        
   2391 ****         8.7500  -9.0000  22.5000 Du        
   2392 ****         8.7500  -9.0000  22.7500 Du        
   2393 ****         8.7500  -8.7500  21.5000 Du        
   2394 ****         8.7500  -8.7500  21.7500 Du        
   2395 ****         8.7500  -8.7500  22.0000 Du        
   2396 ****         8.7500  -8.7500  22.2500 Du        
   2397 ****         8.7500  -8.7500  22.5000 Du        
   2398 ****         8.7500  -8.7500  22.7500 Du        
   2399 ****         8.7500  -8.7500  34.2500 Du        
   2400 ****         8.7500  -8.7500  34.5000 Du        
   2401 ****         8.7500  -8.7500  34.7500 Du        
   2402 ****         8.7500  -8.7500  35.0000 Du        
   2403 ****         8.7500  -8.5000  34.2500 Du        
   2404 ****         8.7500  -8.5000  34.5000 Du        
   2405 ****         8.7500  -8.5000  34.7500 Du        
   2406 ****         8.7500  -8.5000  35.0000 Du        
   2407 ****         8.7500  -8.5000  35.2500 Du        
   2408 ****         8.7500  -8.2500  34.0000 Du        
   2409 ****         8.7500  -8.2500  34.2500 Du        
   2410 ****         8.7500  -8.2500  34.5000 Du        
   2411 ****         8.7500  -8.2500  34.7500 Du        
   2412 ****         8.7500  -8.2500  35.0000 Du        
   2413 ****         8.7500  -8.2500  35.2500 Du        
   2414 ****         8.7500  -8.0000  34.0000 Du        
   2415 ****         8.7500  -8.0000  34.2500 Du        
   2416 ****         8.7500  -8.0000  34.5000 Du        
   2417 ****         8.7500  -8.0000  34.7500 Du        
   2418 ****         8.7500  -8.0000  35.0000 Du        
   2419 ****         8.7500  -8.0000  35.2500 Du        
   2420 ****         8.7500  -7.7500  34.0000 Du        
   2421 ****         8.7500  -7.7500  34.2500 Du        
   2422 ****         8.7500  -7.7500  34.5000 Du        
   2423 ****         8.7500  -7.7500  34.7500 Du        
   2424 ****         8.7500  -7.7500  35.0000 Du        
   2425 ****         8.7500  -7.7500  35.2500 Du        
   2426 ****         8.7500  -7.5000  34.0000 Du        
   2427 ****         8.7500  -7.5000  34.2500 Du        
   2428 ****         8.7500  -7.5000  34.5000 Du        
   2429 ****         8.7500  -7.5000  34.7500 Du        
   2430 ****         8.7500  -7.5000  35.0000 Du        
   2431 ****         8.7500  -7.5000  35.2500 Du        
   2432 ****         8.7500  -7.2500  25.0000 Du        
   2433 ****         8.7500  -7.2500  25.2500 Du        
   2434 ****         8.7500  -7.2500  25.5000 Du        
   2435 ****         8.7500  -7.2500  25.7500 Du        
   2436 ****         8.7500  -7.2500  33.7500 Du        
   2437 ****         8.7500  -7.2500  34.0000 Du        
   2438 ****         8.7500  -7.2500  34.2500 Du        
   2439 ****         8.7500  -7.2500  34.5000 Du        
   2440 ****         8.7500  -7.2500  34.7500 Du        
   2441 ****         8.7500  -7.2500  35.0000 Du        
   2442 ****         8.7500  -7.2500  35.2500 Du        
   2443 ****         8.7500  -7.0000  25.2500 Du        
   2444 ****         8.7500  -7.0000  25.5000 Du        
   2445 ****         8.7500  -7.0000  25.7500 Du        
   2446 ****         8.7500  -7.0000  26.0000 Du        
   2447 ****         8.7500  -7.0000  33.7500 Du        
   2448 ****         8.7500  -7.0000  34.0000 Du        
   2449 ****         8.7500  -7.0000  34.2500 Du        
   2450 ****         8.7500  -7.0000  34.5000 Du        
   2451 ****         8.7500  -7.0000  34.7500 Du        
   2452 ****         8.7500  -7.0000  35.0000 Du        
   2453 ****         8.7500  -7.0000  35.2500 Du        
   2454 ****         8.7500  -6.7500  33.7500 Du        
   2455 ****         8.7500  -6.7500  34.0000 Du        
   2456 ****         8.7500  -6.7500  34.2500 Du        
   2457 ****         8.7500  -6.7500  34.5000 Du        
   2458 ****         8.7500  -6.7500  34.7500 Du        
   2459 ****         8.7500  -6.7500  35.0000 Du        
   2460 ****         8.7500  -6.5000  34.2500 Du        
   2461 ****         8.7500  -6.5000  34.5000 Du        
   2462 ****         8.7500   4.0000  24.5000 Du        
   2463 ****         8.7500   4.2500  24.5000 Du        
   2464 ****         8.7500   4.2500  24.7500 Du        
   2465 ****         8.7500   4.5000  24.2500 Du        
   2466 ****         8.7500   4.5000  24.5000 Du        
   2467 ****         8.7500   4.5000  24.7500 Du        
   2468 ****         8.7500   4.7500  24.0000 Du        
   2469 ****         8.7500   4.7500  24.2500 Du        
   2470 ****         8.7500   4.7500  24.5000 Du        
   2471 ****         8.7500   4.7500  24.7500 Du        
   2472 ****         8.7500   5.0000  24.0000 Du        
   2473 ****         8.7500   5.0000  24.2500 Du        
   2474 ****         8.7500   5.0000  24.5000 Du        
   2475 ****         8.7500   5.0000  24.7500 Du        
   2476 ****         8.7500   5.2500  24.0000 Du        
   2477 ****         8.7500   5.2500  24.2500 Du        
   2478 ****         8.7500   5.2500  24.5000 Du        
   2479 ****         8.7500   5.2500  24.7500 Du        
   2480 ****         8.7500   5.5000  23.7500 Du        
   2481 ****         8.7500   5.5000  24.0000 Du        
   2482 ****         8.7500   5.5000  24.2500 Du        
   2483 ****         8.7500   5.5000  24.5000 Du        
   2484 ****         8.7500   5.5000  24.7500 Du        
   2485 ****         8.7500   5.7500  23.7500 Du        
   2486 ****         8.7500   5.7500  24.0000 Du        
   2487 ****         8.7500   5.7500  24.2500 Du        
   2488 ****         8.7500   5.7500  24.5000 Du        
   2489 ****         8.7500   5.7500  24.7500 Du        
   2490 ****         8.7500   6.0000  24.0000 Du        
   2491 ****         8.7500   6.0000  24.2500 Du        
   2492 ****         8.7500   6.0000  24.5000 Du        
   2493 ****         8.7500   6.0000  24.7500 Du        
   2494 ****         8.7500   6.2500  24.2500 Du        
   2495 ****         8.7500   6.2500  24.5000 Du        
   2496 ****         8.7500   9.0000  36.0000 Du        
   2497 ****         8.7500   9.0000  36.2500 Du        
   2498 ****         8.7500   9.2500  35.7500 Du        
   2499 ****         8.7500   9.2500  36.0000 Du        
   2500 ****         8.7500   9.2500  36.2500 Du        
   2501 ****         8.7500   9.2500  36.5000 Du        
   2502 ****         8.7500   9.5000  35.5000 Du        
   2503 ****         8.7500   9.5000  35.7500 Du        
   2504 ****         8.7500   9.5000  36.0000 Du        
   2505 ****         8.7500   9.5000  36.2500 Du        
   2506 ****         8.7500   9.5000  36.5000 Du        
   2507 ****         8.7500   9.5000  36.7500 Du        
   2508 ****         8.7500   9.7500  35.2500 Du        
   2509 ****         8.7500   9.7500  35.5000 Du        
   2510 ****         8.7500   9.7500  35.7500 Du        
   2511 ****         8.7500   9.7500  36.0000 Du        
   2512 ****         8.7500   9.7500  36.2500 Du        
   2513 ****         8.7500   9.7500  36.5000 Du        
   2514 ****         8.7500   9.7500  36.7500 Du        
   2515 ****         8.7500  10.0000  35.2500 Du        
   2516 ****         8.7500  10.0000  35.5000 Du        
   2517 ****         8.7500  10.0000  35.7500 Du        
   2518 ****         8.7500  10.0000  36.0000 Du        
   2519 ****         8.7500  10.0000  36.2500 Du        
   2520 ****         8.7500  10.0000  36.5000 Du        
   2521 ****         8.7500  10.0000  36.7500 Du        
   2522 ****         8.7500  10.2500  35.5000 Du        
   2523 ****         8.7500  10.2500  35.7500 Du        
   2524 ****         8.7500  10.2500  36.0000 Du        
   2525 ****         8.7500  10.2500  36.2500 Du        
   2526 ****         8.7500  10.2500  36.5000 Du        
   2527 ****         8.7500  10.2500  36.7500 Du        
   2528 ****         8.7500  10.5000  35.7500 Du        
   2529 ****         8.7500  10.5000  36.0000 Du        
   2530 ****         8.7500  10.5000  36.2500 Du        
   2531 ****         8.7500  10.5000  36.5000 Du        
   2532 ****         8.7500  10.5000  36.7500 Du        
   2533 ****         8.7500  10.7500  36.2500 Du        
   2534 ****         8.7500  10.7500  36.5000 Du        
   2535 ****         8.7500  10.7500  36.7500 Du        
   2536 ****         8.7500  14.5000  37.7500 Du        
   2537 ****         8.7500  14.5000  38.0000 Du        
   2538 ****         8.7500  14.5000  38.2500 Du        
   2539 ****         8.7500  14.7500  37.7500 Du        
   2540 ****         8.7500  14.7500  38.0000 Du        
   2541 ****         8.7500  14.7500  38.2500 Du        
   2542 ****         8.7500  14.7500  38.5000 Du        
   2543 ****         8.7500  15.0000  37.7500 Du        
   2544 ****         8.7500  15.0000  38.0000 Du        
   2545 ****         8.7500  15.0000  38.2500 Du        
   2546 ****         8.7500  15.0000  38.5000 Du        
   2547 ****         8.7500  15.0000  38.7500 Du        
   2548 ****         8.7500  15.2500  37.7500 Du        
   2549 ****         8.7500  15.2500  38.0000 Du        
   2550 ****         8.7500  15.2500  38.2500 Du        
   2551 ****         8.7500  15.2500  38.5000 Du        
   2552 ****         8.7500  15.2500  38.7500 Du        
   2553 ****         8.7500  15.2500  39.0000 Du        
   2554 ****         8.7500  15.2500  39.2500 Du        
   2555 ****         8.7500  15.5000  37.5000 Du        
   2556 ****         8.7500  15.5000  37.7500 Du        
   2557 ****         8.7500  15.5000  38.0000 Du        
   2558 ****         8.7500  15.5000  38.2500 Du        
   2559 ****         8.7500  15.5000  38.5000 Du        
   2560 ****         8.7500  15.5000  38.7500 Du        
   2561 ****         8.7500  15.5000  39.0000 Du        
   2562 ****         8.7500  15.5000  39.2500 Du        
   2563 ****         8.7500  15.7500  37.5000 Du        
   2564 ****         8.7500  15.7500  37.7500 Du        
   2565 ****         8.7500  15.7500  38.0000 Du        
   2566 ****         8.7500  15.7500  38.2500 Du        
   2567 ****         8.7500  15.7500  38.5000 Du        
   2568 ****         8.7500  15.7500  38.7500 Du        
   2569 ****         8.7500  15.7500  39.0000 Du        
   2570 ****         8.7500  15.7500  39.2500 Du        
   2571 ****         8.7500  15.7500  39.5000 Du        
   2572 ****         8.7500  15.7500  39.7500 Du        
   2573 ****         8.7500  15.7500  40.0000 Du        
   2574 ****         8.7500  15.7500  40.2500 Du        
   2575 ****         8.7500  15.7500  40.5000 Du        
   2576 ****         8.7500  15.7500  40.7500 Du        
   2577 ****         8.7500  15.7500  41.0000 Du        
   2578 ****         8.7500  16.0000  37.5000 Du        
   2579 ****         8.7500  16.0000  37.7500 Du        
   2580 ****         8.7500  16.0000  38.0000 Du        
   2581 ****         8.7500  16.0000  38.2500 Du        
   2582 ****         8.7500  16.0000  38.5000 Du        
   2583 ****         8.7500  16.0000  38.7500 Du        
   2584 ****         8.7500  16.0000  39.0000 Du        
   2585 ****         8.7500  16.0000  39.2500 Du        
   2586 ****         8.7500  16.0000  39.5000 Du        
   2587 ****         8.7500  16.0000  39.7500 Du        
   2588 ****         8.7500  16.0000  40.0000 Du        
   2589 ****         8.7500  16.0000  40.2500 Du        
   2590 ****         8.7500  16.0000  40.5000 Du        
   2591 ****         8.7500  16.0000  40.7500 Du        
   2592 ****         8.7500  16.0000  41.0000 Du        
   2593 ****         8.7500  16.0000  41.2500 Du        
   2594 ****         8.7500  16.2500  37.7500 Du        
   2595 ****         8.7500  16.2500  38.0000 Du        
   2596 ****         8.7500  16.2500  38.2500 Du        
   2597 ****         8.7500  16.2500  38.5000 Du        
   2598 ****         8.7500  16.2500  38.7500 Du        
   2599 ****         8.7500  16.2500  39.0000 Du        
   2600 ****         8.7500  16.2500  39.2500 Du        
   2601 ****         8.7500  16.2500  39.5000 Du        
   2602 ****         8.7500  16.2500  39.7500 Du        
   2603 ****         8.7500  16.2500  40.0000 Du        
   2604 ****         8.7500  16.2500  40.2500 Du        
   2605 ****         8.7500  16.2500  40.5000 Du        
   2606 ****         8.7500  16.2500  40.7500 Du        
   2607 ****         8.7500  16.2500  41.0000 Du        
   2608 ****         8.7500  16.2500  41.2500 Du        
   2609 ****         8.7500  16.5000  37.7500 Du        
   2610 ****         8.7500  16.5000  38.0000 Du        
   2611 ****         8.7500  16.5000  38.2500 Du        
   2612 ****         8.7500  16.5000  38.5000 Du        
   2613 ****         8.7500  16.5000  38.7500 Du        
   2614 ****         8.7500  16.5000  39.0000 Du        
   2615 ****         8.7500  16.5000  39.2500 Du        
   2616 ****         8.7500  16.5000  39.5000 Du        
   2617 ****         8.7500  16.5000  39.7500 Du        
   2618 ****         8.7500  16.5000  40.0000 Du        
   2619 ****         8.7500  16.5000  40.2500 Du        
   2620 ****         8.7500  16.5000  40.5000 Du        
   2621 ****         8.7500  16.5000  40.7500 Du        
   2622 ****         8.7500  16.5000  41.0000 Du        
   2623 ****         8.7500  16.5000  41.2500 Du        
   2624 ****         8.7500  16.7500  37.7500 Du        
   2625 ****         8.7500  16.7500  38.0000 Du        
   2626 ****         8.7500  16.7500  38.2500 Du        
   2627 ****         8.7500  16.7500  38.5000 Du        
   2628 ****         8.7500  16.7500  38.7500 Du        
   2629 ****         8.7500  16.7500  39.0000 Du        
   2630 ****         8.7500  16.7500  39.2500 Du        
   2631 ****         8.7500  16.7500  39.5000 Du        
   2632 ****         8.7500  16.7500  39.7500 Du        
   2633 ****         8.7500  16.7500  40.0000 Du        
   2634 ****         8.7500  16.7500  40.2500 Du        
   2635 ****         8.7500  16.7500  40.5000 Du        
   2636 ****         8.7500  16.7500  40.7500 Du        
   2637 ****         8.7500  16.7500  41.0000 Du        
   2638 ****         8.7500  16.7500  41.2500 Du        
   2639 ****         8.7500  16.7500  41.5000 Du        
   2640 ****         8.7500  17.0000  37.7500 Du        
   2641 ****         8.7500  17.0000  38.0000 Du        
   2642 ****         8.7500  17.0000  38.2500 Du        
   2643 ****         8.7500  17.0000  38.5000 Du        
   2644 ****         8.7500  17.0000  38.7500 Du        
   2645 ****         8.7500  17.0000  39.0000 Du        
   2646 ****         8.7500  17.0000  39.2500 Du        
   2647 ****         8.7500  17.0000  40.0000 Du        
   2648 ****         8.7500  17.0000  40.5000 Du        
   2649 ****         8.7500  17.0000  40.7500 Du        
   2650 ****         8.7500  17.0000  41.0000 Du        
   2651 ****         8.7500  17.0000  41.2500 Du        
   2652 ****         8.7500  17.0000  41.5000 Du        
   2653 ****         8.7500  17.2500  37.7500 Du        
   2654 ****         8.7500  17.2500  38.0000 Du        
   2655 ****         8.7500  17.2500  38.2500 Du        
   2656 ****         8.7500  17.2500  38.5000 Du        
   2657 ****         8.7500  17.2500  38.7500 Du        
   2658 ****         8.7500  17.2500  39.0000 Du        
   2659 ****         8.7500  17.2500  39.2500 Du        
   2660 ****         8.7500  17.5000  37.7500 Du        
   2661 ****         8.7500  17.5000  38.0000 Du        
   2662 ****         8.7500  17.5000  38.2500 Du        
   2663 ****         8.7500  17.5000  38.5000 Du        
   2664 ****         8.7500  17.5000  38.7500 Du        
   2665 ****         8.7500  17.5000  39.0000 Du        
   2666 ****         8.7500  17.5000  39.2500 Du        
   2667 ****         8.7500  17.7500  37.7500 Du        
   2668 ****         8.7500  17.7500  38.0000 Du        
   2669 ****         8.7500  17.7500  38.2500 Du        
   2670 ****         8.7500  17.7500  38.5000 Du        
   2671 ****         8.7500  17.7500  38.7500 Du        
   2672 ****         8.7500  17.7500  39.0000 Du        
   2673 ****         8.7500  17.7500  39.2500 Du        
   2674 ****         8.7500  18.0000  37.5000 Du        
   2675 ****         8.7500  18.0000  37.7500 Du        
   2676 ****         8.7500  18.0000  38.0000 Du        
   2677 ****         8.7500  18.0000  38.2500 Du        
   2678 ****         8.7500  18.0000  38.5000 Du        
   2679 ****         8.7500  18.0000  38.7500 Du        
   2680 ****         8.7500  18.0000  39.0000 Du        
   2681 ****         8.7500  18.2500  37.5000 Du        
   2682 ****         8.7500  18.2500  37.7500 Du        
   2683 ****         8.7500  18.2500  38.0000 Du        
   2684 ****         8.7500  18.2500  38.2500 Du        
   2685 ****         8.7500  18.2500  38.5000 Du        
   2686 ****         8.7500  18.2500  38.7500 Du        
   2687 ****         8.7500  18.2500  39.0000 Du        
   2688 ****         8.7500  18.5000  37.5000 Du        
   2689 ****         8.7500  18.5000  37.7500 Du        
   2690 ****         8.7500  18.5000  38.0000 Du        
   2691 ****         8.7500  18.5000  38.2500 Du        
   2692 ****         8.7500  18.5000  38.5000 Du        
   2693 ****         8.7500  18.5000  38.7500 Du        
   2694 ****         8.7500  18.7500  37.2500 Du        
   2695 ****         8.7500  18.7500  37.5000 Du        
   2696 ****         8.7500  18.7500  37.7500 Du        
   2697 ****         8.7500  18.7500  38.0000 Du        
   2698 ****         8.7500  18.7500  38.2500 Du        
   2699 ****         8.7500  18.7500  38.5000 Du        
   2700 ****         8.7500  18.7500  38.7500 Du        
   2701 ****         8.7500  19.0000  37.5000 Du        
   2702 ****         8.7500  19.0000  37.7500 Du        
   2703 ****         8.7500  19.0000  38.0000 Du        
   2704 ****         8.7500  19.0000  38.2500 Du        
   2705 ****         8.7500  19.0000  38.5000 Du        
   2706 ****         8.7500  19.0000  38.7500 Du        
   2707 ****         8.7500  19.2500  37.7500 Du        
   2708 ****         8.7500  19.2500  38.0000 Du        
   2709 ****         8.7500  19.2500  38.2500 Du        
   2710 ****         8.7500  19.2500  38.5000 Du        
   2711 ****         8.7500  19.2500  38.7500 Du        
   2712 ****         8.7500  19.5000  38.0000 Du        
   2713 ****         8.7500  19.5000  38.2500 Du        
   2714 ****         9.0000 -10.0000  21.5000 Du        
   2715 ****         9.0000 -10.0000  21.7500 Du        
   2716 ****         9.0000 -10.0000  22.0000 Du        
   2717 ****         9.0000  -9.7500  21.2500 Du        
   2718 ****         9.0000  -9.7500  21.5000 Du        
   2719 ****         9.0000  -9.7500  21.7500 Du        
   2720 ****         9.0000  -9.7500  22.0000 Du        
   2721 ****         9.0000  -9.7500  22.2500 Du        
   2722 ****         9.0000  -9.5000  21.2500 Du        
   2723 ****         9.0000  -9.5000  21.5000 Du        
   2724 ****         9.0000  -9.5000  21.7500 Du        
   2725 ****         9.0000  -9.5000  22.0000 Du        
   2726 ****         9.0000  -9.5000  22.2500 Du        
   2727 ****         9.0000  -9.5000  22.5000 Du        
   2728 ****         9.0000  -9.2500  21.2500 Du        
   2729 ****         9.0000  -9.2500  21.5000 Du        
   2730 ****         9.0000  -9.2500  21.7500 Du        
   2731 ****         9.0000  -9.2500  22.0000 Du        
   2732 ****         9.0000  -9.2500  22.2500 Du        
   2733 ****         9.0000  -9.2500  22.5000 Du        
   2734 ****         9.0000  -9.2500  22.7500 Du        
   2735 ****         9.0000  -9.0000  21.2500 Du        
   2736 ****         9.0000  -9.0000  21.5000 Du        
   2737 ****         9.0000  -9.0000  21.7500 Du        
   2738 ****         9.0000  -9.0000  22.0000 Du        
   2739 ****         9.0000  -9.0000  22.2500 Du        
   2740 ****         9.0000  -9.0000  22.5000 Du        
   2741 ****         9.0000  -9.0000  22.7500 Du        
   2742 ****         9.0000  -9.0000  23.0000 Du        
   2743 ****         9.0000  -8.7500  21.2500 Du        
   2744 ****         9.0000  -8.7500  21.5000 Du        
   2745 ****         9.0000  -8.7500  21.7500 Du        
   2746 ****         9.0000  -8.7500  22.0000 Du        
   2747 ****         9.0000  -8.7500  22.2500 Du        
   2748 ****         9.0000  -8.7500  22.5000 Du        
   2749 ****         9.0000  -8.7500  22.7500 Du        
   2750 ****         9.0000  -8.7500  23.0000 Du        
   2751 ****         9.0000  -8.7500  34.2500 Du        
   2752 ****         9.0000  -8.7500  34.5000 Du        
   2753 ****         9.0000  -8.7500  34.7500 Du        
   2754 ****         9.0000  -8.7500  35.0000 Du        
   2755 ****         9.0000  -8.5000  21.5000 Du        
   2756 ****         9.0000  -8.5000  21.7500 Du        
   2757 ****         9.0000  -8.5000  22.0000 Du        
   2758 ****         9.0000  -8.5000  22.2500 Du        
   2759 ****         9.0000  -8.5000  22.5000 Du        
   2760 ****         9.0000  -8.5000  22.7500 Du        
   2761 ****         9.0000  -8.5000  34.0000 Du        
   2762 ****         9.0000  -8.5000  34.2500 Du        
   2763 ****         9.0000  -8.5000  34.5000 Du        
   2764 ****         9.0000  -8.5000  34.7500 Du        
   2765 ****         9.0000  -8.5000  35.0000 Du        
   2766 ****         9.0000  -8.5000  35.2500 Du        
   2767 ****         9.0000  -8.2500  34.0000 Du        
   2768 ****         9.0000  -8.2500  34.2500 Du        
   2769 ****         9.0000  -8.2500  34.5000 Du        
   2770 ****         9.0000  -8.2500  34.7500 Du        
   2771 ****         9.0000  -8.2500  35.0000 Du        
   2772 ****         9.0000  -8.2500  35.2500 Du        
   2773 ****         9.0000  -8.2500  35.5000 Du        
   2774 ****         9.0000  -8.0000  34.0000 Du        
   2775 ****         9.0000  -8.0000  34.2500 Du        
   2776 ****         9.0000  -8.0000  34.5000 Du        
   2777 ****         9.0000  -8.0000  34.7500 Du        
   2778 ****         9.0000  -8.0000  35.0000 Du        
   2779 ****         9.0000  -8.0000  35.2500 Du        
   2780 ****         9.0000  -8.0000  35.5000 Du        
   2781 ****         9.0000  -7.7500  25.0000 Du        
   2782 ****         9.0000  -7.7500  25.2500 Du        
   2783 ****         9.0000  -7.7500  25.5000 Du        
   2784 ****         9.0000  -7.7500  34.0000 Du        
   2785 ****         9.0000  -7.7500  34.2500 Du        
   2786 ****         9.0000  -7.7500  34.5000 Du        
   2787 ****         9.0000  -7.7500  34.7500 Du        
   2788 ****         9.0000  -7.7500  35.0000 Du        
   2789 ****         9.0000  -7.7500  35.2500 Du        
   2790 ****         9.0000  -7.7500  35.5000 Du        
   2791 ****         9.0000  -7.5000  33.7500 Du        
   2792 ****         9.0000  -7.5000  34.0000 Du        
   2793 ****         9.0000  -7.5000  34.2500 Du        
   2794 ****         9.0000  -7.5000  34.5000 Du        
   2795 ****         9.0000  -7.5000  34.7500 Du        
   2796 ****         9.0000  -7.5000  35.0000 Du        
   2797 ****         9.0000  -7.5000  35.2500 Du        
   2798 ****         9.0000  -7.5000  35.5000 Du        
   2799 ****         9.0000  -7.2500  33.7500 Du        
   2800 ****         9.0000  -7.2500  34.0000 Du        
   2801 ****         9.0000  -7.2500  34.2500 Du        
   2802 ****         9.0000  -7.2500  34.5000 Du        
   2803 ****         9.0000  -7.2500  34.7500 Du        
   2804 ****         9.0000  -7.2500  35.0000 Du        
   2805 ****         9.0000  -7.2500  35.2500 Du        
   2806 ****         9.0000  -7.2500  35.5000 Du        
   2807 ****         9.0000  -7.0000  25.7500 Du        
   2808 ****         9.0000  -7.0000  33.7500 Du        
   2809 ****         9.0000  -7.0000  34.0000 Du        
   2810 ****         9.0000  -7.0000  34.2500 Du        
   2811 ****         9.0000  -7.0000  34.5000 Du        
   2812 ****         9.0000  -7.0000  34.7500 Du        
   2813 ****         9.0000  -7.0000  35.0000 Du        
   2814 ****         9.0000  -7.0000  35.2500 Du        
   2815 ****         9.0000  -6.7500  33.7500 Du        
   2816 ****         9.0000  -6.7500  34.0000 Du        
   2817 ****         9.0000  -6.7500  34.2500 Du        
   2818 ****         9.0000  -6.7500  34.5000 Du        
   2819 ****         9.0000  -6.7500  34.7500 Du        
   2820 ****         9.0000  -6.7500  35.0000 Du        
   2821 ****         9.0000  -6.5000  34.2500 Du        
   2822 ****         9.0000  -6.5000  34.5000 Du        
   2823 ****         9.0000  -3.0000  26.5000 Du        
   2824 ****         9.0000   4.2500  24.2500 Du        
   2825 ****         9.0000   4.2500  24.5000 Du        
   2826 ****         9.0000   4.2500  24.7500 Du        
   2827 ****         9.0000   4.5000  24.5000 Du        
   2828 ****         9.0000   4.5000  24.7500 Du        
   2829 ****         9.0000   4.7500  24.2500 Du        
   2830 ****         9.0000   4.7500  24.5000 Du        
   2831 ****         9.0000   4.7500  24.7500 Du        
   2832 ****         9.0000   5.0000  24.0000 Du        
   2833 ****         9.0000   5.0000  24.2500 Du        
   2834 ****         9.0000   5.0000  24.5000 Du        
   2835 ****         9.0000   5.0000  24.7500 Du        
   2836 ****         9.0000   5.2500  24.0000 Du        
   2837 ****         9.0000   5.2500  24.2500 Du        
   2838 ****         9.0000   5.2500  24.5000 Du        
   2839 ****         9.0000   5.2500  24.7500 Du        
   2840 ****         9.0000   5.5000  23.7500 Du        
   2841 ****         9.0000   5.5000  24.0000 Du        
   2842 ****         9.0000   5.5000  24.2500 Du        
   2843 ****         9.0000   5.5000  24.5000 Du        
   2844 ****         9.0000   5.5000  24.7500 Du        
   2845 ****         9.0000   5.7500  23.7500 Du        
   2846 ****         9.0000   5.7500  24.0000 Du        
   2847 ****         9.0000   5.7500  24.2500 Du        
   2848 ****         9.0000   5.7500  24.5000 Du        
   2849 ****         9.0000   5.7500  24.7500 Du        
   2850 ****         9.0000   6.0000  24.0000 Du        
   2851 ****         9.0000   6.0000  24.2500 Du        
   2852 ****         9.0000   6.0000  24.5000 Du        
   2853 ****         9.0000   6.0000  24.7500 Du        
   2854 ****         9.0000   6.2500  24.2500 Du        
   2855 ****         9.0000   6.2500  24.5000 Du        
   2856 ****         9.0000   6.2500  24.7500 Du        
   2857 ****         9.0000   6.5000  24.5000 Du        
   2858 ****         9.0000   9.0000  36.0000 Du        
   2859 ****         9.0000   9.0000  36.2500 Du        
   2860 ****         9.0000   9.0000  36.5000 Du        
   2861 ****         9.0000   9.2500  35.7500 Du        
   2862 ****         9.0000   9.2500  36.0000 Du        
   2863 ****         9.0000   9.2500  36.2500 Du        
   2864 ****         9.0000   9.2500  36.5000 Du        
   2865 ****         9.0000   9.5000  35.5000 Du        
   2866 ****         9.0000   9.5000  35.7500 Du        
   2867 ****         9.0000   9.5000  36.0000 Du        
   2868 ****         9.0000   9.5000  36.2500 Du        
   2869 ****         9.0000   9.5000  36.5000 Du        
   2870 ****         9.0000   9.7500  35.5000 Du        
   2871 ****         9.0000   9.7500  35.7500 Du        
   2872 ****         9.0000   9.7500  36.0000 Du        
   2873 ****         9.0000   9.7500  36.2500 Du        
   2874 ****         9.0000   9.7500  36.5000 Du        
   2875 ****         9.0000  10.0000  35.2500 Du        
   2876 ****         9.0000  10.0000  35.5000 Du        
   2877 ****         9.0000  10.0000  35.7500 Du        
   2878 ****         9.0000  10.0000  36.0000 Du        
   2879 ****         9.0000  10.0000  36.2500 Du        
   2880 ****         9.0000  10.0000  36.5000 Du        
   2881 ****         9.0000  10.2500  35.5000 Du        
   2882 ****         9.0000  10.2500  35.7500 Du        
   2883 ****         9.0000  10.2500  36.0000 Du        
   2884 ****         9.0000  10.2500  36.2500 Du        
   2885 ****         9.0000  10.2500  36.5000 Du        
   2886 ****         9.0000  10.5000  35.7500 Du        
   2887 ****         9.0000  10.5000  36.0000 Du        
   2888 ****         9.0000  10.5000  36.2500 Du        
   2889 ****         9.0000  10.5000  36.5000 Du        
   2890 ****         9.0000  10.7500  36.2500 Du        
   2891 ****         9.0000  14.7500  38.0000 Du        
   2892 ****         9.0000  15.0000  37.7500 Du        
   2893 ****         9.0000  15.0000  38.0000 Du        
   2894 ****         9.0000  15.0000  38.2500 Du        
   2895 ****         9.0000  15.0000  38.5000 Du        
   2896 ****         9.0000  15.2500  37.5000 Du        
   2897 ****         9.0000  15.2500  37.7500 Du        
   2898 ****         9.0000  15.2500  38.0000 Du        
   2899 ****         9.0000  15.2500  38.2500 Du        
   2900 ****         9.0000  15.2500  38.5000 Du        
   2901 ****         9.0000  15.2500  38.7500 Du        
   2902 ****         9.0000  15.5000  37.5000 Du        
   2903 ****         9.0000  15.5000  37.7500 Du        
   2904 ****         9.0000  15.5000  38.0000 Du        
   2905 ****         9.0000  15.5000  38.2500 Du        
   2906 ****         9.0000  15.5000  38.5000 Du        
   2907 ****         9.0000  15.5000  38.7500 Du        
   2908 ****         9.0000  15.5000  39.0000 Du        
   2909 ****         9.0000  15.7500  37.5000 Du        
   2910 ****         9.0000  15.7500  37.7500 Du        
   2911 ****         9.0000  15.7500  38.0000 Du        
   2912 ****         9.0000  15.7500  38.2500 Du        
   2913 ****         9.0000  15.7500  38.5000 Du        
   2914 ****         9.0000  15.7500  38.7500 Du        
   2915 ****         9.0000  15.7500  39.0000 Du        
   2916 ****         9.0000  15.7500  39.2500 Du        
   2917 ****         9.0000  16.0000  37.5000 Du        
   2918 ****         9.0000  16.0000  37.7500 Du        
   2919 ****         9.0000  16.0000  38.0000 Du        
   2920 ****         9.0000  16.0000  38.2500 Du        
   2921 ****         9.0000  16.0000  38.5000 Du        
   2922 ****         9.0000  16.0000  38.7500 Du        
   2923 ****         9.0000  16.0000  39.0000 Du        
   2924 ****         9.0000  16.0000  39.2500 Du        
   2925 ****         9.0000  16.0000  39.5000 Du        
   2926 ****         9.0000  16.0000  39.7500 Du        
   2927 ****         9.0000  16.0000  40.0000 Du        
   2928 ****         9.0000  16.0000  40.2500 Du        
   2929 ****         9.0000  16.0000  40.5000 Du        
   2930 ****         9.0000  16.2500  37.5000 Du        
   2931 ****         9.0000  16.2500  37.7500 Du        
   2932 ****         9.0000  16.2500  38.0000 Du        
   2933 ****         9.0000  16.2500  38.2500 Du        
   2934 ****         9.0000  16.2500  38.5000 Du        
   2935 ****         9.0000  16.2500  38.7500 Du        
   2936 ****         9.0000  16.2500  39.0000 Du        
   2937 ****         9.0000  16.2500  39.2500 Du        
   2938 ****         9.0000  16.2500  39.5000 Du        
   2939 ****         9.0000  16.2500  39.7500 Du        
   2940 ****         9.0000  16.2500  40.0000 Du        
   2941 ****         9.0000  16.2500  40.2500 Du        
   2942 ****         9.0000  16.2500  40.5000 Du        
   2943 ****         9.0000  16.2500  40.7500 Du        
   2944 ****         9.0000  16.2500  41.0000 Du        
   2945 ****         9.0000  16.5000  37.5000 Du        
   2946 ****         9.0000  16.5000  37.7500 Du        
   2947 ****         9.0000  16.5000  38.0000 Du        
   2948 ****         9.0000  16.5000  38.2500 Du        
   2949 ****         9.0000  16.5000  38.5000 Du        
   2950 ****         9.0000  16.5000  38.7500 Du        
   2951 ****         9.0000  16.5000  39.0000 Du        
   2952 ****         9.0000  16.5000  39.2500 Du        
   2953 ****         9.0000  16.5000  39.5000 Du        
   2954 ****         9.0000  16.5000  39.7500 Du        
   2955 ****         9.0000  16.5000  40.0000 Du        
   2956 ****         9.0000  16.5000  40.2500 Du        
   2957 ****         9.0000  16.5000  40.5000 Du        
   2958 ****         9.0000  16.5000  40.7500 Du        
   2959 ****         9.0000  16.5000  41.0000 Du        
   2960 ****         9.0000  16.7500  37.5000 Du        
   2961 ****         9.0000  16.7500  37.7500 Du        
   2962 ****         9.0000  16.7500  38.0000 Du        
   2963 ****         9.0000  16.7500  38.2500 Du        
   2964 ****         9.0000  16.7500  38.5000 Du        
   2965 ****         9.0000  16.7500  38.7500 Du        
   2966 ****         9.0000  16.7500  39.0000 Du        
   2967 ****         9.0000  16.7500  39.2500 Du        
   2968 ****         9.0000  16.7500  39.5000 Du        
   2969 ****         9.0000  16.7500  39.7500 Du        
   2970 ****         9.0000  16.7500  40.0000 Du        
   2971 ****         9.0000  16.7500  40.2500 Du        
   2972 ****         9.0000  16.7500  40.5000 Du        
   2973 ****         9.0000  16.7500  40.7500 Du        
   2974 ****         9.0000  16.7500  41.0000 Du        
   2975 ****         9.0000  16.7500  41.2500 Du        
   2976 ****         9.0000  17.0000  37.5000 Du        
   2977 ****         9.0000  17.0000  37.7500 Du        
   2978 ****         9.0000  17.0000  38.0000 Du        
   2979 ****         9.0000  17.0000  38.2500 Du        
   2980 ****         9.0000  17.0000  38.5000 Du        
   2981 ****         9.0000  17.0000  38.7500 Du        
   2982 ****         9.0000  17.0000  39.0000 Du        
   2983 ****         9.0000  17.0000  39.2500 Du        
   2984 ****         9.0000  17.0000  39.7500 Du        
   2985 ****         9.0000  17.0000  40.0000 Du        
   2986 ****         9.0000  17.0000  40.2500 Du        
   2987 ****         9.0000  17.0000  40.5000 Du        
   2988 ****         9.0000  17.0000  40.7500 Du        
   2989 ****         9.0000  17.0000  41.0000 Du        
   2990 ****         9.0000  17.0000  41.2500 Du        
   2991 ****         9.0000  17.2500  37.5000 Du        
   2992 ****         9.0000  17.2500  37.7500 Du        
   2993 ****         9.0000  17.2500  38.0000 Du        
   2994 ****         9.0000  17.2500  38.2500 Du        
   2995 ****         9.0000  17.2500  38.5000 Du        
   2996 ****         9.0000  17.2500  38.7500 Du        
   2997 ****         9.0000  17.2500  39.0000 Du        
   2998 ****         9.0000  17.2500  39.2500 Du        
   2999 ****         9.0000  17.5000  37.7500 Du        
   3000 ****         9.0000  17.5000  38.0000 Du        
   3001 ****         9.0000  17.5000  38.2500 Du        
   3002 ****         9.0000  17.5000  38.5000 Du        
   3003 ****         9.0000  17.5000  38.7500 Du        
   3004 ****         9.0000  17.5000  39.0000 Du        
   3005 ****         9.0000  17.5000  39.2500 Du        
   3006 ****         9.0000  17.7500  37.5000 Du        
   3007 ****         9.0000  17.7500  37.7500 Du        
   3008 ****         9.0000  17.7500  38.0000 Du        
   3009 ****         9.0000  17.7500  38.2500 Du        
   3010 ****         9.0000  17.7500  38.5000 Du        
   3011 ****         9.0000  17.7500  38.7500 Du        
   3012 ****         9.0000  17.7500  39.0000 Du        
   3013 ****         9.0000  18.0000  37.5000 Du        
   3014 ****         9.0000  18.0000  37.7500 Du        
   3015 ****         9.0000  18.0000  38.0000 Du        
   3016 ****         9.0000  18.0000  38.2500 Du        
   3017 ****         9.0000  18.0000  38.5000 Du        
   3018 ****         9.0000  18.0000  38.7500 Du        
   3019 ****         9.0000  18.0000  39.0000 Du        
   3020 ****         9.0000  18.2500  37.5000 Du        
   3021 ****         9.0000  18.2500  37.7500 Du        
   3022 ****         9.0000  18.2500  38.0000 Du        
   3023 ****         9.0000  18.2500  38.2500 Du        
   3024 ****         9.0000  18.2500  38.5000 Du        
   3025 ****         9.0000  18.2500  38.7500 Du        
   3026 ****         9.0000  18.2500  39.0000 Du        
   3027 ****         9.0000  18.5000  37.2500 Du        
   3028 ****         9.0000  18.5000  37.5000 Du        
   3029 ****         9.0000  18.5000  37.7500 Du        
   3030 ****         9.0000  18.5000  38.0000 Du        
   3031 ****         9.0000  18.5000  38.2500 Du        
   3032 ****         9.0000  18.5000  38.5000 Du        
   3033 ****         9.0000  18.5000  38.7500 Du        
   3034 ****         9.0000  18.7500  37.2500 Du        
   3035 ****         9.0000  18.7500  37.5000 Du        
   3036 ****         9.0000  18.7500  37.7500 Du        
   3037 ****         9.0000  18.7500  38.0000 Du        
   3038 ****         9.0000  18.7500  38.2500 Du        
   3039 ****         9.0000  18.7500  38.5000 Du        
   3040 ****         9.0000  18.7500  38.7500 Du        
   3041 ****         9.0000  19.0000  37.2500 Du        
   3042 ****         9.0000  19.0000  37.5000 Du        
   3043 ****         9.0000  19.0000  37.7500 Du        
   3044 ****         9.0000  19.0000  38.0000 Du        
   3045 ****         9.0000  19.0000  38.2500 Du        
   3046 ****         9.0000  19.0000  38.5000 Du        
   3047 ****         9.0000  19.0000  38.7500 Du        
   3048 ****         9.0000  19.2500  37.7500 Du        
   3049 ****         9.0000  19.2500  38.0000 Du        
   3050 ****         9.0000  19.2500  38.2500 Du        
   3051 ****         9.0000  19.2500  38.5000 Du        
   3052 ****         9.0000  19.2500  38.7500 Du        
   3053 ****         9.0000  19.5000  38.0000 Du        
   3054 ****         9.0000  19.5000  38.2500 Du        
   3055 ****         9.2500 -10.0000  21.5000 Du        
   3056 ****         9.2500 -10.0000  21.7500 Du        
   3057 ****         9.2500  -9.7500  21.2500 Du        
   3058 ****         9.2500  -9.7500  21.5000 Du        
   3059 ****         9.2500  -9.7500  21.7500 Du        
   3060 ****         9.2500  -9.7500  22.0000 Du        
   3061 ****         9.2500  -9.7500  22.2500 Du        
   3062 ****         9.2500  -9.5000  21.2500 Du        
   3063 ****         9.2500  -9.5000  21.5000 Du        
   3064 ****         9.2500  -9.5000  21.7500 Du        
   3065 ****         9.2500  -9.5000  22.0000 Du        
   3066 ****         9.2500  -9.5000  22.2500 Du        
   3067 ****         9.2500  -9.5000  22.5000 Du        
   3068 ****         9.2500  -9.2500  21.2500 Du        
   3069 ****         9.2500  -9.2500  21.5000 Du        
   3070 ****         9.2500  -9.2500  21.7500 Du        
   3071 ****         9.2500  -9.2500  22.0000 Du        
   3072 ****         9.2500  -9.2500  22.2500 Du        
   3073 ****         9.2500  -9.2500  22.5000 Du        
   3074 ****         9.2500  -9.2500  22.7500 Du        
   3075 ****         9.2500  -9.0000  21.2500 Du        
   3076 ****         9.2500  -9.0000  21.5000 Du        
   3077 ****         9.2500  -9.0000  21.7500 Du        
   3078 ****         9.2500  -9.0000  22.0000 Du        
   3079 ****         9.2500  -9.0000  22.2500 Du        
   3080 ****         9.2500  -9.0000  22.5000 Du        
   3081 ****         9.2500  -9.0000  22.7500 Du        
   3082 ****         9.2500  -9.0000  23.0000 Du        
   3083 ****         9.2500  -9.0000  23.2500 Du        
   3084 ****         9.2500  -8.7500  21.0000 Du        
   3085 ****         9.2500  -8.7500  21.2500 Du        
   3086 ****         9.2500  -8.7500  21.5000 Du        
   3087 ****         9.2500  -8.7500  21.7500 Du        
   3088 ****         9.2500  -8.7500  22.0000 Du        
   3089 ****         9.2500  -8.7500  22.2500 Du        
   3090 ****         9.2500  -8.7500  22.5000 Du        
   3091 ****         9.2500  -8.7500  22.7500 Du        
   3092 ****         9.2500  -8.7500  23.0000 Du        
   3093 ****         9.2500  -8.7500  23.2500 Du        
   3094 ****         9.2500  -8.7500  34.0000 Du        
   3095 ****         9.2500  -8.7500  34.2500 Du        
   3096 ****         9.2500  -8.7500  34.5000 Du        
   3097 ****         9.2500  -8.7500  34.7500 Du        
   3098 ****         9.2500  -8.7500  35.0000 Du        
   3099 ****         9.2500  -8.5000  21.2500 Du        
   3100 ****         9.2500  -8.5000  21.5000 Du        
   3101 ****         9.2500  -8.5000  21.7500 Du        
   3102 ****         9.2500  -8.5000  22.0000 Du        
   3103 ****         9.2500  -8.5000  22.2500 Du        
   3104 ****         9.2500  -8.5000  22.5000 Du        
   3105 ****         9.2500  -8.5000  22.7500 Du        
   3106 ****         9.2500  -8.5000  23.0000 Du        
   3107 ****         9.2500  -8.5000  34.0000 Du        
   3108 ****         9.2500  -8.5000  34.2500 Du        
   3109 ****         9.2500  -8.5000  34.5000 Du        
   3110 ****         9.2500  -8.5000  34.7500 Du        
   3111 ****         9.2500  -8.5000  35.0000 Du        
   3112 ****         9.2500  -8.5000  35.2500 Du        
   3113 ****         9.2500  -8.2500  22.5000 Du        
   3114 ****         9.2500  -8.2500  22.7500 Du        
   3115 ****         9.2500  -8.2500  23.0000 Du        
   3116 ****         9.2500  -8.2500  23.5000 Du        
   3117 ****         9.2500  -8.2500  23.7500 Du        
   3118 ****         9.2500  -8.2500  34.0000 Du        
   3119 ****         9.2500  -8.2500  34.2500 Du        
   3120 ****         9.2500  -8.2500  34.5000 Du        
   3121 ****         9.2500  -8.2500  34.7500 Du        
   3122 ****         9.2500  -8.2500  35.0000 Du        
   3123 ****         9.2500  -8.2500  35.2500 Du        
   3124 ****         9.2500  -8.2500  35.5000 Du        
   3125 ****         9.2500  -8.0000  23.7500 Du        
   3126 ****         9.2500  -8.0000  24.7500 Du        
   3127 ****         9.2500  -8.0000  25.0000 Du        
   3128 ****         9.2500  -8.0000  25.2500 Du        
   3129 ****         9.2500  -8.0000  34.0000 Du        
   3130 ****         9.2500  -8.0000  34.2500 Du        
   3131 ****         9.2500  -8.0000  34.5000 Du        
   3132 ****         9.2500  -8.0000  34.7500 Du        
   3133 ****         9.2500  -8.0000  35.0000 Du        
   3134 ****         9.2500  -8.0000  35.2500 Du        
   3135 ****         9.2500  -8.0000  35.5000 Du        
   3136 ****         9.2500  -7.7500  24.7500 Du        
   3137 ****         9.2500  -7.7500  25.0000 Du        
   3138 ****         9.2500  -7.7500  25.2500 Du        
   3139 ****         9.2500  -7.7500  25.5000 Du        
   3140 ****         9.2500  -7.7500  33.7500 Du        
   3141 ****         9.2500  -7.7500  34.0000 Du        
   3142 ****         9.2500  -7.7500  34.2500 Du        
   3143 ****         9.2500  -7.7500  34.5000 Du        
   3144 ****         9.2500  -7.7500  34.7500 Du        
   3145 ****         9.2500  -7.7500  35.0000 Du        
   3146 ****         9.2500  -7.7500  35.2500 Du        
   3147 ****         9.2500  -7.7500  35.5000 Du        
   3148 ****         9.2500  -7.5000  33.7500 Du        
   3149 ****         9.2500  -7.5000  34.0000 Du        
   3150 ****         9.2500  -7.5000  34.2500 Du        
   3151 ****         9.2500  -7.5000  34.5000 Du        
   3152 ****         9.2500  -7.5000  34.7500 Du        
   3153 ****         9.2500  -7.5000  35.0000 Du        
   3154 ****         9.2500  -7.5000  35.2500 Du        
   3155 ****         9.2500  -7.5000  35.5000 Du        
   3156 ****         9.2500  -7.2500  33.7500 Du        
   3157 ****         9.2500  -7.2500  34.0000 Du        
   3158 ****         9.2500  -7.2500  34.2500 Du        
   3159 ****         9.2500  -7.2500  34.5000 Du        
   3160 ****         9.2500  -7.2500  34.7500 Du        
   3161 ****         9.2500  -7.2500  35.0000 Du        
   3162 ****         9.2500  -7.2500  35.2500 Du        
   3163 ****         9.2500  -7.2500  35.5000 Du        
   3164 ****         9.2500  -7.0000  33.7500 Du        
   3165 ****         9.2500  -7.0000  34.0000 Du        
   3166 ****         9.2500  -7.0000  34.2500 Du        
   3167 ****         9.2500  -7.0000  34.5000 Du        
   3168 ****         9.2500  -7.0000  34.7500 Du        
   3169 ****         9.2500  -7.0000  35.0000 Du        
   3170 ****         9.2500  -7.0000  35.2500 Du        
   3171 ****         9.2500  -6.7500  33.7500 Du        
   3172 ****         9.2500  -6.7500  34.0000 Du        
   3173 ****         9.2500  -6.7500  34.2500 Du        
   3174 ****         9.2500  -6.7500  34.5000 Du        
   3175 ****         9.2500  -6.7500  34.7500 Du        
   3176 ****         9.2500   5.0000  24.5000 Du        
   3177 ****         9.2500   5.2500  24.5000 Du        
   3178 ****         9.2500   5.5000  24.0000 Du        
   3179 ****         9.2500   5.5000  24.2500 Du        
   3180 ****         9.2500   5.5000  24.5000 Du        
   3181 ****         9.2500   5.7500  23.7500 Du        
   3182 ****         9.2500   5.7500  24.0000 Du        
   3183 ****         9.2500   5.7500  24.2500 Du        
   3184 ****         9.2500   5.7500  24.5000 Du        
   3185 ****         9.2500   5.7500  24.7500 Du        
   3186 ****         9.2500   6.0000  24.0000 Du        
   3187 ****         9.2500   6.0000  24.2500 Du        
   3188 ****         9.2500   6.0000  24.5000 Du        
   3189 ****         9.2500   6.0000  24.7500 Du        
   3190 ****         9.2500   6.2500  24.0000 Du        
   3191 ****         9.2500   6.2500  24.2500 Du        
   3192 ****         9.2500   6.2500  24.5000 Du        
   3193 ****         9.2500   6.2500  24.7500 Du        
   3194 ****         9.2500   6.5000  24.5000 Du        
   3195 ****         9.2500   9.0000  36.2500 Du        
   3196 ****         9.2500   9.0000  36.5000 Du        
   3197 ****         9.2500   9.2500  36.0000 Du        
   3198 ****         9.2500   9.2500  36.2500 Du        
   3199 ****         9.2500   9.2500  36.5000 Du        
   3200 ****         9.2500   9.5000  35.7500 Du        
   3201 ****         9.2500   9.5000  36.0000 Du        
   3202 ****         9.2500   9.5000  36.2500 Du        
   3203 ****         9.2500   9.5000  36.5000 Du        
   3204 ****         9.2500   9.7500  35.5000 Du        
   3205 ****         9.2500   9.7500  35.7500 Du        
   3206 ****         9.2500   9.7500  36.0000 Du        
   3207 ****         9.2500   9.7500  36.2500 Du        
   3208 ****         9.2500   9.7500  36.5000 Du        
   3209 ****         9.2500  10.0000  35.2500 Du        
   3210 ****         9.2500  10.0000  35.5000 Du        
   3211 ****         9.2500  10.0000  35.7500 Du        
   3212 ****         9.2500  10.0000  36.0000 Du        
   3213 ****         9.2500  10.0000  36.2500 Du        
   3214 ****         9.2500  10.2500  35.5000 Du        
   3215 ****         9.2500  10.2500  35.7500 Du        
   3216 ****         9.2500  10.2500  36.0000 Du        
   3217 ****         9.2500  10.2500  36.2500 Du        
   3218 ****         9.2500  10.5000  35.7500 Du        
   3219 ****         9.2500  10.5000  36.0000 Du        
   3220 ****         9.2500  10.5000  36.2500 Du        
   3221 ****         9.2500  15.0000  37.7500 Du        
   3222 ****         9.2500  15.0000  38.0000 Du        
   3223 ****         9.2500  15.2500  37.5000 Du        
   3224 ****         9.2500  15.2500  37.7500 Du        
   3225 ****         9.2500  15.2500  38.0000 Du        
   3226 ****         9.2500  15.2500  38.2500 Du        
   3227 ****         9.2500  15.2500  38.5000 Du        
   3228 ****         9.2500  15.5000  37.5000 Du        
   3229 ****         9.2500  15.5000  37.7500 Du        
   3230 ****         9.2500  15.5000  38.0000 Du        
   3231 ****         9.2500  15.5000  38.2500 Du        
   3232 ****         9.2500  15.5000  38.5000 Du        
   3233 ****         9.2500  15.7500  37.5000 Du        
   3234 ****         9.2500  15.7500  37.7500 Du        
   3235 ****         9.2500  15.7500  38.0000 Du        
   3236 ****         9.2500  15.7500  38.2500 Du        
   3237 ****         9.2500  15.7500  38.5000 Du        
   3238 ****         9.2500  15.7500  38.7500 Du        
   3239 ****         9.2500  15.7500  39.0000 Du        
   3240 ****         9.2500  16.0000  37.2500 Du        
   3241 ****         9.2500  16.0000  37.5000 Du        
   3242 ****         9.2500  16.0000  37.7500 Du        
   3243 ****         9.2500  16.0000  38.0000 Du        
   3244 ****         9.2500  16.0000  38.2500 Du        
   3245 ****         9.2500  16.0000  38.5000 Du        
   3246 ****         9.2500  16.0000  38.7500 Du        
   3247 ****         9.2500  16.0000  39.0000 Du        
   3248 ****         9.2500  16.0000  39.2500 Du        
   3249 ****         9.2500  16.2500  37.5000 Du        
   3250 ****         9.2500  16.2500  37.7500 Du        
   3251 ****         9.2500  16.2500  38.0000 Du        
   3252 ****         9.2500  16.2500  38.2500 Du        
   3253 ****         9.2500  16.2500  38.5000 Du        
   3254 ****         9.2500  16.2500  38.7500 Du        
   3255 ****         9.2500  16.2500  39.0000 Du        
   3256 ****         9.2500  16.2500  39.2500 Du        
   3257 ****         9.2500  16.2500  39.5000 Du        
   3258 ****         9.2500  16.2500  39.7500 Du        
   3259 ****         9.2500  16.2500  40.0000 Du        
   3260 ****         9.2500  16.2500  40.2500 Du        
   3261 ****         9.2500  16.5000  37.5000 Du        
   3262 ****         9.2500  16.5000  37.7500 Du        
   3263 ****         9.2500  16.5000  38.0000 Du        
   3264 ****         9.2500  16.5000  38.2500 Du        
   3265 ****         9.2500  16.5000  38.5000 Du        
   3266 ****         9.2500  16.5000  38.7500 Du        
   3267 ****         9.2500  16.5000  39.0000 Du        
   3268 ****         9.2500  16.5000  39.2500 Du        
   3269 ****         9.2500  16.5000  39.5000 Du        
   3270 ****         9.2500  16.5000  39.7500 Du        
   3271 ****         9.2500  16.5000  40.0000 Du        
   3272 ****         9.2500  16.7500  37.5000 Du        
   3273 ****         9.2500  16.7500  37.7500 Du        
   3274 ****         9.2500  16.7500  38.0000 Du        
   3275 ****         9.2500  16.7500  38.2500 Du        
   3276 ****         9.2500  16.7500  38.5000 Du        
   3277 ****         9.2500  16.7500  38.7500 Du        
   3278 ****         9.2500  16.7500  39.0000 Du        
   3279 ****         9.2500  16.7500  39.2500 Du        
   3280 ****         9.2500  16.7500  39.5000 Du        
   3281 ****         9.2500  16.7500  39.7500 Du        
   3282 ****         9.2500  16.7500  40.0000 Du        
   3283 ****         9.2500  16.7500  40.2500 Du        
   3284 ****         9.2500  17.0000  37.5000 Du        
   3285 ****         9.2500  17.0000  37.7500 Du        
   3286 ****         9.2500  17.0000  38.0000 Du        
   3287 ****         9.2500  17.0000  38.2500 Du        
   3288 ****         9.2500  17.0000  38.5000 Du        
   3289 ****         9.2500  17.0000  38.7500 Du        
   3290 ****         9.2500  17.0000  39.0000 Du        
   3291 ****         9.2500  17.0000  39.2500 Du        
   3292 ****         9.2500  17.0000  39.5000 Du        
   3293 ****         9.2500  17.0000  39.7500 Du        
   3294 ****         9.2500  17.0000  40.0000 Du        
   3295 ****         9.2500  17.0000  40.2500 Du        
   3296 ****         9.2500  17.0000  40.7500 Du        
   3297 ****         9.2500  17.2500  37.5000 Du        
   3298 ****         9.2500  17.2500  37.7500 Du        
   3299 ****         9.2500  17.2500  38.0000 Du        
   3300 ****         9.2500  17.2500  38.2500 Du        
   3301 ****         9.2500  17.2500  38.5000 Du        
   3302 ****         9.2500  17.2500  38.7500 Du        
   3303 ****         9.2500  17.2500  39.0000 Du        
   3304 ****         9.2500  17.2500  39.2500 Du        
   3305 ****         9.2500  17.5000  37.5000 Du        
   3306 ****         9.2500  17.5000  37.7500 Du        
   3307 ****         9.2500  17.5000  38.0000 Du        
   3308 ****         9.2500  17.5000  38.2500 Du        
   3309 ****         9.2500  17.5000  38.5000 Du        
   3310 ****         9.2500  17.5000  38.7500 Du        
   3311 ****         9.2500  17.5000  39.0000 Du        
   3312 ****         9.2500  17.7500  37.5000 Du        
   3313 ****         9.2500  17.7500  37.7500 Du        
   3314 ****         9.2500  17.7500  38.0000 Du        
   3315 ****         9.2500  17.7500  38.2500 Du        
   3316 ****         9.2500  17.7500  38.5000 Du        
   3317 ****         9.2500  17.7500  38.7500 Du        
   3318 ****         9.2500  17.7500  39.0000 Du        
   3319 ****         9.2500  18.0000  37.5000 Du        
   3320 ****         9.2500  18.0000  37.7500 Du        
   3321 ****         9.2500  18.0000  38.0000 Du        
   3322 ****         9.2500  18.0000  38.2500 Du        
   3323 ****         9.2500  18.0000  38.5000 Du        
   3324 ****         9.2500  18.0000  38.7500 Du        
   3325 ****         9.2500  18.0000  39.0000 Du        
   3326 ****         9.2500  18.2500  37.2500 Du        
   3327 ****         9.2500  18.2500  37.5000 Du        
   3328 ****         9.2500  18.2500  37.7500 Du        
   3329 ****         9.2500  18.2500  38.0000 Du        
   3330 ****         9.2500  18.2500  38.2500 Du        
   3331 ****         9.2500  18.2500  38.5000 Du        
   3332 ****         9.2500  18.2500  38.7500 Du        
   3333 ****         9.2500  18.5000  37.2500 Du        
   3334 ****         9.2500  18.5000  37.5000 Du        
   3335 ****         9.2500  18.5000  37.7500 Du        
   3336 ****         9.2500  18.5000  38.0000 Du        
   3337 ****         9.2500  18.5000  38.2500 Du        
   3338 ****         9.2500  18.5000  38.5000 Du        
   3339 ****         9.2500  18.7500  37.2500 Du        
   3340 ****         9.2500  18.7500  37.5000 Du        
   3341 ****         9.2500  18.7500  37.7500 Du        
   3342 ****         9.2500  18.7500  38.0000 Du        
   3343 ****         9.2500  18.7500  38.2500 Du        
   3344 ****         9.2500  18.7500  38.5000 Du        
   3345 ****         9.2500  18.7500  44.0000 Du        
   3346 ****         9.2500  18.7500  44.2500 Du        
   3347 ****         9.2500  18.7500  44.5000 Du        
   3348 ****         9.2500  19.0000  37.2500 Du        
   3349 ****         9.2500  19.0000  37.5000 Du        
   3350 ****         9.2500  19.0000  37.7500 Du        
   3351 ****         9.2500  19.0000  38.0000 Du        
   3352 ****         9.2500  19.0000  38.2500 Du        
   3353 ****         9.2500  19.0000  38.5000 Du        
   3354 ****         9.2500  19.0000  44.2500 Du        
   3355 ****         9.2500  19.0000  44.5000 Du        
   3356 ****         9.2500  19.0000  44.7500 Du        
   3357 ****         9.2500  19.2500  37.7500 Du        
   3358 ****         9.2500  19.2500  38.0000 Du        
   3359 ****         9.2500  19.2500  38.2500 Du        
   3360 ****         9.2500  19.2500  38.5000 Du        
   3361 ****         9.2500  19.2500  44.7500 Du        
   3362 ****         9.5000 -18.2500  34.2500 Du        
   3363 ****         9.5000 -18.0000  34.0000 Du        
   3364 ****         9.5000 -10.0000  21.5000 Du        
   3365 ****         9.5000 -10.0000  21.7500 Du        
   3366 ****         9.5000  -9.7500  21.2500 Du        
   3367 ****         9.5000  -9.7500  21.5000 Du        
   3368 ****         9.5000  -9.7500  21.7500 Du        
   3369 ****         9.5000  -9.7500  22.0000 Du        
   3370 ****         9.5000  -9.5000  21.2500 Du        
   3371 ****         9.5000  -9.5000  21.5000 Du        
   3372 ****         9.5000  -9.5000  21.7500 Du        
   3373 ****         9.5000  -9.5000  22.0000 Du        
   3374 ****         9.5000  -9.5000  22.2500 Du        
   3375 ****         9.5000  -9.2500  21.2500 Du        
   3376 ****         9.5000  -9.2500  21.5000 Du        
   3377 ****         9.5000  -9.2500  21.7500 Du        
   3378 ****         9.5000  -9.2500  22.0000 Du        
   3379 ****         9.5000  -9.2500  22.2500 Du        
   3380 ****         9.5000  -9.2500  22.5000 Du        
   3381 ****         9.5000  -9.2500  22.7500 Du        
   3382 ****         9.5000  -9.0000  21.2500 Du        
   3383 ****         9.5000  -9.0000  21.5000 Du        
   3384 ****         9.5000  -9.0000  21.7500 Du        
   3385 ****         9.5000  -9.0000  22.0000 Du        
   3386 ****         9.5000  -9.0000  22.2500 Du        
   3387 ****         9.5000  -9.0000  22.5000 Du        
   3388 ****         9.5000  -9.0000  22.7500 Du        
   3389 ****         9.5000  -9.0000  23.0000 Du        
   3390 ****         9.5000  -9.0000  34.2500 Du        
   3391 ****         9.5000  -9.0000  34.5000 Du        
   3392 ****         9.5000  -8.7500  21.2500 Du        
   3393 ****         9.5000  -8.7500  21.5000 Du        
   3394 ****         9.5000  -8.7500  21.7500 Du        
   3395 ****         9.5000  -8.7500  22.0000 Du        
   3396 ****         9.5000  -8.7500  22.2500 Du        
   3397 ****         9.5000  -8.7500  22.5000 Du        
   3398 ****         9.5000  -8.7500  22.7500 Du        
   3399 ****         9.5000  -8.7500  23.0000 Du        
   3400 ****         9.5000  -8.7500  23.2500 Du        
   3401 ****         9.5000  -8.7500  34.0000 Du        
   3402 ****         9.5000  -8.7500  34.2500 Du        
   3403 ****         9.5000  -8.7500  34.5000 Du        
   3404 ****         9.5000  -8.7500  34.7500 Du        
   3405 ****         9.5000  -8.7500  35.0000 Du        
   3406 ****         9.5000  -8.5000  22.5000 Du        
   3407 ****         9.5000  -8.5000  22.7500 Du        
   3408 ****         9.5000  -8.5000  23.0000 Du        
   3409 ****         9.5000  -8.5000  23.2500 Du        
   3410 ****         9.5000  -8.5000  34.0000 Du        
   3411 ****         9.5000  -8.5000  34.2500 Du        
   3412 ****         9.5000  -8.5000  34.5000 Du        
   3413 ****         9.5000  -8.5000  34.7500 Du        
   3414 ****         9.5000  -8.5000  35.0000 Du        
   3415 ****         9.5000  -8.5000  35.2500 Du        
   3416 ****         9.5000  -8.2500  33.7500 Du        
   3417 ****         9.5000  -8.2500  34.0000 Du        
   3418 ****         9.5000  -8.2500  34.2500 Du        
   3419 ****         9.5000  -8.2500  34.5000 Du        
   3420 ****         9.5000  -8.2500  34.7500 Du        
   3421 ****         9.5000  -8.2500  35.0000 Du        
   3422 ****         9.5000  -8.2500  35.2500 Du        
   3423 ****         9.5000  -8.2500  35.5000 Du        
   3424 ****         9.5000  -8.0000  33.7500 Du        
   3425 ****         9.5000  -8.0000  34.0000 Du        
   3426 ****         9.5000  -8.0000  34.2500 Du        
   3427 ****         9.5000  -8.0000  34.5000 Du        
   3428 ****         9.5000  -8.0000  34.7500 Du        
   3429 ****         9.5000  -8.0000  35.0000 Du        
   3430 ****         9.5000  -8.0000  35.2500 Du        
   3431 ****         9.5000  -8.0000  35.5000 Du        
   3432 ****         9.5000  -8.0000  35.7500 Du        
   3433 ****         9.5000  -7.7500  33.7500 Du        
   3434 ****         9.5000  -7.7500  34.0000 Du        
   3435 ****         9.5000  -7.7500  34.2500 Du        
   3436 ****         9.5000  -7.7500  34.5000 Du        
   3437 ****         9.5000  -7.7500  34.7500 Du        
   3438 ****         9.5000  -7.7500  35.0000 Du        
   3439 ****         9.5000  -7.7500  35.2500 Du        
   3440 ****         9.5000  -7.7500  35.5000 Du        
   3441 ****         9.5000  -7.7500  35.7500 Du        
   3442 ****         9.5000  -7.5000  33.7500 Du        
   3443 ****         9.5000  -7.5000  34.0000 Du        
   3444 ****         9.5000  -7.5000  34.2500 Du        
   3445 ****         9.5000  -7.5000  34.5000 Du        
   3446 ****         9.5000  -7.5000  34.7500 Du        
   3447 ****         9.5000  -7.5000  35.0000 Du        
   3448 ****         9.5000  -7.5000  35.2500 Du        
   3449 ****         9.5000  -7.5000  35.5000 Du        
   3450 ****         9.5000  -7.5000  35.7500 Du        
   3451 ****         9.5000  -7.2500  33.7500 Du        
   3452 ****         9.5000  -7.2500  34.0000 Du        
   3453 ****         9.5000  -7.2500  34.2500 Du        
   3454 ****         9.5000  -7.2500  34.5000 Du        
   3455 ****         9.5000  -7.2500  34.7500 Du        
   3456 ****         9.5000  -7.2500  35.0000 Du        
   3457 ****         9.5000  -7.2500  35.2500 Du        
   3458 ****         9.5000  -7.2500  35.5000 Du        
   3459 ****         9.5000  -7.0000  33.7500 Du        
   3460 ****         9.5000  -7.0000  34.0000 Du        
   3461 ****         9.5000  -7.0000  34.2500 Du        
   3462 ****         9.5000  -7.0000  34.5000 Du        
   3463 ****         9.5000  -7.0000  34.7500 Du        
   3464 ****         9.5000  -7.0000  35.0000 Du        
   3465 ****         9.5000  -6.7500  33.7500 Du        
   3466 ****         9.5000  -6.7500  34.0000 Du        
   3467 ****         9.5000  -6.7500  34.2500 Du        
   3468 ****         9.5000  -6.7500  34.5000 Du        
   3469 ****         9.5000  -6.7500  34.7500 Du        
   3470 ****         9.5000  -3.0000  26.0000 Du        
   3471 ****         9.5000  -3.0000  26.5000 Du        
   3472 ****         9.5000   5.7500  24.5000 Du        
   3473 ****         9.5000   6.0000  24.5000 Du        
   3474 ****         9.5000   6.0000  24.7500 Du        
   3475 ****         9.5000   6.2500  24.5000 Du        
   3476 ****         9.5000   6.2500  24.7500 Du        
   3477 ****         9.5000   6.5000  24.5000 Du        
   3478 ****         9.5000   6.5000  24.7500 Du        
   3479 ****         9.5000   6.7500  24.7500 Du        
   3480 ****         9.5000   9.2500  36.2500 Du        
   3481 ****         9.5000   9.5000  36.0000 Du        
   3482 ****         9.5000   9.5000  36.2500 Du        
   3483 ****         9.5000   9.7500  35.7500 Du        
   3484 ****         9.5000   9.7500  36.0000 Du        
   3485 ****         9.5000   9.7500  36.2500 Du        
   3486 ****         9.5000  10.0000  35.5000 Du        
   3487 ****         9.5000  10.0000  35.7500 Du        
   3488 ****         9.5000  10.0000  36.0000 Du        
   3489 ****         9.5000  10.0000  36.2500 Du        
   3490 ****         9.5000  10.2500  35.5000 Du        
   3491 ****         9.5000  10.2500  35.7500 Du        
   3492 ****         9.5000  10.2500  36.0000 Du        
   3493 ****         9.5000  10.2500  36.2500 Du        
   3494 ****         9.5000  10.5000  35.7500 Du        
   3495 ****         9.5000  10.5000  36.0000 Du        
   3496 ****         9.5000  15.2500  37.7500 Du        
   3497 ****         9.5000  15.2500  38.0000 Du        
   3498 ****         9.5000  15.5000  37.5000 Du        
   3499 ****         9.5000  15.5000  37.7500 Du        
   3500 ****         9.5000  15.5000  38.0000 Du        
   3501 ****         9.5000  15.5000  38.2500 Du        
   3502 ****         9.5000  15.7500  37.2500 Du        
   3503 ****         9.5000  15.7500  37.5000 Du        
   3504 ****         9.5000  15.7500  37.7500 Du        
   3505 ****         9.5000  15.7500  38.0000 Du        
   3506 ****         9.5000  15.7500  38.2500 Du        
   3507 ****         9.5000  15.7500  38.5000 Du        
   3508 ****         9.5000  15.7500  38.7500 Du        
   3509 ****         9.5000  16.0000  37.2500 Du        
   3510 ****         9.5000  16.0000  37.5000 Du        
   3511 ****         9.5000  16.0000  37.7500 Du        
   3512 ****         9.5000  16.0000  38.0000 Du        
   3513 ****         9.5000  16.0000  38.2500 Du        
   3514 ****         9.5000  16.0000  38.5000 Du        
   3515 ****         9.5000  16.0000  38.7500 Du        
   3516 ****         9.5000  16.0000  39.0000 Du        
   3517 ****         9.5000  16.2500  37.2500 Du        
   3518 ****         9.5000  16.2500  37.5000 Du        
   3519 ****         9.5000  16.2500  37.7500 Du        
   3520 ****         9.5000  16.2500  38.0000 Du        
   3521 ****         9.5000  16.2500  38.2500 Du        
   3522 ****         9.5000  16.2500  38.5000 Du        
   3523 ****         9.5000  16.2500  38.7500 Du        
   3524 ****         9.5000  16.2500  39.0000 Du        
   3525 ****         9.5000  16.2500  39.2500 Du        
   3526 ****         9.5000  16.5000  37.2500 Du        
   3527 ****         9.5000  16.5000  37.5000 Du        
   3528 ****         9.5000  16.5000  37.7500 Du        
   3529 ****         9.5000  16.5000  38.0000 Du        
   3530 ****         9.5000  16.5000  38.2500 Du        
   3531 ****         9.5000  16.5000  38.5000 Du        
   3532 ****         9.5000  16.5000  38.7500 Du        
   3533 ****         9.5000  16.5000  39.0000 Du        
   3534 ****         9.5000  16.5000  39.2500 Du        
   3535 ****         9.5000  16.7500  37.5000 Du        
   3536 ****         9.5000  16.7500  37.7500 Du        
   3537 ****         9.5000  16.7500  38.0000 Du        
   3538 ****         9.5000  16.7500  38.2500 Du        
   3539 ****         9.5000  16.7500  38.5000 Du        
   3540 ****         9.5000  16.7500  38.7500 Du        
   3541 ****         9.5000  16.7500  39.0000 Du        
   3542 ****         9.5000  16.7500  39.2500 Du        
   3543 ****         9.5000  17.0000  37.5000 Du        
   3544 ****         9.5000  17.0000  37.7500 Du        
   3545 ****         9.5000  17.0000  38.0000 Du        
   3546 ****         9.5000  17.0000  38.2500 Du        
   3547 ****         9.5000  17.0000  38.5000 Du        
   3548 ****         9.5000  17.0000  38.7500 Du        
   3549 ****         9.5000  17.0000  39.0000 Du        
   3550 ****         9.5000  17.0000  39.2500 Du        
   3551 ****         9.5000  17.2500  37.5000 Du        
   3552 ****         9.5000  17.2500  37.7500 Du        
   3553 ****         9.5000  17.2500  38.0000 Du        
   3554 ****         9.5000  17.2500  38.2500 Du        
   3555 ****         9.5000  17.2500  38.5000 Du        
   3556 ****         9.5000  17.2500  38.7500 Du        
   3557 ****         9.5000  17.2500  39.0000 Du        
   3558 ****         9.5000  17.2500  39.2500 Du        
   3559 ****         9.5000  17.5000  37.5000 Du        
   3560 ****         9.5000  17.5000  37.7500 Du        
   3561 ****         9.5000  17.5000  38.0000 Du        
   3562 ****         9.5000  17.5000  38.2500 Du        
   3563 ****         9.5000  17.5000  38.5000 Du        
   3564 ****         9.5000  17.5000  38.7500 Du        
   3565 ****         9.5000  17.5000  39.0000 Du        
   3566 ****         9.5000  17.7500  37.5000 Du        
   3567 ****         9.5000  17.7500  37.7500 Du        
   3568 ****         9.5000  17.7500  38.0000 Du        
   3569 ****         9.5000  17.7500  38.2500 Du        
   3570 ****         9.5000  17.7500  38.5000 Du        
   3571 ****         9.5000  17.7500  38.7500 Du        
   3572 ****         9.5000  17.7500  39.0000 Du        
   3573 ****         9.5000  18.0000  37.5000 Du        
   3574 ****         9.5000  18.0000  37.7500 Du        
   3575 ****         9.5000  18.0000  38.0000 Du        
   3576 ****         9.5000  18.0000  38.2500 Du        
   3577 ****         9.5000  18.0000  38.5000 Du        
   3578 ****         9.5000  18.0000  38.7500 Du        
   3579 ****         9.5000  18.2500  37.2500 Du        
   3580 ****         9.5000  18.2500  37.5000 Du        
   3581 ****         9.5000  18.2500  37.7500 Du        
   3582 ****         9.5000  18.2500  38.0000 Du        
   3583 ****         9.5000  18.2500  38.2500 Du        
   3584 ****         9.5000  18.2500  38.5000 Du        
   3585 ****         9.5000  18.5000  37.2500 Du        
   3586 ****         9.5000  18.5000  37.5000 Du        
   3587 ****         9.5000  18.5000  37.7500 Du        
   3588 ****         9.5000  18.5000  38.0000 Du        
   3589 ****         9.5000  18.5000  38.2500 Du        
   3590 ****         9.5000  18.7500  37.2500 Du        
   3591 ****         9.5000  18.7500  37.5000 Du        
   3592 ****         9.5000  18.7500  37.7500 Du        
   3593 ****         9.5000  18.7500  38.0000 Du        
   3594 ****         9.5000  18.7500  38.2500 Du        
   3595 ****         9.5000  18.7500  44.2500 Du        
   3596 ****         9.5000  18.7500  44.5000 Du        
   3597 ****         9.5000  18.7500  44.7500 Du        
   3598 ****         9.5000  18.7500  45.0000 Du        
   3599 ****         9.5000  19.0000  37.5000 Du        
   3600 ****         9.5000  19.0000  37.7500 Du        
   3601 ****         9.5000  19.0000  38.0000 Du        
   3602 ****         9.5000  19.0000  38.2500 Du        
   3603 ****         9.5000  19.0000  44.2500 Du        
   3604 ****         9.5000  19.0000  44.5000 Du        
   3605 ****         9.5000  19.0000  44.7500 Du        
   3606 ****         9.5000  19.0000  45.0000 Du        
   3607 ****         9.5000  19.0000  45.2500 Du        
   3608 ****         9.5000  19.2500  37.7500 Du        
   3609 ****         9.5000  19.2500  38.0000 Du        
   3610 ****         9.5000  19.2500  38.2500 Du        
   3611 ****         9.5000  19.2500  44.5000 Du        
   3612 ****         9.5000  19.2500  44.7500 Du        
   3613 ****         9.5000  19.2500  45.0000 Du        
   3614 ****         9.5000  19.2500  45.2500 Du        
   3615 ****         9.5000  19.2500  45.5000 Du        
   3616 ****         9.7500 -18.2500  34.2500 Du        
   3617 ****         9.7500 -18.2500  34.5000 Du        
   3618 ****         9.7500 -18.2500  34.7500 Du        
   3619 ****         9.7500 -18.0000  34.2500 Du        
   3620 ****         9.7500 -17.7500  34.0000 Du        
   3621 ****         9.7500 -17.5000  33.7500 Du        
   3622 ****         9.7500 -17.2500  33.5000 Du        
   3623 ****         9.7500 -10.0000  21.5000 Du        
   3624 ****         9.7500  -9.7500  21.2500 Du        
   3625 ****         9.7500  -9.7500  21.5000 Du        
   3626 ****         9.7500  -9.7500  21.7500 Du        
   3627 ****         9.7500  -9.7500  22.0000 Du        
   3628 ****         9.7500  -9.5000  21.2500 Du        
   3629 ****         9.7500  -9.5000  21.5000 Du        
   3630 ****         9.7500  -9.5000  21.7500 Du        
   3631 ****         9.7500  -9.5000  22.0000 Du        
   3632 ****         9.7500  -9.5000  22.2500 Du        
   3633 ****         9.7500  -9.2500  21.2500 Du        
   3634 ****         9.7500  -9.2500  21.5000 Du        
   3635 ****         9.7500  -9.2500  21.7500 Du        
   3636 ****         9.7500  -9.2500  22.0000 Du        
   3637 ****         9.7500  -9.2500  22.2500 Du        
   3638 ****         9.7500  -9.2500  22.5000 Du        
   3639 ****         9.7500  -9.2500  22.7500 Du        
   3640 ****         9.7500  -9.0000  21.2500 Du        
   3641 ****         9.7500  -9.0000  21.5000 Du        
   3642 ****         9.7500  -9.0000  21.7500 Du        
   3643 ****         9.7500  -9.0000  22.0000 Du        
   3644 ****         9.7500  -9.0000  22.2500 Du        
   3645 ****         9.7500  -9.0000  22.5000 Du        
   3646 ****         9.7500  -9.0000  22.7500 Du        
   3647 ****         9.7500  -9.0000  23.0000 Du        
   3648 ****         9.7500  -9.0000  34.0000 Du        
   3649 ****         9.7500  -9.0000  34.2500 Du        
   3650 ****         9.7500  -9.0000  34.5000 Du        
   3651 ****         9.7500  -9.0000  34.7500 Du        
   3652 ****         9.7500  -8.7500  21.5000 Du        
   3653 ****         9.7500  -8.7500  21.7500 Du        
   3654 ****         9.7500  -8.7500  22.0000 Du        
   3655 ****         9.7500  -8.7500  22.2500 Du        
   3656 ****         9.7500  -8.7500  22.5000 Du        
   3657 ****         9.7500  -8.7500  22.7500 Du        
   3658 ****         9.7500  -8.7500  23.0000 Du        
   3659 ****         9.7500  -8.7500  23.2500 Du        
   3660 ****         9.7500  -8.7500  33.7500 Du        
   3661 ****         9.7500  -8.7500  34.0000 Du        
   3662 ****         9.7500  -8.7500  34.2500 Du        
   3663 ****         9.7500  -8.7500  34.5000 Du        
   3664 ****         9.7500  -8.7500  34.7500 Du        
   3665 ****         9.7500  -8.7500  35.0000 Du        
   3666 ****         9.7500  -8.5000  33.7500 Du        
   3667 ****         9.7500  -8.5000  34.0000 Du        
   3668 ****         9.7500  -8.5000  34.2500 Du        
   3669 ****         9.7500  -8.5000  34.5000 Du        
   3670 ****         9.7500  -8.5000  34.7500 Du        
   3671 ****         9.7500  -8.5000  35.0000 Du        
   3672 ****         9.7500  -8.5000  35.2500 Du        
   3673 ****         9.7500  -8.2500  33.7500 Du        
   3674 ****         9.7500  -8.2500  34.0000 Du        
   3675 ****         9.7500  -8.2500  34.2500 Du        
   3676 ****         9.7500  -8.2500  34.5000 Du        
   3677 ****         9.7500  -8.2500  34.7500 Du        
   3678 ****         9.7500  -8.2500  35.0000 Du        
   3679 ****         9.7500  -8.2500  35.2500 Du        
   3680 ****         9.7500  -8.2500  35.5000 Du        
   3681 ****         9.7500  -8.0000  33.7500 Du        
   3682 ****         9.7500  -8.0000  34.0000 Du        
   3683 ****         9.7500  -8.0000  34.2500 Du        
   3684 ****         9.7500  -8.0000  34.5000 Du        
   3685 ****         9.7500  -8.0000  34.7500 Du        
   3686 ****         9.7500  -8.0000  35.0000 Du        
   3687 ****         9.7500  -8.0000  35.2500 Du        
   3688 ****         9.7500  -8.0000  35.5000 Du        
   3689 ****         9.7500  -8.0000  35.7500 Du        
   3690 ****         9.7500  -7.7500  33.7500 Du        
   3691 ****         9.7500  -7.7500  34.0000 Du        
   3692 ****         9.7500  -7.7500  34.2500 Du        
   3693 ****         9.7500  -7.7500  34.5000 Du        
   3694 ****         9.7500  -7.7500  34.7500 Du        
   3695 ****         9.7500  -7.7500  35.0000 Du        
   3696 ****         9.7500  -7.7500  35.2500 Du        
   3697 ****         9.7500  -7.7500  35.5000 Du        
   3698 ****         9.7500  -7.7500  35.7500 Du        
   3699 ****         9.7500  -7.5000  33.5000 Du        
   3700 ****         9.7500  -7.5000  33.7500 Du        
   3701 ****         9.7500  -7.5000  34.0000 Du        
   3702 ****         9.7500  -7.5000  34.2500 Du        
   3703 ****         9.7500  -7.5000  34.5000 Du        
   3704 ****         9.7500  -7.5000  34.7500 Du        
   3705 ****         9.7500  -7.5000  35.0000 Du        
   3706 ****         9.7500  -7.5000  35.2500 Du        
   3707 ****         9.7500  -7.5000  35.5000 Du        
   3708 ****         9.7500  -7.2500  33.5000 Du        
   3709 ****         9.7500  -7.2500  33.7500 Du        
   3710 ****         9.7500  -7.2500  34.0000 Du        
   3711 ****         9.7500  -7.2500  34.2500 Du        
   3712 ****         9.7500  -7.2500  34.5000 Du        
   3713 ****         9.7500  -7.2500  34.7500 Du        
   3714 ****         9.7500  -7.2500  35.0000 Du        
   3715 ****         9.7500  -7.2500  35.2500 Du        
   3716 ****         9.7500  -7.0000  33.5000 Du        
   3717 ****         9.7500  -7.0000  33.7500 Du        
   3718 ****         9.7500  -7.0000  34.0000 Du        
   3719 ****         9.7500  -7.0000  34.2500 Du        
   3720 ****         9.7500  -7.0000  34.5000 Du        
   3721 ****         9.7500  -7.0000  34.7500 Du        
   3722 ****         9.7500  -7.0000  35.0000 Du        
   3723 ****         9.7500  -6.7500  33.7500 Du        
   3724 ****         9.7500  -6.7500  34.0000 Du        
   3725 ****         9.7500  -6.7500  34.2500 Du        
   3726 ****         9.7500  -6.7500  34.5000 Du        
   3727 ****         9.7500  -3.2500  26.2500 Du        
   3728 ****         9.7500  -3.0000  26.0000 Du        
   3729 ****         9.7500  -3.0000  26.2500 Du        
   3730 ****         9.7500  -3.0000  26.5000 Du        
   3731 ****         9.7500  -2.7500  26.2500 Du        
   3732 ****         9.7500  -2.7500  26.5000 Du        
   3733 ****         9.7500   6.2500  24.5000 Du        
   3734 ****         9.7500   6.5000  24.5000 Du        
   3735 ****         9.7500   6.5000  24.7500 Du        
   3736 ****         9.7500   6.7500  24.5000 Du        
   3737 ****         9.7500   6.7500  24.7500 Du        
   3738 ****         9.7500   9.7500  35.7500 Du        
   3739 ****         9.7500   9.7500  36.0000 Du        
   3740 ****         9.7500  10.0000  35.7500 Du        
   3741 ****         9.7500  10.0000  36.0000 Du        
   3742 ****         9.7500  10.2500  35.5000 Du        
   3743 ****         9.7500  10.2500  35.7500 Du        
   3744 ****         9.7500  10.2500  36.0000 Du        
   3745 ****         9.7500  10.5000  35.7500 Du        
   3746 ****         9.7500  15.5000  37.5000 Du        
   3747 ****         9.7500  15.5000  37.7500 Du        
   3748 ****         9.7500  15.5000  38.0000 Du        
   3749 ****         9.7500  15.7500  37.2500 Du        
   3750 ****         9.7500  15.7500  37.5000 Du        
   3751 ****         9.7500  15.7500  37.7500 Du        
   3752 ****         9.7500  15.7500  38.0000 Du        
   3753 ****         9.7500  15.7500  38.2500 Du        
   3754 ****         9.7500  15.7500  38.5000 Du        
   3755 ****         9.7500  16.0000  37.2500 Du        
   3756 ****         9.7500  16.0000  37.5000 Du        
   3757 ****         9.7500  16.0000  37.7500 Du        
   3758 ****         9.7500  16.0000  38.0000 Du        
   3759 ****         9.7500  16.0000  38.2500 Du        
   3760 ****         9.7500  16.0000  38.5000 Du        
   3761 ****         9.7500  16.0000  38.7500 Du        
   3762 ****         9.7500  16.2500  37.2500 Du        
   3763 ****         9.7500  16.2500  37.5000 Du        
   3764 ****         9.7500  16.2500  37.7500 Du        
   3765 ****         9.7500  16.2500  38.0000 Du        
   3766 ****         9.7500  16.2500  38.2500 Du        
   3767 ****         9.7500  16.2500  38.5000 Du        
   3768 ****         9.7500  16.2500  38.7500 Du        
   3769 ****         9.7500  16.2500  39.0000 Du        
   3770 ****         9.7500  16.5000  37.2500 Du        
   3771 ****         9.7500  16.5000  37.5000 Du        
   3772 ****         9.7500  16.5000  37.7500 Du        
   3773 ****         9.7500  16.5000  38.0000 Du        
   3774 ****         9.7500  16.5000  38.2500 Du        
   3775 ****         9.7500  16.5000  38.5000 Du        
   3776 ****         9.7500  16.5000  38.7500 Du        
   3777 ****         9.7500  16.5000  39.0000 Du        
   3778 ****         9.7500  16.7500  37.2500 Du        
   3779 ****         9.7500  16.7500  37.5000 Du        
   3780 ****         9.7500  16.7500  37.7500 Du        
   3781 ****         9.7500  16.7500  38.0000 Du        
   3782 ****         9.7500  16.7500  38.2500 Du        
   3783 ****         9.7500  16.7500  38.5000 Du        
   3784 ****         9.7500  16.7500  38.7500 Du        
   3785 ****         9.7500  16.7500  39.0000 Du        
   3786 ****         9.7500  16.7500  39.2500 Du        
   3787 ****         9.7500  17.0000  37.5000 Du        
   3788 ****         9.7500  17.0000  37.7500 Du        
   3789 ****         9.7500  17.0000  38.0000 Du        
   3790 ****         9.7500  17.0000  38.2500 Du        
   3791 ****         9.7500  17.0000  38.5000 Du        
   3792 ****         9.7500  17.0000  38.7500 Du        
   3793 ****         9.7500  17.0000  39.0000 Du        
   3794 ****         9.7500  17.0000  39.2500 Du        
   3795 ****         9.7500  17.2500  37.5000 Du        
   3796 ****         9.7500  17.2500  37.7500 Du        
   3797 ****         9.7500  17.2500  38.0000 Du        
   3798 ****         9.7500  17.2500  38.2500 Du        
   3799 ****         9.7500  17.2500  38.5000 Du        
   3800 ****         9.7500  17.2500  38.7500 Du        
   3801 ****         9.7500  17.2500  39.0000 Du        
   3802 ****         9.7500  17.2500  39.2500 Du        
   3803 ****         9.7500  17.5000  37.5000 Du        
   3804 ****         9.7500  17.5000  37.7500 Du        
   3805 ****         9.7500  17.5000  38.0000 Du        
   3806 ****         9.7500  17.5000  38.2500 Du        
   3807 ****         9.7500  17.5000  38.5000 Du        
   3808 ****         9.7500  17.5000  38.7500 Du        
   3809 ****         9.7500  17.5000  39.0000 Du        
   3810 ****         9.7500  17.7500  37.5000 Du        
   3811 ****         9.7500  17.7500  37.7500 Du        
   3812 ****         9.7500  17.7500  38.0000 Du        
   3813 ****         9.7500  17.7500  38.2500 Du        
   3814 ****         9.7500  17.7500  38.5000 Du        
   3815 ****         9.7500  17.7500  38.7500 Du        
   3816 ****         9.7500  18.0000  37.5000 Du        
   3817 ****         9.7500  18.0000  37.7500 Du        
   3818 ****         9.7500  18.0000  38.0000 Du        
   3819 ****         9.7500  18.0000  38.2500 Du        
   3820 ****         9.7500  18.0000  38.5000 Du        
   3821 ****         9.7500  18.2500  37.2500 Du        
   3822 ****         9.7500  18.2500  37.5000 Du        
   3823 ****         9.7500  18.2500  37.7500 Du        
   3824 ****         9.7500  18.2500  38.0000 Du        
   3825 ****         9.7500  18.2500  38.2500 Du        
   3826 ****         9.7500  18.5000  37.2500 Du        
   3827 ****         9.7500  18.5000  37.5000 Du        
   3828 ****         9.7500  18.5000  37.7500 Du        
   3829 ****         9.7500  18.5000  38.0000 Du        
   3830 ****         9.7500  18.5000  38.2500 Du        
   3831 ****         9.7500  18.7500  37.2500 Du        
   3832 ****         9.7500  18.7500  37.5000 Du        
   3833 ****         9.7500  18.7500  37.7500 Du        
   3834 ****         9.7500  18.7500  38.0000 Du        
   3835 ****         9.7500  18.7500  38.2500 Du        
   3836 ****         9.7500  18.7500  44.2500 Du        
   3837 ****         9.7500  18.7500  44.5000 Du        
   3838 ****         9.7500  18.7500  44.7500 Du        
   3839 ****         9.7500  18.7500  45.0000 Du        
   3840 ****         9.7500  18.7500  45.2500 Du        
   3841 ****         9.7500  19.0000  37.5000 Du        
   3842 ****         9.7500  19.0000  37.7500 Du        
   3843 ****         9.7500  19.0000  38.0000 Du        
   3844 ****         9.7500  19.0000  38.2500 Du        
   3845 ****         9.7500  19.0000  44.0000 Du        
   3846 ****         9.7500  19.0000  44.2500 Du        
   3847 ****         9.7500  19.0000  44.5000 Du        
   3848 ****         9.7500  19.0000  44.7500 Du        
   3849 ****         9.7500  19.0000  45.0000 Du        
   3850 ****         9.7500  19.0000  45.2500 Du        
   3851 ****         9.7500  19.2500  37.7500 Du        
   3852 ****         9.7500  19.2500  38.0000 Du        
   3853 ****         9.7500  19.2500  38.2500 Du        
   3854 ****         9.7500  19.2500  44.5000 Du        
   3855 ****         9.7500  19.2500  44.7500 Du        
   3856 ****         9.7500  19.2500  45.0000 Du        
   3857 ****         9.7500  19.2500  45.2500 Du        
   3858 ****        10.0000 -18.7500  34.7500 Du        
   3859 ****        10.0000 -18.7500  35.0000 Du        
   3860 ****        10.0000 -18.5000  34.5000 Du        
   3861 ****        10.0000 -18.5000  34.7500 Du        
   3862 ****        10.0000 -18.5000  35.0000 Du        
   3863 ****        10.0000 -18.2500  34.5000 Du        
   3864 ****        10.0000 -18.2500  34.7500 Du        
   3865 ****        10.0000 -18.2500  35.0000 Du        
   3866 ****        10.0000 -18.2500  35.2500 Du        
   3867 ****        10.0000 -18.2500  37.5000 Du        
   3868 ****        10.0000 -18.2500  37.7500 Du        
   3869 ****        10.0000 -18.2500  38.0000 Du        
   3870 ****        10.0000 -18.0000  34.2500 Du        
   3871 ****        10.0000 -18.0000  34.5000 Du        
   3872 ****        10.0000 -18.0000  34.7500 Du        
   3873 ****        10.0000 -18.0000  37.7500 Du        
   3874 ****        10.0000 -18.0000  38.0000 Du        
   3875 ****        10.0000 -17.7500  34.0000 Du        
   3876 ****        10.0000 -17.7500  34.2500 Du        
   3877 ****        10.0000 -17.7500  34.5000 Du        
   3878 ****        10.0000 -17.7500  38.0000 Du        
   3879 ****        10.0000 -17.5000  33.7500 Du        
   3880 ****        10.0000 -17.5000  34.0000 Du        
   3881 ****        10.0000 -17.2500  33.5000 Du        
   3882 ****        10.0000 -17.2500  33.7500 Du        
   3883 ****        10.0000 -17.0000  33.2500 Du        
   3884 ****        10.0000 -17.0000  33.5000 Du        
   3885 ****        10.0000 -16.7500  33.2500 Du        
   3886 ****        10.0000 -12.5000  30.0000 Du        
   3887 ****        10.0000 -12.5000  30.2500 Du        
   3888 ****        10.0000 -12.5000  30.5000 Du        
   3889 ****        10.0000 -12.5000  30.7500 Du        
   3890 ****        10.0000 -12.5000  31.0000 Du        
   3891 ****        10.0000 -12.2500  30.0000 Du        
   3892 ****        10.0000 -12.2500  30.2500 Du        
   3893 ****        10.0000 -12.2500  30.5000 Du        
   3894 ****        10.0000 -12.2500  30.7500 Du        
   3895 ****        10.0000 -12.2500  31.0000 Du        
   3896 ****        10.0000 -12.2500  31.2500 Du        
   3897 ****        10.0000 -12.0000  30.0000 Du        
   3898 ****        10.0000 -12.0000  30.2500 Du        
   3899 ****        10.0000 -12.0000  30.5000 Du        
   3900 ****        10.0000 -10.0000  21.5000 Du        
   3901 ****        10.0000  -9.7500  21.2500 Du        
   3902 ****        10.0000  -9.7500  21.5000 Du        
   3903 ****        10.0000  -9.7500  21.7500 Du        
   3904 ****        10.0000  -9.5000  21.5000 Du        
   3905 ****        10.0000  -9.5000  21.7500 Du        
   3906 ****        10.0000  -9.5000  22.0000 Du        
   3907 ****        10.0000  -9.2500  21.2500 Du        
   3908 ****        10.0000  -9.2500  21.5000 Du        
   3909 ****        10.0000  -9.2500  21.7500 Du        
   3910 ****        10.0000  -9.2500  22.0000 Du        
   3911 ****        10.0000  -9.2500  22.2500 Du        
   3912 ****        10.0000  -9.2500  22.5000 Du        
   3913 ****        10.0000  -9.0000  21.7500 Du        
   3914 ****        10.0000  -9.0000  22.0000 Du        
   3915 ****        10.0000  -9.0000  22.2500 Du        
   3916 ****        10.0000  -9.0000  22.5000 Du        
   3917 ****        10.0000  -9.0000  22.7500 Du        
   3918 ****        10.0000  -9.0000  23.0000 Du        
   3919 ****        10.0000  -9.0000  33.7500 Du        
   3920 ****        10.0000  -9.0000  34.0000 Du        
   3921 ****        10.0000  -9.0000  34.2500 Du        
   3922 ****        10.0000  -9.0000  34.5000 Du        
   3923 ****        10.0000  -9.0000  34.7500 Du        
   3924 ****        10.0000  -8.7500  33.7500 Du        
   3925 ****        10.0000  -8.7500  34.0000 Du        
   3926 ****        10.0000  -8.7500  34.2500 Du        
   3927 ****        10.0000  -8.7500  34.5000 Du        
   3928 ****        10.0000  -8.7500  34.7500 Du        
   3929 ****        10.0000  -8.7500  35.0000 Du        
   3930 ****        10.0000  -8.5000  33.7500 Du        
   3931 ****        10.0000  -8.5000  34.0000 Du        
   3932 ****        10.0000  -8.5000  34.2500 Du        
   3933 ****        10.0000  -8.5000  34.5000 Du        
   3934 ****        10.0000  -8.5000  34.7500 Du        
   3935 ****        10.0000  -8.5000  35.0000 Du        
   3936 ****        10.0000  -8.5000  35.2500 Du        
   3937 ****        10.0000  -8.5000  35.5000 Du        
   3938 ****        10.0000  -8.2500  33.5000 Du        
   3939 ****        10.0000  -8.2500  33.7500 Du        
   3940 ****        10.0000  -8.2500  34.0000 Du        
   3941 ****        10.0000  -8.2500  34.2500 Du        
   3942 ****        10.0000  -8.2500  34.5000 Du        
   3943 ****        10.0000  -8.2500  34.7500 Du        
   3944 ****        10.0000  -8.2500  35.0000 Du        
   3945 ****        10.0000  -8.2500  35.2500 Du        
   3946 ****        10.0000  -8.2500  35.5000 Du        
   3947 ****        10.0000  -8.0000  33.5000 Du        
   3948 ****        10.0000  -8.0000  33.7500 Du        
   3949 ****        10.0000  -8.0000  34.0000 Du        
   3950 ****        10.0000  -8.0000  34.2500 Du        
   3951 ****        10.0000  -8.0000  34.5000 Du        
   3952 ****        10.0000  -8.0000  34.7500 Du        
   3953 ****        10.0000  -8.0000  35.0000 Du        
   3954 ****        10.0000  -8.0000  35.2500 Du        
   3955 ****        10.0000  -8.0000  35.5000 Du        
   3956 ****        10.0000  -7.7500  33.5000 Du        
   3957 ****        10.0000  -7.7500  33.7500 Du        
   3958 ****        10.0000  -7.7500  34.0000 Du        
   3959 ****        10.0000  -7.7500  34.2500 Du        
   3960 ****        10.0000  -7.7500  34.5000 Du        
   3961 ****        10.0000  -7.7500  34.7500 Du        
   3962 ****        10.0000  -7.7500  35.0000 Du        
   3963 ****        10.0000  -7.7500  35.2500 Du        
   3964 ****        10.0000  -7.5000  33.5000 Du        
   3965 ****        10.0000  -7.5000  33.7500 Du        
   3966 ****        10.0000  -7.5000  34.0000 Du        
   3967 ****        10.0000  -7.5000  34.2500 Du        
   3968 ****        10.0000  -7.5000  34.5000 Du        
   3969 ****        10.0000  -7.5000  34.7500 Du        
   3970 ****        10.0000  -7.5000  35.0000 Du        
   3971 ****        10.0000  -7.2500  33.5000 Du        
   3972 ****        10.0000  -7.2500  33.7500 Du        
   3973 ****        10.0000  -7.2500  34.0000 Du        
   3974 ****        10.0000  -7.2500  34.2500 Du        
   3975 ****        10.0000  -7.2500  34.5000 Du        
   3976 ****        10.0000  -7.2500  34.7500 Du        
   3977 ****        10.0000  -7.2500  35.0000 Du        
   3978 ****        10.0000  -7.0000  33.5000 Du        
   3979 ****        10.0000  -7.0000  33.7500 Du        
   3980 ****        10.0000  -7.0000  34.0000 Du        
   3981 ****        10.0000  -7.0000  34.2500 Du        
   3982 ****        10.0000  -7.0000  34.5000 Du        
   3983 ****        10.0000  -7.0000  34.7500 Du        
   3984 ****        10.0000  -6.7500  33.7500 Du        
   3985 ****        10.0000  -6.7500  34.0000 Du        
   3986 ****        10.0000  -6.7500  34.2500 Du        
   3987 ****        10.0000  -6.7500  34.5000 Du        
   3988 ****        10.0000  -3.5000  26.0000 Du        
   3989 ****        10.0000  -3.2500  25.7500 Du        
   3990 ****        10.0000  -3.2500  26.0000 Du        
   3991 ****        10.0000  -3.2500  26.2500 Du        
   3992 ****        10.0000  -3.0000  25.7500 Du        
   3993 ****        10.0000  -3.0000  26.0000 Du        
   3994 ****        10.0000  -3.0000  26.2500 Du        
   3995 ****        10.0000  -3.0000  26.5000 Du        
   3996 ****        10.0000  -2.7500  26.0000 Du        
   3997 ****        10.0000  -2.7500  26.2500 Du        
   3998 ****        10.0000   6.5000  24.5000 Du        
   3999 ****        10.0000   6.7500  24.7500 Du        
   4000 ****        10.0000   6.7500  25.0000 Du        
   4001 ****        10.0000  10.0000  35.7500 Du        
   4002 ****        10.0000  10.2500  35.7500 Du        
   4003 ****        10.0000  15.5000  37.7500 Du        
   4004 ****        10.0000  15.7500  37.2500 Du        
   4005 ****        10.0000  15.7500  37.5000 Du        
   4006 ****        10.0000  15.7500  37.7500 Du        
   4007 ****        10.0000  15.7500  38.0000 Du        
   4008 ****        10.0000  15.7500  38.2500 Du        
   4009 ****        10.0000  16.0000  37.2500 Du        
   4010 ****        10.0000  16.0000  37.5000 Du        
   4011 ****        10.0000  16.0000  37.7500 Du        
   4012 ****        10.0000  16.0000  38.0000 Du        
   4013 ****        10.0000  16.0000  38.2500 Du        
   4014 ****        10.0000  16.0000  38.5000 Du        
   4015 ****        10.0000  16.2500  37.2500 Du        
   4016 ****        10.0000  16.2500  37.5000 Du        
   4017 ****        10.0000  16.2500  37.7500 Du        
   4018 ****        10.0000  16.2500  38.0000 Du        
   4019 ****        10.0000  16.2500  38.2500 Du        
   4020 ****        10.0000  16.2500  38.5000 Du        
   4021 ****        10.0000  16.2500  38.7500 Du        
   4022 ****        10.0000  16.5000  37.2500 Du        
   4023 ****        10.0000  16.5000  37.5000 Du        
   4024 ****        10.0000  16.5000  37.7500 Du        
   4025 ****        10.0000  16.5000  38.0000 Du        
   4026 ****        10.0000  16.5000  38.2500 Du        
   4027 ****        10.0000  16.5000  38.5000 Du        
   4028 ****        10.0000  16.5000  38.7500 Du        
   4029 ****        10.0000  16.5000  39.0000 Du        
   4030 ****        10.0000  16.7500  37.2500 Du        
   4031 ****        10.0000  16.7500  37.5000 Du        
   4032 ****        10.0000  16.7500  37.7500 Du        
   4033 ****        10.0000  16.7500  38.0000 Du        
   4034 ****        10.0000  16.7500  38.2500 Du        
   4035 ****        10.0000  16.7500  38.5000 Du        
   4036 ****        10.0000  16.7500  38.7500 Du        
   4037 ****        10.0000  16.7500  39.0000 Du        
   4038 ****        10.0000  17.0000  37.2500 Du        
   4039 ****        10.0000  17.0000  37.5000 Du        
   4040 ****        10.0000  17.0000  37.7500 Du        
   4041 ****        10.0000  17.0000  38.0000 Du        
   4042 ****        10.0000  17.0000  38.2500 Du        
   4043 ****        10.0000  17.0000  38.5000 Du        
   4044 ****        10.0000  17.0000  38.7500 Du        
   4045 ****        10.0000  17.0000  39.0000 Du        
   4046 ****        10.0000  17.2500  37.2500 Du        
   4047 ****        10.0000  17.2500  37.5000 Du        
   4048 ****        10.0000  17.2500  37.7500 Du        
   4049 ****        10.0000  17.2500  38.0000 Du        
   4050 ****        10.0000  17.2500  38.2500 Du        
   4051 ****        10.0000  17.2500  38.5000 Du        
   4052 ****        10.0000  17.2500  38.7500 Du        
   4053 ****        10.0000  17.2500  39.0000 Du        
   4054 ****        10.0000  17.5000  37.5000 Du        
   4055 ****        10.0000  17.5000  37.7500 Du        
   4056 ****        10.0000  17.5000  38.0000 Du        
   4057 ****        10.0000  17.5000  38.2500 Du        
   4058 ****        10.0000  17.5000  38.5000 Du        
   4059 ****        10.0000  17.5000  38.7500 Du        
   4060 ****        10.0000  17.5000  39.0000 Du        
   4061 ****        10.0000  17.7500  37.5000 Du        
   4062 ****        10.0000  17.7500  37.7500 Du        
   4063 ****        10.0000  17.7500  38.0000 Du        
   4064 ****        10.0000  17.7500  38.2500 Du        
   4065 ****        10.0000  17.7500  38.5000 Du        
   4066 ****        10.0000  17.7500  38.7500 Du        
   4067 ****        10.0000  18.0000  37.2500 Du        
   4068 ****        10.0000  18.0000  37.5000 Du        
   4069 ****        10.0000  18.0000  37.7500 Du        
   4070 ****        10.0000  18.0000  38.0000 Du        
   4071 ****        10.0000  18.0000  38.2500 Du        
   4072 ****        10.0000  18.0000  38.5000 Du        
   4073 ****        10.0000  18.2500  37.2500 Du        
   4074 ****        10.0000  18.2500  37.5000 Du        
   4075 ****        10.0000  18.2500  37.7500 Du        
   4076 ****        10.0000  18.2500  38.0000 Du        
   4077 ****        10.0000  18.2500  38.2500 Du        
   4078 ****        10.0000  18.5000  37.2500 Du        
   4079 ****        10.0000  18.5000  37.5000 Du        
   4080 ****        10.0000  18.5000  37.7500 Du        
   4081 ****        10.0000  18.5000  38.0000 Du        
   4082 ****        10.0000  18.7500  37.2500 Du        
   4083 ****        10.0000  18.7500  37.5000 Du        
   4084 ****        10.0000  18.7500  37.7500 Du        
   4085 ****        10.0000  18.7500  38.0000 Du        
   4086 ****        10.0000  18.7500  44.5000 Du        
   4087 ****        10.0000  18.7500  44.7500 Du        
   4088 ****        10.0000  18.7500  45.0000 Du        
   4089 ****        10.0000  19.0000  37.2500 Du        
   4090 ****        10.0000  19.0000  37.5000 Du        
   4091 ****        10.0000  19.0000  37.7500 Du        
   4092 ****        10.0000  19.0000  38.0000 Du        
   4093 ****        10.0000  19.0000  44.0000 Du        
   4094 ****        10.0000  19.0000  44.2500 Du        
   4095 ****        10.0000  19.0000  44.5000 Du        
   4096 ****        10.0000  19.0000  44.7500 Du        
   4097 ****        10.0000  19.0000  45.0000 Du        
   4098 ****        10.0000  19.0000  45.2500 Du        
   4099 ****        10.0000  19.2500  44.2500 Du        
   4100 ****        10.0000  19.2500  44.5000 Du        
   4101 ****        10.0000  19.2500  44.7500 Du        
   4102 ****        10.0000  19.2500  45.0000 Du        
   4103 ****        10.2500 -18.7500  35.0000 Du        
   4104 ****        10.2500 -18.5000  34.7500 Du        
   4105 ****        10.2500 -18.5000  35.0000 Du        
   4106 ****        10.2500 -18.2500  34.5000 Du        
   4107 ****        10.2500 -18.2500  34.7500 Du        
   4108 ****        10.2500 -18.2500  35.0000 Du        
   4109 ****        10.2500 -18.2500  35.2500 Du        
   4110 ****        10.2500 -18.2500  35.5000 Du        
   4111 ****        10.2500 -18.2500  35.7500 Du        
   4112 ****        10.2500 -18.2500  36.7500 Du        
   4113 ****        10.2500 -18.2500  37.0000 Du        
   4114 ****        10.2500 -18.2500  37.2500 Du        
   4115 ****        10.2500 -18.2500  37.5000 Du        
   4116 ****        10.2500 -18.2500  37.7500 Du        
   4117 ****        10.2500 -18.2500  38.0000 Du        
   4118 ****        10.2500 -18.0000  34.5000 Du        
   4119 ****        10.2500 -18.0000  34.7500 Du        
   4120 ****        10.2500 -18.0000  35.0000 Du        
   4121 ****        10.2500 -18.0000  35.2500 Du        
   4122 ****        10.2500 -18.0000  37.7500 Du        
   4123 ****        10.2500 -18.0000  38.0000 Du        
   4124 ****        10.2500 -17.7500  34.2500 Du        
   4125 ****        10.2500 -17.7500  34.5000 Du        
   4126 ****        10.2500 -17.7500  34.7500 Du        
   4127 ****        10.2500 -17.5000  34.0000 Du        
   4128 ****        10.2500 -17.5000  34.2500 Du        
   4129 ****        10.2500 -17.5000  34.5000 Du        
   4130 ****        10.2500 -17.2500  33.7500 Du        
   4131 ****        10.2500 -17.2500  34.0000 Du        
   4132 ****        10.2500 -17.0000  33.2500 Du        
   4133 ****        10.2500 -17.0000  33.5000 Du        
   4134 ****        10.2500 -17.0000  33.7500 Du        
   4135 ****        10.2500 -17.0000  34.0000 Du        
   4136 ****        10.2500 -16.7500  33.0000 Du        
   4137 ****        10.2500 -16.7500  33.2500 Du        
   4138 ****        10.2500 -16.7500  33.5000 Du        
   4139 ****        10.2500 -16.5000  33.0000 Du        
   4140 ****        10.2500 -16.5000  33.2500 Du        
   4141 ****        10.2500 -13.0000  31.0000 Du        
   4142 ****        10.2500 -12.7500  30.2500 Du        
   4143 ****        10.2500 -12.7500  30.5000 Du        
   4144 ****        10.2500 -12.7500  30.7500 Du        
   4145 ****        10.2500 -12.7500  31.0000 Du        
   4146 ****        10.2500 -12.7500  31.2500 Du        
   4147 ****        10.2500 -12.7500  31.5000 Du        
   4148 ****        10.2500 -12.5000  30.0000 Du        
   4149 ****        10.2500 -12.5000  30.2500 Du        
   4150 ****        10.2500 -12.5000  30.5000 Du        
   4151 ****        10.2500 -12.5000  30.7500 Du        
   4152 ****        10.2500 -12.5000  31.0000 Du        
   4153 ****        10.2500 -12.5000  31.2500 Du        
   4154 ****        10.2500 -12.5000  31.5000 Du        
   4155 ****        10.2500 -12.2500  29.7500 Du        
   4156 ****        10.2500 -12.2500  30.0000 Du        
   4157 ****        10.2500 -12.2500  30.2500 Du        
   4158 ****        10.2500 -12.2500  30.5000 Du        
   4159 ****        10.2500 -12.2500  30.7500 Du        
   4160 ****        10.2500 -12.2500  31.0000 Du        
   4161 ****        10.2500 -12.2500  31.2500 Du        
   4162 ****        10.2500 -12.2500  31.5000 Du        
   4163 ****        10.2500 -12.2500  31.7500 Du        
   4164 ****        10.2500 -12.0000  29.7500 Du        
   4165 ****        10.2500 -12.0000  30.0000 Du        
   4166 ****        10.2500 -12.0000  30.2500 Du        
   4167 ****        10.2500 -12.0000  30.5000 Du        
   4168 ****        10.2500 -12.0000  30.7500 Du        
   4169 ****        10.2500 -12.0000  31.0000 Du        
   4170 ****        10.2500 -12.0000  31.2500 Du        
   4171 ****        10.2500 -12.0000  31.5000 Du        
   4172 ****        10.2500 -11.7500  29.7500 Du        
   4173 ****        10.2500 -11.7500  30.0000 Du        
   4174 ****        10.2500 -11.7500  30.2500 Du        
   4175 ****        10.2500 -11.7500  30.5000 Du        
   4176 ****        10.2500 -11.7500  30.7500 Du        
   4177 ****        10.2500 -11.7500  31.0000 Du        
   4178 ****        10.2500  -9.2500  33.7500 Du        
   4179 ****        10.2500  -9.2500  34.0000 Du        
   4180 ****        10.2500  -9.2500  34.2500 Du        
   4181 ****        10.2500  -9.2500  34.5000 Du        
   4182 ****        10.2500  -9.0000  33.5000 Du        
   4183 ****        10.2500  -9.0000  33.7500 Du        
   4184 ****        10.2500  -9.0000  34.0000 Du        
   4185 ****        10.2500  -9.0000  34.2500 Du        
   4186 ****        10.2500  -9.0000  34.5000 Du        
   4187 ****        10.2500  -9.0000  34.7500 Du        
   4188 ****        10.2500  -9.0000  35.0000 Du        
   4189 ****        10.2500  -8.7500  33.5000 Du        
   4190 ****        10.2500  -8.7500  33.7500 Du        
   4191 ****        10.2500  -8.7500  34.0000 Du        
   4192 ****        10.2500  -8.7500  34.2500 Du        
   4193 ****        10.2500  -8.7500  34.5000 Du        
   4194 ****        10.2500  -8.7500  34.7500 Du        
   4195 ****        10.2500  -8.7500  35.0000 Du        
   4196 ****        10.2500  -8.7500  35.2500 Du        
   4197 ****        10.2500  -8.5000  33.5000 Du        
   4198 ****        10.2500  -8.5000  33.7500 Du        
   4199 ****        10.2500  -8.5000  34.0000 Du        
   4200 ****        10.2500  -8.5000  34.2500 Du        
   4201 ****        10.2500  -8.5000  34.5000 Du        
   4202 ****        10.2500  -8.5000  34.7500 Du        
   4203 ****        10.2500  -8.5000  35.0000 Du        
   4204 ****        10.2500  -8.5000  35.2500 Du        
   4205 ****        10.2500  -8.2500  33.5000 Du        
   4206 ****        10.2500  -8.2500  33.7500 Du        
   4207 ****        10.2500  -8.2500  34.0000 Du        
   4208 ****        10.2500  -8.2500  34.2500 Du        
   4209 ****        10.2500  -8.2500  34.5000 Du        
   4210 ****        10.2500  -8.2500  34.7500 Du        
   4211 ****        10.2500  -8.2500  35.0000 Du        
   4212 ****        10.2500  -8.2500  35.2500 Du        
   4213 ****        10.2500  -8.2500  35.5000 Du        
   4214 ****        10.2500  -8.0000  33.2500 Du        
   4215 ****        10.2500  -8.0000  33.5000 Du        
   4216 ****        10.2500  -8.0000  33.7500 Du        
   4217 ****        10.2500  -8.0000  34.0000 Du        
   4218 ****        10.2500  -8.0000  34.2500 Du        
   4219 ****        10.2500  -8.0000  34.5000 Du        
   4220 ****        10.2500  -8.0000  34.7500 Du        
   4221 ****        10.2500  -8.0000  35.0000 Du        
   4222 ****        10.2500  -8.0000  35.2500 Du        
   4223 ****        10.2500  -7.7500  33.2500 Du        
   4224 ****        10.2500  -7.7500  33.5000 Du        
   4225 ****        10.2500  -7.7500  33.7500 Du        
   4226 ****        10.2500  -7.7500  34.0000 Du        
   4227 ****        10.2500  -7.7500  34.2500 Du        
   4228 ****        10.2500  -7.7500  34.5000 Du        
   4229 ****        10.2500  -7.7500  34.7500 Du        
   4230 ****        10.2500  -7.7500  35.0000 Du        
   4231 ****        10.2500  -7.5000  33.2500 Du        
   4232 ****        10.2500  -7.5000  33.5000 Du        
   4233 ****        10.2500  -7.5000  33.7500 Du        
   4234 ****        10.2500  -7.5000  34.0000 Du        
   4235 ****        10.2500  -7.5000  34.2500 Du        
   4236 ****        10.2500  -7.5000  34.5000 Du        
   4237 ****        10.2500  -7.5000  34.7500 Du        
   4238 ****        10.2500  -7.2500  33.2500 Du        
   4239 ****        10.2500  -7.2500  33.5000 Du        
   4240 ****        10.2500  -7.2500  33.7500 Du        
   4241 ****        10.2500  -7.2500  34.0000 Du        
   4242 ****        10.2500  -7.2500  34.2500 Du        
   4243 ****        10.2500  -7.2500  34.5000 Du        
   4244 ****        10.2500  -7.0000  33.5000 Du        
   4245 ****        10.2500  -7.0000  33.7500 Du        
   4246 ****        10.2500  -7.0000  34.0000 Du        
   4247 ****        10.2500  -7.0000  34.2500 Du        
   4248 ****        10.2500  -6.7500  33.7500 Du        
   4249 ****        10.2500  -6.7500  34.0000 Du        
   4250 ****        10.2500  -6.7500  34.2500 Du        
   4251 ****        10.2500  -3.5000  25.7500 Du        
   4252 ****        10.2500  -3.5000  26.0000 Du        
   4253 ****        10.2500  -3.2500  25.7500 Du        
   4254 ****        10.2500  -3.2500  26.0000 Du        
   4255 ****        10.2500  -3.2500  26.2500 Du        
   4256 ****        10.2500  -3.0000  25.7500 Du        
   4257 ****        10.2500  -3.0000  26.0000 Du        
   4258 ****        10.2500  -3.0000  26.2500 Du        
   4259 ****        10.2500  -2.7500  25.7500 Du        
   4260 ****        10.2500  -2.7500  26.0000 Du        
   4261 ****        10.2500   6.7500  24.7500 Du        
   4262 ****        10.2500   7.0000  25.0000 Du        
   4263 ****        10.2500  15.7500  37.2500 Du        
   4264 ****        10.2500  15.7500  37.5000 Du        
   4265 ****        10.2500  15.7500  37.7500 Du        
   4266 ****        10.2500  15.7500  38.0000 Du        
   4267 ****        10.2500  16.0000  37.2500 Du        
   4268 ****        10.2500  16.0000  37.5000 Du        
   4269 ****        10.2500  16.0000  37.7500 Du        
   4270 ****        10.2500  16.0000  38.0000 Du        
   4271 ****        10.2500  16.0000  38.2500 Du        
   4272 ****        10.2500  16.2500  37.2500 Du        
   4273 ****        10.2500  16.2500  37.5000 Du        
   4274 ****        10.2500  16.2500  37.7500 Du        
   4275 ****        10.2500  16.2500  38.0000 Du        
   4276 ****        10.2500  16.2500  38.2500 Du        
   4277 ****        10.2500  16.2500  38.5000 Du        
   4278 ****        10.2500  16.5000  37.2500 Du        
   4279 ****        10.2500  16.5000  37.5000 Du        
   4280 ****        10.2500  16.5000  37.7500 Du        
   4281 ****        10.2500  16.5000  38.0000 Du        
   4282 ****        10.2500  16.5000  38.2500 Du        
   4283 ****        10.2500  16.5000  38.5000 Du        
   4284 ****        10.2500  16.5000  38.7500 Du        
   4285 ****        10.2500  16.7500  37.2500 Du        
   4286 ****        10.2500  16.7500  37.5000 Du        
   4287 ****        10.2500  16.7500  37.7500 Du        
   4288 ****        10.2500  16.7500  38.0000 Du        
   4289 ****        10.2500  16.7500  38.2500 Du        
   4290 ****        10.2500  16.7500  38.5000 Du        
   4291 ****        10.2500  16.7500  38.7500 Du        
   4292 ****        10.2500  16.7500  39.0000 Du        
   4293 ****        10.2500  17.0000  37.2500 Du        
   4294 ****        10.2500  17.0000  37.5000 Du        
   4295 ****        10.2500  17.0000  37.7500 Du        
   4296 ****        10.2500  17.0000  38.0000 Du        
   4297 ****        10.2500  17.0000  38.2500 Du        
   4298 ****        10.2500  17.0000  38.5000 Du        
   4299 ****        10.2500  17.0000  38.7500 Du        
   4300 ****        10.2500  17.0000  39.0000 Du        
   4301 ****        10.2500  17.2500  37.2500 Du        
   4302 ****        10.2500  17.2500  37.5000 Du        
   4303 ****        10.2500  17.2500  37.7500 Du        
   4304 ****        10.2500  17.2500  38.0000 Du        
   4305 ****        10.2500  17.2500  38.2500 Du        
   4306 ****        10.2500  17.2500  38.5000 Du        
   4307 ****        10.2500  17.2500  38.7500 Du        
   4308 ****        10.2500  17.2500  39.0000 Du        
   4309 ****        10.2500  17.5000  37.5000 Du        
   4310 ****        10.2500  17.5000  37.7500 Du        
   4311 ****        10.2500  17.5000  38.0000 Du        
   4312 ****        10.2500  17.5000  38.2500 Du        
   4313 ****        10.2500  17.5000  38.5000 Du        
   4314 ****        10.2500  17.5000  38.7500 Du        
   4315 ****        10.2500  17.7500  37.2500 Du        
   4316 ****        10.2500  17.7500  37.5000 Du        
   4317 ****        10.2500  17.7500  37.7500 Du        
   4318 ****        10.2500  17.7500  38.0000 Du        
   4319 ****        10.2500  17.7500  38.2500 Du        
   4320 ****        10.2500  17.7500  38.7500 Du        
   4321 ****        10.2500  18.0000  37.2500 Du        
   4322 ****        10.2500  18.0000  37.5000 Du        
   4323 ****        10.2500  18.0000  37.7500 Du        
   4324 ****        10.2500  18.0000  38.0000 Du        
   4325 ****        10.2500  18.0000  38.2500 Du        
   4326 ****        10.2500  18.2500  37.2500 Du        
   4327 ****        10.2500  18.2500  37.5000 Du        
   4328 ****        10.2500  18.2500  37.7500 Du        
   4329 ****        10.2500  18.2500  38.0000 Du        
   4330 ****        10.2500  18.2500  38.2500 Du        
   4331 ****        10.2500  18.5000  37.2500 Du        
   4332 ****        10.2500  18.5000  37.5000 Du        
   4333 ****        10.2500  18.5000  37.7500 Du        
   4334 ****        10.2500  18.7500  37.2500 Du        
   4335 ****        10.2500  18.7500  37.5000 Du        
   4336 ****        10.2500  18.7500  37.7500 Du        
   4337 ****        10.2500  19.0000  37.2500 Du        
   4338 ****        10.2500  19.0000  37.5000 Du        
   4339 ****        10.2500  19.0000  37.7500 Du        
   4340 ****        10.2500  19.0000  44.2500 Du        
   4341 ****        10.2500  19.0000  44.5000 Du        
   4342 ****        10.2500  19.2500  44.2500 Du        
   4343 ****        10.2500  19.2500  44.5000 Du        
   4344 ****        10.2500  19.2500  44.7500 Du        
   4345 ****        10.5000 -18.7500  35.2500 Du        
   4346 ****        10.5000 -18.7500  35.5000 Du        
   4347 ****        10.5000 -18.7500  35.7500 Du        
   4348 ****        10.5000 -18.7500  36.0000 Du        
   4349 ****        10.5000 -18.7500  36.2500 Du        
   4350 ****        10.5000 -18.7500  36.5000 Du        
   4351 ****        10.5000 -18.7500  36.7500 Du        
   4352 ****        10.5000 -18.7500  37.0000 Du        
   4353 ****        10.5000 -18.7500  37.2500 Du        
   4354 ****        10.5000 -18.7500  37.5000 Du        
   4355 ****        10.5000 -18.5000  35.0000 Du        
   4356 ****        10.5000 -18.5000  35.2500 Du        
   4357 ****        10.5000 -18.5000  35.5000 Du        
   4358 ****        10.5000 -18.5000  35.7500 Du        
   4359 ****        10.5000 -18.5000  36.0000 Du        
   4360 ****        10.5000 -18.5000  36.2500 Du        
   4361 ****        10.5000 -18.5000  36.5000 Du        
   4362 ****        10.5000 -18.5000  36.7500 Du        
   4363 ****        10.5000 -18.5000  37.0000 Du        
   4364 ****        10.5000 -18.5000  37.2500 Du        
   4365 ****        10.5000 -18.5000  37.5000 Du        
   4366 ****        10.5000 -18.2500  34.7500 Du        
   4367 ****        10.5000 -18.2500  35.0000 Du        
   4368 ****        10.5000 -18.2500  35.2500 Du        
   4369 ****        10.5000 -18.2500  35.5000 Du        
   4370 ****        10.5000 -18.2500  35.7500 Du        
   4371 ****        10.5000 -18.2500  36.0000 Du        
   4372 ****        10.5000 -18.2500  36.2500 Du        
   4373 ****        10.5000 -18.2500  36.5000 Du        
   4374 ****        10.5000 -18.2500  36.7500 Du        
   4375 ****        10.5000 -18.2500  37.0000 Du        
   4376 ****        10.5000 -18.2500  37.2500 Du        
   4377 ****        10.5000 -18.2500  37.5000 Du        
   4378 ****        10.5000 -18.2500  37.7500 Du        
   4379 ****        10.5000 -18.2500  38.0000 Du        
   4380 ****        10.5000 -18.0000  34.7500 Du        
   4381 ****        10.5000 -18.0000  35.0000 Du        
   4382 ****        10.5000 -18.0000  35.2500 Du        
   4383 ****        10.5000 -18.0000  35.5000 Du        
   4384 ****        10.5000 -18.0000  35.7500 Du        
   4385 ****        10.5000 -18.0000  36.0000 Du        
   4386 ****        10.5000 -17.7500  34.2500 Du        
   4387 ****        10.5000 -17.7500  34.5000 Du        
   4388 ****        10.5000 -17.7500  34.7500 Du        
   4389 ****        10.5000 -17.7500  35.0000 Du        
   4390 ****        10.5000 -17.7500  35.2500 Du        
   4391 ****        10.5000 -17.5000  34.0000 Du        
   4392 ****        10.5000 -17.5000  34.2500 Du        
   4393 ****        10.5000 -17.5000  34.5000 Du        
   4394 ****        10.5000 -17.5000  34.7500 Du        
   4395 ****        10.5000 -17.5000  35.0000 Du        
   4396 ****        10.5000 -17.2500  33.7500 Du        
   4397 ****        10.5000 -17.2500  34.0000 Du        
   4398 ****        10.5000 -17.2500  34.2500 Du        
   4399 ****        10.5000 -17.2500  34.5000 Du        
   4400 ****        10.5000 -17.0000  33.2500 Du        
   4401 ****        10.5000 -17.0000  33.5000 Du        
   4402 ****        10.5000 -17.0000  33.7500 Du        
   4403 ****        10.5000 -17.0000  34.0000 Du        
   4404 ****        10.5000 -17.0000  34.2500 Du        
   4405 ****        10.5000 -16.7500  33.0000 Du        
   4406 ****        10.5000 -16.7500  33.2500 Du        
   4407 ****        10.5000 -16.7500  33.5000 Du        
   4408 ****        10.5000 -16.7500  33.7500 Du        
   4409 ****        10.5000 -16.7500  34.0000 Du        
   4410 ****        10.5000 -16.5000  32.7500 Du        
   4411 ****        10.5000 -16.5000  33.0000 Du        
   4412 ****        10.5000 -16.5000  33.2500 Du        
   4413 ****        10.5000 -16.5000  33.5000 Du        
   4414 ****        10.5000 -16.5000  33.7500 Du        
   4415 ****        10.5000 -16.2500  32.7500 Du        
   4416 ****        10.5000 -16.2500  33.0000 Du        
   4417 ****        10.5000 -16.2500  33.2500 Du        
   4418 ****        10.5000 -16.0000  32.7500 Du        
   4419 ****        10.5000 -16.0000  33.0000 Du        
   4420 ****        10.5000 -13.0000  30.5000 Du        
   4421 ****        10.5000 -13.0000  30.7500 Du        
   4422 ****        10.5000 -13.0000  31.0000 Du        
   4423 ****        10.5000 -13.0000  31.2500 Du        
   4424 ****        10.5000 -13.0000  31.5000 Du        
   4425 ****        10.5000 -13.0000  31.7500 Du        
   4426 ****        10.5000 -12.7500  30.0000 Du        
   4427 ****        10.5000 -12.7500  30.2500 Du        
   4428 ****        10.5000 -12.7500  30.5000 Du        
   4429 ****        10.5000 -12.7500  30.7500 Du        
   4430 ****        10.5000 -12.7500  31.0000 Du        
   4431 ****        10.5000 -12.7500  31.2500 Du        
   4432 ****        10.5000 -12.7500  31.5000 Du        
   4433 ****        10.5000 -12.7500  31.7500 Du        
   4434 ****        10.5000 -12.5000  30.0000 Du        
   4435 ****        10.5000 -12.5000  30.2500 Du        
   4436 ****        10.5000 -12.5000  30.5000 Du        
   4437 ****        10.5000 -12.5000  30.7500 Du        
   4438 ****        10.5000 -12.5000  31.0000 Du        
   4439 ****        10.5000 -12.5000  31.2500 Du        
   4440 ****        10.5000 -12.5000  31.5000 Du        
   4441 ****        10.5000 -12.5000  31.7500 Du        
   4442 ****        10.5000 -12.2500  29.7500 Du        
   4443 ****        10.5000 -12.2500  30.0000 Du        
   4444 ****        10.5000 -12.2500  30.2500 Du        
   4445 ****        10.5000 -12.2500  30.5000 Du        
   4446 ****        10.5000 -12.2500  30.7500 Du        
   4447 ****        10.5000 -12.2500  31.0000 Du        
   4448 ****        10.5000 -12.2500  31.2500 Du        
   4449 ****        10.5000 -12.2500  31.5000 Du        
   4450 ****        10.5000 -12.2500  31.7500 Du        
   4451 ****        10.5000 -12.0000  29.7500 Du        
   4452 ****        10.5000 -12.0000  30.0000 Du        
   4453 ****        10.5000 -12.0000  30.2500 Du        
   4454 ****        10.5000 -12.0000  30.5000 Du        
   4455 ****        10.5000 -12.0000  30.7500 Du        
   4456 ****        10.5000 -12.0000  31.0000 Du        
   4457 ****        10.5000 -12.0000  31.2500 Du        
   4458 ****        10.5000 -12.0000  31.5000 Du        
   4459 ****        10.5000 -12.0000  31.7500 Du        
   4460 ****        10.5000 -11.7500  29.7500 Du        
   4461 ****        10.5000 -11.7500  30.0000 Du        
   4462 ****        10.5000 -11.7500  30.2500 Du        
   4463 ****        10.5000 -11.7500  30.5000 Du        
   4464 ****        10.5000 -11.7500  30.7500 Du        
   4465 ****        10.5000 -11.7500  31.0000 Du        
   4466 ****        10.5000 -11.7500  31.2500 Du        
   4467 ****        10.5000 -11.7500  31.5000 Du        
   4468 ****        10.5000 -11.7500  31.7500 Du        
   4469 ****        10.5000 -11.5000  29.7500 Du        
   4470 ****        10.5000 -11.5000  30.0000 Du        
   4471 ****        10.5000 -11.5000  30.2500 Du        
   4472 ****        10.5000 -11.5000  30.5000 Du        
   4473 ****        10.5000  -9.2500  33.5000 Du        
   4474 ****        10.5000  -9.2500  33.7500 Du        
   4475 ****        10.5000  -9.2500  34.0000 Du        
   4476 ****        10.5000  -9.2500  34.2500 Du        
   4477 ****        10.5000  -9.2500  34.5000 Du        
   4478 ****        10.5000  -9.2500  34.7500 Du        
   4479 ****        10.5000  -9.0000  33.2500 Du        
   4480 ****        10.5000  -9.0000  33.5000 Du        
   4481 ****        10.5000  -9.0000  33.7500 Du        
   4482 ****        10.5000  -9.0000  34.0000 Du        
   4483 ****        10.5000  -9.0000  34.2500 Du        
   4484 ****        10.5000  -9.0000  34.5000 Du        
   4485 ****        10.5000  -9.0000  34.7500 Du        
   4486 ****        10.5000  -9.0000  35.0000 Du        
   4487 ****        10.5000  -8.7500  33.2500 Du        
   4488 ****        10.5000  -8.7500  33.5000 Du        
   4489 ****        10.5000  -8.7500  33.7500 Du        
   4490 ****        10.5000  -8.7500  34.0000 Du        
   4491 ****        10.5000  -8.7500  34.2500 Du        
   4492 ****        10.5000  -8.7500  34.5000 Du        
   4493 ****        10.5000  -8.7500  34.7500 Du        
   4494 ****        10.5000  -8.7500  35.0000 Du        
   4495 ****        10.5000  -8.7500  35.2500 Du        
   4496 ****        10.5000  -8.5000  33.2500 Du        
   4497 ****        10.5000  -8.5000  33.5000 Du        
   4498 ****        10.5000  -8.5000  33.7500 Du        
   4499 ****        10.5000  -8.5000  34.0000 Du        
   4500 ****        10.5000  -8.5000  34.2500 Du        
   4501 ****        10.5000  -8.5000  34.5000 Du        
   4502 ****        10.5000  -8.5000  34.7500 Du        
   4503 ****        10.5000  -8.5000  35.0000 Du        
   4504 ****        10.5000  -8.5000  35.2500 Du        
   4505 ****        10.5000  -8.2500  33.2500 Du        
   4506 ****        10.5000  -8.2500  33.5000 Du        
   4507 ****        10.5000  -8.2500  33.7500 Du        
   4508 ****        10.5000  -8.2500  34.0000 Du        
   4509 ****        10.5000  -8.2500  34.2500 Du        
   4510 ****        10.5000  -8.2500  34.5000 Du        
   4511 ****        10.5000  -8.2500  34.7500 Du        
   4512 ****        10.5000  -8.2500  35.0000 Du        
   4513 ****        10.5000  -8.0000  33.2500 Du        
   4514 ****        10.5000  -8.0000  33.5000 Du        
   4515 ****        10.5000  -8.0000  33.7500 Du        
   4516 ****        10.5000  -8.0000  34.0000 Du        
   4517 ****        10.5000  -8.0000  34.2500 Du        
   4518 ****        10.5000  -8.0000  34.5000 Du        
   4519 ****        10.5000  -8.0000  34.7500 Du        
   4520 ****        10.5000  -7.7500  33.0000 Du        
   4521 ****        10.5000  -7.7500  33.2500 Du        
   4522 ****        10.5000  -7.7500  33.5000 Du        
   4523 ****        10.5000  -7.7500  33.7500 Du        
   4524 ****        10.5000  -7.7500  34.0000 Du        
   4525 ****        10.5000  -7.7500  34.2500 Du        
   4526 ****        10.5000  -7.7500  34.5000 Du        
   4527 ****        10.5000  -7.5000  33.0000 Du        
   4528 ****        10.5000  -7.5000  33.2500 Du        
   4529 ****        10.5000  -7.5000  33.5000 Du        
   4530 ****        10.5000  -7.5000  33.7500 Du        
   4531 ****        10.5000  -7.5000  34.0000 Du        
   4532 ****        10.5000  -7.5000  34.2500 Du        
   4533 ****        10.5000  -7.5000  34.5000 Du        
   4534 ****        10.5000  -7.2500  33.0000 Du        
   4535 ****        10.5000  -7.2500  33.2500 Du        
   4536 ****        10.5000  -7.2500  33.5000 Du        
   4537 ****        10.5000  -7.2500  33.7500 Du        
   4538 ****        10.5000  -7.2500  34.0000 Du        
   4539 ****        10.5000  -7.2500  34.2500 Du        
   4540 ****        10.5000  -7.0000  33.2500 Du        
   4541 ****        10.5000  -7.0000  33.5000 Du        
   4542 ****        10.5000  -7.0000  33.7500 Du        
   4543 ****        10.5000  -7.0000  34.0000 Du        
   4544 ****        10.5000  -6.7500  33.7500 Du        
   4545 ****        10.5000  -6.7500  34.0000 Du        
   4546 ****        10.5000  -3.7500  25.7500 Du        
   4547 ****        10.5000  -3.7500  26.0000 Du        
   4548 ****        10.5000  -3.5000  25.5000 Du        
   4549 ****        10.5000  -3.5000  25.7500 Du        
   4550 ****        10.5000  -3.5000  26.0000 Du        
   4551 ****        10.5000  -3.2500  25.5000 Du        
   4552 ****        10.5000  -3.2500  25.7500 Du        
   4553 ****        10.5000  -3.2500  26.0000 Du        
   4554 ****        10.5000  -3.2500  26.2500 Du        
   4555 ****        10.5000  -3.0000  25.5000 Du        
   4556 ****        10.5000  -3.0000  25.7500 Du        
   4557 ****        10.5000  -3.0000  26.0000 Du        
   4558 ****        10.5000  -3.0000  26.2500 Du        
   4559 ****        10.5000  -2.7500  25.7500 Du        
   4560 ****        10.5000  -2.7500  26.0000 Du        
   4561 ****        10.5000   7.0000  25.0000 Du        
   4562 ****        10.5000  15.7500  37.2500 Du        
   4563 ****        10.5000  15.7500  37.5000 Du        
   4564 ****        10.5000  15.7500  37.7500 Du        
   4565 ****        10.5000  16.0000  37.2500 Du        
   4566 ****        10.5000  16.0000  37.5000 Du        
   4567 ****        10.5000  16.0000  37.7500 Du        
   4568 ****        10.5000  16.0000  38.0000 Du        
   4569 ****        10.5000  16.2500  37.0000 Du        
   4570 ****        10.5000  16.2500  37.2500 Du        
   4571 ****        10.5000  16.2500  37.5000 Du        
   4572 ****        10.5000  16.2500  37.7500 Du        
   4573 ****        10.5000  16.2500  38.0000 Du        
   4574 ****        10.5000  16.2500  38.2500 Du        
   4575 ****        10.5000  16.5000  37.2500 Du        
   4576 ****        10.5000  16.5000  37.5000 Du        
   4577 ****        10.5000  16.5000  37.7500 Du        
   4578 ****        10.5000  16.5000  38.0000 Du        
   4579 ****        10.5000  16.5000  38.2500 Du        
   4580 ****        10.5000  16.7500  37.2500 Du        
   4581 ****        10.5000  16.7500  37.5000 Du        
   4582 ****        10.5000  16.7500  37.7500 Du        
   4583 ****        10.5000  16.7500  38.0000 Du        
   4584 ****        10.5000  16.7500  38.2500 Du        
   4585 ****        10.5000  17.0000  37.2500 Du        
   4586 ****        10.5000  17.0000  37.5000 Du        
   4587 ****        10.5000  17.0000  37.7500 Du        
   4588 ****        10.5000  17.0000  38.0000 Du        
   4589 ****        10.5000  17.0000  38.2500 Du        
   4590 ****        10.5000  17.2500  37.2500 Du        
   4591 ****        10.5000  17.2500  37.5000 Du        
   4592 ****        10.5000  17.2500  37.7500 Du        
   4593 ****        10.5000  17.2500  38.0000 Du        
   4594 ****        10.5000  17.2500  38.2500 Du        
   4595 ****        10.5000  17.5000  37.5000 Du        
   4596 ****        10.5000  17.5000  37.7500 Du        
   4597 ****        10.5000  17.5000  38.0000 Du        
   4598 ****        10.5000  17.5000  38.2500 Du        
   4599 ****        10.5000  17.7500  37.2500 Du        
   4600 ****        10.5000  17.7500  37.7500 Du        
   4601 ****        10.5000  17.7500  38.0000 Du        
   4602 ****        10.5000  17.7500  38.2500 Du        
   4603 ****        10.5000  18.0000  38.0000 Du        
   4604 ****        10.5000  18.5000  37.2500 Du        
   4605 ****        10.5000  18.7500  37.2500 Du        
   4606 ****        10.5000  19.0000  37.2500 Du        
   4607 ****        10.7500 -18.7500  35.5000 Du        
   4608 ****        10.7500 -18.7500  35.7500 Du        
   4609 ****        10.7500 -18.7500  36.0000 Du        
   4610 ****        10.7500 -18.7500  36.2500 Du        
   4611 ****        10.7500 -18.7500  36.5000 Du        
   4612 ****        10.7500 -18.7500  36.7500 Du        
   4613 ****        10.7500 -18.7500  37.0000 Du        
   4614 ****        10.7500 -18.7500  37.2500 Du        
   4615 ****        10.7500 -18.7500  37.5000 Du        
   4616 ****        10.7500 -18.5000  35.2500 Du        
   4617 ****        10.7500 -18.5000  35.5000 Du        
   4618 ****        10.7500 -18.5000  35.7500 Du        
   4619 ****        10.7500 -18.5000  36.0000 Du        
   4620 ****        10.7500 -18.5000  36.2500 Du        
   4621 ****        10.7500 -18.5000  36.5000 Du        
   4622 ****        10.7500 -18.5000  36.7500 Du        
   4623 ****        10.7500 -18.5000  37.0000 Du        
   4624 ****        10.7500 -18.5000  37.2500 Du        
   4625 ****        10.7500 -18.5000  37.5000 Du        
   4626 ****        10.7500 -18.2500  35.0000 Du        
   4627 ****        10.7500 -18.2500  35.2500 Du        
   4628 ****        10.7500 -18.2500  35.5000 Du        
   4629 ****        10.7500 -18.2500  35.7500 Du        
   4630 ****        10.7500 -18.2500  36.0000 Du        
   4631 ****        10.7500 -18.2500  36.2500 Du        
   4632 ****        10.7500 -18.2500  38.0000 Du        
   4633 ****        10.7500 -18.0000  34.7500 Du        
   4634 ****        10.7500 -18.0000  35.0000 Du        
   4635 ****        10.7500 -18.0000  35.2500 Du        
   4636 ****        10.7500 -18.0000  35.5000 Du        
   4637 ****        10.7500 -18.0000  35.7500 Du        
   4638 ****        10.7500 -18.0000  36.0000 Du        
   4639 ****        10.7500 -17.7500  34.7500 Du        
   4640 ****        10.7500 -17.7500  35.0000 Du        
   4641 ****        10.7500 -17.7500  35.2500 Du        
   4642 ****        10.7500 -17.7500  35.5000 Du        
   4643 ****        10.7500 -17.5000  34.2500 Du        
   4644 ****        10.7500 -17.5000  34.5000 Du        
   4645 ****        10.7500 -17.5000  34.7500 Du        
   4646 ****        10.7500 -17.5000  35.0000 Du        
   4647 ****        10.7500 -17.5000  35.2500 Du        
   4648 ****        10.7500 -17.2500  33.7500 Du        
   4649 ****        10.7500 -17.2500  34.0000 Du        
   4650 ****        10.7500 -17.2500  34.2500 Du        
   4651 ****        10.7500 -17.2500  34.5000 Du        
   4652 ****        10.7500 -17.2500  34.7500 Du        
   4653 ****        10.7500 -17.2500  35.0000 Du        
   4654 ****        10.7500 -17.0000  33.5000 Du        
   4655 ****        10.7500 -17.0000  33.7500 Du        
   4656 ****        10.7500 -17.0000  34.0000 Du        
   4657 ****        10.7500 -17.0000  34.2500 Du        
   4658 ****        10.7500 -17.0000  34.5000 Du        
   4659 ****        10.7500 -17.0000  34.7500 Du        
   4660 ****        10.7500 -16.7500  33.0000 Du        
   4661 ****        10.7500 -16.7500  33.2500 Du        
   4662 ****        10.7500 -16.7500  33.5000 Du        
   4663 ****        10.7500 -16.7500  33.7500 Du        
   4664 ****        10.7500 -16.7500  34.0000 Du        
   4665 ****        10.7500 -16.7500  34.2500 Du        
   4666 ****        10.7500 -16.5000  32.7500 Du        
   4667 ****        10.7500 -16.5000  33.0000 Du        
   4668 ****        10.7500 -16.5000  33.2500 Du        
   4669 ****        10.7500 -16.5000  33.5000 Du        
   4670 ****        10.7500 -16.5000  33.7500 Du        
   4671 ****        10.7500 -16.5000  34.0000 Du        
   4672 ****        10.7500 -16.2500  32.5000 Du        
   4673 ****        10.7500 -16.2500  32.7500 Du        
   4674 ****        10.7500 -16.2500  33.0000 Du        
   4675 ****        10.7500 -16.2500  33.2500 Du        
   4676 ****        10.7500 -16.2500  33.5000 Du        
   4677 ****        10.7500 -16.2500  33.7500 Du        
   4678 ****        10.7500 -16.0000  32.5000 Du        
   4679 ****        10.7500 -16.0000  32.7500 Du        
   4680 ****        10.7500 -16.0000  33.0000 Du        
   4681 ****        10.7500 -16.0000  33.2500 Du        
   4682 ****        10.7500 -16.0000  33.5000 Du        
   4683 ****        10.7500 -15.7500  32.5000 Du        
   4684 ****        10.7500 -15.7500  32.7500 Du        
   4685 ****        10.7500 -15.7500  33.0000 Du        
   4686 ****        10.7500 -13.5000  31.2500 Du        
   4687 ****        10.7500 -13.5000  31.5000 Du        
   4688 ****        10.7500 -13.5000  31.7500 Du        
   4689 ****        10.7500 -13.2500  30.7500 Du        
   4690 ****        10.7500 -13.2500  31.0000 Du        
   4691 ****        10.7500 -13.2500  31.2500 Du        
   4692 ****        10.7500 -13.2500  31.5000 Du        
   4693 ****        10.7500 -13.2500  31.7500 Du        
   4694 ****        10.7500 -13.2500  32.0000 Du        
   4695 ****        10.7500 -13.0000  30.2500 Du        
   4696 ****        10.7500 -13.0000  30.5000 Du        
   4697 ****        10.7500 -13.0000  30.7500 Du        
   4698 ****        10.7500 -13.0000  31.0000 Du        
   4699 ****        10.7500 -13.0000  31.2500 Du        
   4700 ****        10.7500 -13.0000  31.5000 Du        
   4701 ****        10.7500 -13.0000  31.7500 Du        
   4702 ****        10.7500 -13.0000  32.0000 Du        
   4703 ****        10.7500 -12.7500  30.0000 Du        
   4704 ****        10.7500 -12.7500  30.2500 Du        
   4705 ****        10.7500 -12.7500  30.5000 Du        
   4706 ****        10.7500 -12.7500  30.7500 Du        
   4707 ****        10.7500 -12.7500  31.0000 Du        
   4708 ****        10.7500 -12.7500  31.2500 Du        
   4709 ****        10.7500 -12.7500  31.5000 Du        
   4710 ****        10.7500 -12.7500  31.7500 Du        
   4711 ****        10.7500 -12.7500  32.0000 Du        
   4712 ****        10.7500 -12.5000  29.7500 Du        
   4713 ****        10.7500 -12.5000  30.0000 Du        
   4714 ****        10.7500 -12.5000  30.2500 Du        
   4715 ****        10.7500 -12.5000  30.5000 Du        
   4716 ****        10.7500 -12.5000  30.7500 Du        
   4717 ****        10.7500 -12.5000  31.0000 Du        
   4718 ****        10.7500 -12.5000  31.2500 Du        
   4719 ****        10.7500 -12.5000  31.5000 Du        
   4720 ****        10.7500 -12.5000  31.7500 Du        
   4721 ****        10.7500 -12.5000  32.0000 Du        
   4722 ****        10.7500 -12.2500  29.7500 Du        
   4723 ****        10.7500 -12.2500  30.0000 Du        
   4724 ****        10.7500 -12.2500  30.2500 Du        
   4725 ****        10.7500 -12.2500  30.5000 Du        
   4726 ****        10.7500 -12.2500  30.7500 Du        
   4727 ****        10.7500 -12.2500  31.0000 Du        
   4728 ****        10.7500 -12.2500  31.2500 Du        
   4729 ****        10.7500 -12.2500  31.5000 Du        
   4730 ****        10.7500 -12.2500  31.7500 Du        
   4731 ****        10.7500 -12.2500  32.0000 Du        
   4732 ****        10.7500 -12.0000  29.5000 Du        
   4733 ****        10.7500 -12.0000  29.7500 Du        
   4734 ****        10.7500 -12.0000  30.0000 Du        
   4735 ****        10.7500 -12.0000  30.2500 Du        
   4736 ****        10.7500 -12.0000  30.5000 Du        
   4737 ****        10.7500 -12.0000  30.7500 Du        
   4738 ****        10.7500 -12.0000  31.0000 Du        
   4739 ****        10.7500 -12.0000  31.2500 Du        
   4740 ****        10.7500 -12.0000  31.5000 Du        
   4741 ****        10.7500 -12.0000  31.7500 Du        
   4742 ****        10.7500 -12.0000  32.0000 Du        
   4743 ****        10.7500 -11.7500  29.5000 Du        
   4744 ****        10.7500 -11.7500  29.7500 Du        
   4745 ****        10.7500 -11.7500  30.0000 Du        
   4746 ****        10.7500 -11.7500  30.2500 Du        
   4747 ****        10.7500 -11.7500  30.5000 Du        
   4748 ****        10.7500 -11.7500  30.7500 Du        
   4749 ****        10.7500 -11.7500  31.0000 Du        
   4750 ****        10.7500 -11.7500  31.2500 Du        
   4751 ****        10.7500 -11.7500  31.5000 Du        
   4752 ****        10.7500 -11.7500  31.7500 Du        
   4753 ****        10.7500 -11.7500  32.0000 Du        
   4754 ****        10.7500 -11.5000  29.5000 Du        
   4755 ****        10.7500 -11.5000  29.7500 Du        
   4756 ****        10.7500 -11.5000  30.0000 Du        
   4757 ****        10.7500 -11.5000  30.2500 Du        
   4758 ****        10.7500 -11.5000  30.5000 Du        
   4759 ****        10.7500 -11.5000  30.7500 Du        
   4760 ****        10.7500 -11.5000  31.0000 Du        
   4761 ****        10.7500 -11.5000  31.2500 Du        
   4762 ****        10.7500 -11.5000  31.5000 Du        
   4763 ****        10.7500 -11.5000  31.7500 Du        
   4764 ****        10.7500 -11.5000  32.0000 Du        
   4765 ****        10.7500 -11.2500  29.5000 Du        
   4766 ****        10.7500 -11.2500  29.7500 Du        
   4767 ****        10.7500 -11.2500  30.0000 Du        
   4768 ****        10.7500 -11.2500  30.2500 Du        
   4769 ****        10.7500 -11.2500  30.5000 Du        
   4770 ****        10.7500 -11.2500  30.7500 Du        
   4771 ****        10.7500 -11.2500  31.0000 Du        
   4772 ****        10.7500 -11.0000  30.0000 Du        
   4773 ****        10.7500  -9.5000  33.2500 Du        
   4774 ****        10.7500  -9.5000  33.5000 Du        
   4775 ****        10.7500  -9.5000  33.7500 Du        
   4776 ****        10.7500  -9.5000  34.0000 Du        
   4777 ****        10.7500  -9.2500  33.2500 Du        
   4778 ****        10.7500  -9.2500  33.5000 Du        
   4779 ****        10.7500  -9.2500  33.7500 Du        
   4780 ****        10.7500  -9.2500  34.0000 Du        
   4781 ****        10.7500  -9.2500  34.2500 Du        
   4782 ****        10.7500  -9.2500  34.5000 Du        
   4783 ****        10.7500  -9.2500  34.7500 Du        
   4784 ****        10.7500  -9.0000  33.0000 Du        
   4785 ****        10.7500  -9.0000  33.2500 Du        
   4786 ****        10.7500  -9.0000  33.5000 Du        
   4787 ****        10.7500  -9.0000  33.7500 Du        
   4788 ****        10.7500  -9.0000  34.0000 Du        
   4789 ****        10.7500  -9.0000  34.2500 Du        
   4790 ****        10.7500  -9.0000  34.5000 Du        
   4791 ****        10.7500  -9.0000  34.7500 Du        
   4792 ****        10.7500  -9.0000  35.0000 Du        
   4793 ****        10.7500  -8.7500  33.0000 Du        
   4794 ****        10.7500  -8.7500  33.2500 Du        
   4795 ****        10.7500  -8.7500  33.5000 Du        
   4796 ****        10.7500  -8.7500  33.7500 Du        
   4797 ****        10.7500  -8.7500  34.0000 Du        
   4798 ****        10.7500  -8.7500  34.2500 Du        
   4799 ****        10.7500  -8.7500  34.5000 Du        
   4800 ****        10.7500  -8.7500  34.7500 Du        
   4801 ****        10.7500  -8.7500  35.0000 Du        
   4802 ****        10.7500  -8.7500  35.2500 Du        
   4803 ****        10.7500  -8.5000  33.0000 Du        
   4804 ****        10.7500  -8.5000  33.2500 Du        
   4805 ****        10.7500  -8.5000  33.5000 Du        
   4806 ****        10.7500  -8.5000  33.7500 Du        
   4807 ****        10.7500  -8.5000  34.0000 Du        
   4808 ****        10.7500  -8.5000  34.2500 Du        
   4809 ****        10.7500  -8.5000  34.5000 Du        
   4810 ****        10.7500  -8.5000  34.7500 Du        
   4811 ****        10.7500  -8.5000  35.0000 Du        
   4812 ****        10.7500  -8.2500  33.0000 Du        
   4813 ****        10.7500  -8.2500  33.2500 Du        
   4814 ****        10.7500  -8.2500  33.5000 Du        
   4815 ****        10.7500  -8.2500  33.7500 Du        
   4816 ****        10.7500  -8.2500  34.0000 Du        
   4817 ****        10.7500  -8.2500  34.2500 Du        
   4818 ****        10.7500  -8.2500  34.5000 Du        
   4819 ****        10.7500  -8.2500  34.7500 Du        
   4820 ****        10.7500  -8.0000  32.7500 Du        
   4821 ****        10.7500  -8.0000  33.0000 Du        
   4822 ****        10.7500  -8.0000  33.2500 Du        
   4823 ****        10.7500  -8.0000  33.5000 Du        
   4824 ****        10.7500  -8.0000  33.7500 Du        
   4825 ****        10.7500  -8.0000  34.0000 Du        
   4826 ****        10.7500  -8.0000  34.2500 Du        
   4827 ****        10.7500  -8.0000  34.5000 Du        
   4828 ****        10.7500  -7.7500  32.7500 Du        
   4829 ****        10.7500  -7.7500  33.0000 Du        
   4830 ****        10.7500  -7.7500  33.2500 Du        
   4831 ****        10.7500  -7.7500  33.5000 Du        
   4832 ****        10.7500  -7.7500  33.7500 Du        
   4833 ****        10.7500  -7.7500  34.0000 Du        
   4834 ****        10.7500  -7.7500  34.2500 Du        
   4835 ****        10.7500  -7.5000  32.7500 Du        
   4836 ****        10.7500  -7.5000  33.0000 Du        
   4837 ****        10.7500  -7.5000  33.2500 Du        
   4838 ****        10.7500  -7.5000  33.5000 Du        
   4839 ****        10.7500  -7.5000  33.7500 Du        
   4840 ****        10.7500  -7.5000  34.0000 Du        
   4841 ****        10.7500  -7.5000  34.2500 Du        
   4842 ****        10.7500  -7.2500  32.7500 Du        
   4843 ****        10.7500  -7.2500  33.0000 Du        
   4844 ****        10.7500  -7.2500  33.2500 Du        
   4845 ****        10.7500  -7.2500  33.5000 Du        
   4846 ****        10.7500  -7.2500  33.7500 Du        
   4847 ****        10.7500  -7.2500  34.0000 Du        
   4848 ****        10.7500  -7.0000  33.0000 Du        
   4849 ****        10.7500  -7.0000  33.2500 Du        
   4850 ****        10.7500  -7.0000  33.5000 Du        
   4851 ****        10.7500  -7.0000  33.7500 Du        
   4852 ****        10.7500  -7.0000  34.0000 Du        
   4853 ****        10.7500  -4.0000  25.7500 Du        
   4854 ****        10.7500  -3.7500  25.5000 Du        
   4855 ****        10.7500  -3.7500  25.7500 Du        
   4856 ****        10.7500  -3.7500  26.0000 Du        
   4857 ****        10.7500  -3.5000  25.2500 Du        
   4858 ****        10.7500  -3.5000  25.5000 Du        
   4859 ****        10.7500  -3.5000  25.7500 Du        
   4860 ****        10.7500  -3.5000  26.0000 Du        
   4861 ****        10.7500  -3.2500  25.2500 Du        
   4862 ****        10.7500  -3.2500  25.5000 Du        
   4863 ****        10.7500  -3.2500  25.7500 Du        
   4864 ****        10.7500  -3.2500  26.0000 Du        
   4865 ****        10.7500  -3.2500  26.2500 Du        
   4866 ****        10.7500  -3.0000  25.2500 Du        
   4867 ****        10.7500  -3.0000  25.5000 Du        
   4868 ****        10.7500  -3.0000  25.7500 Du        
   4869 ****        10.7500  -3.0000  26.0000 Du        
   4870 ****        10.7500  -2.7500  25.5000 Du        
   4871 ****        10.7500  -2.7500  25.7500 Du        
   4872 ****        10.7500  -2.7500  26.0000 Du        
   4873 ****        10.7500   7.2500  25.2500 Du        
   4874 ****        10.7500   7.2500  25.5000 Du        
   4875 ****        10.7500   7.5000  25.5000 Du        
   4876 ****        10.7500  15.7500  37.5000 Du        
   4877 ****        10.7500  15.7500  37.7500 Du        
   4878 ****        10.7500  16.0000  37.2500 Du        
   4879 ****        10.7500  16.0000  37.5000 Du        
   4880 ****        10.7500  16.0000  37.7500 Du        
   4881 ****        10.7500  16.0000  38.0000 Du        
   4882 ****        10.7500  16.2500  37.0000 Du        
   4883 ****        10.7500  16.2500  37.2500 Du        
   4884 ****        10.7500  16.2500  37.5000 Du        
   4885 ****        10.7500  16.2500  37.7500 Du        
   4886 ****        10.7500  16.2500  38.0000 Du        
   4887 ****        10.7500  16.2500  38.2500 Du        
   4888 ****        10.7500  16.5000  37.0000 Du        
   4889 ****        10.7500  16.5000  37.2500 Du        
   4890 ****        10.7500  16.5000  37.5000 Du        
   4891 ****        10.7500  16.5000  37.7500 Du        
   4892 ****        10.7500  16.5000  38.0000 Du        
   4893 ****        10.7500  16.5000  38.2500 Du        
   4894 ****        10.7500  16.7500  37.2500 Du        
   4895 ****        10.7500  16.7500  37.5000 Du        
   4896 ****        10.7500  16.7500  37.7500 Du        
   4897 ****        10.7500  16.7500  38.0000 Du        
   4898 ****        10.7500  16.7500  38.2500 Du        
   4899 ****        10.7500  17.0000  37.2500 Du        
   4900 ****        10.7500  17.0000  37.5000 Du        
   4901 ****        10.7500  17.0000  37.7500 Du        
   4902 ****        10.7500  17.0000  38.0000 Du        
   4903 ****        10.7500  17.0000  38.2500 Du        
   4904 ****        10.7500  17.2500  37.2500 Du        
   4905 ****        10.7500  17.2500  37.5000 Du        
   4906 ****        10.7500  17.2500  37.7500 Du        
   4907 ****        10.7500  17.2500  38.0000 Du        
   4908 ****        10.7500  17.2500  38.2500 Du        
   4909 ****        10.7500  17.5000  37.2500 Du        
   4910 ****        10.7500  17.5000  37.5000 Du        
   4911 ****        10.7500  17.5000  37.7500 Du        
   4912 ****        10.7500  17.5000  38.0000 Du        
   4913 ****        10.7500  17.5000  38.2500 Du        
   4914 ****        10.7500  17.7500  37.2500 Du        
   4915 ****        10.7500  17.7500  37.5000 Du        
   4916 ****        10.7500  17.7500  37.7500 Du        
   4917 ****        10.7500  17.7500  38.0000 Du        
   4918 ****        10.7500  17.7500  38.2500 Du        
   4919 ****        10.7500  18.0000  37.2500 Du        
   4920 ****        10.7500  18.0000  38.0000 Du        
   4921 ****        10.7500  18.2500  37.2500 Du        
   4922 ****        10.7500  18.5000  37.2500 Du        
   4923 ****        10.7500  18.7500  37.0000 Du        
   4924 ****        10.7500  18.7500  37.2500 Du        
   4925 ****        10.7500  19.0000  37.0000 Du        
   4926 ****        10.7500  19.0000  37.2500 Du        
   4927 ****        10.7500  19.2500  37.2500 Du        
   4928 ****        11.0000 -18.7500  35.7500 Du        
   4929 ****        11.0000 -18.7500  36.0000 Du        
   4930 ****        11.0000 -18.7500  36.2500 Du        
   4931 ****        11.0000 -18.7500  36.5000 Du        
   4932 ****        11.0000 -18.7500  36.7500 Du        
   4933 ****        11.0000 -18.7500  37.0000 Du        
   4934 ****        11.0000 -18.7500  37.2500 Du        
   4935 ****        11.0000 -18.7500  37.5000 Du        
   4936 ****        11.0000 -18.7500  37.7500 Du        
   4937 ****        11.0000 -18.7500  38.0000 Du        
   4938 ****        11.0000 -18.5000  35.5000 Du        
   4939 ****        11.0000 -18.5000  35.7500 Du        
   4940 ****        11.0000 -18.5000  36.0000 Du        
   4941 ****        11.0000 -18.5000  36.2500 Du        
   4942 ****        11.0000 -18.5000  36.5000 Du        
   4943 ****        11.0000 -18.5000  36.7500 Du        
   4944 ****        11.0000 -18.5000  37.0000 Du        
   4945 ****        11.0000 -18.5000  38.0000 Du        
   4946 ****        11.0000 -18.2500  35.2500 Du        
   4947 ****        11.0000 -18.2500  35.5000 Du        
   4948 ****        11.0000 -18.2500  35.7500 Du        
   4949 ****        11.0000 -18.2500  36.0000 Du        
   4950 ****        11.0000 -18.2500  36.2500 Du        
   4951 ****        11.0000 -18.0000  35.0000 Du        
   4952 ****        11.0000 -18.0000  35.2500 Du        
   4953 ****        11.0000 -18.0000  35.5000 Du        
   4954 ****        11.0000 -18.0000  35.7500 Du        
   4955 ****        11.0000 -17.7500  34.7500 Du        
   4956 ****        11.0000 -17.7500  35.0000 Du        
   4957 ****        11.0000 -17.7500  35.2500 Du        
   4958 ****        11.0000 -17.7500  35.5000 Du        
   4959 ****        11.0000 -17.5000  34.5000 Du        
   4960 ****        11.0000 -17.5000  34.7500 Du        
   4961 ****        11.0000 -17.5000  35.0000 Du        
   4962 ****        11.0000 -17.5000  35.2500 Du        
   4963 ****        11.0000 -17.2500  34.2500 Du        
   4964 ****        11.0000 -17.2500  34.5000 Du        
   4965 ****        11.0000 -17.2500  34.7500 Du        
   4966 ****        11.0000 -17.2500  35.0000 Du        
   4967 ****        11.0000 -17.2500  35.2500 Du        
   4968 ****        11.0000 -17.0000  33.7500 Du        
   4969 ****        11.0000 -17.0000  34.0000 Du        
   4970 ****        11.0000 -17.0000  34.2500 Du        
   4971 ****        11.0000 -17.0000  34.5000 Du        
   4972 ****        11.0000 -17.0000  34.7500 Du        
   4973 ****        11.0000 -17.0000  35.0000 Du        
   4974 ****        11.0000 -16.7500  33.0000 Du        
   4975 ****        11.0000 -16.7500  33.2500 Du        
   4976 ****        11.0000 -16.7500  33.5000 Du        
   4977 ****        11.0000 -16.7500  33.7500 Du        
   4978 ****        11.0000 -16.7500  34.0000 Du        
   4979 ****        11.0000 -16.7500  34.2500 Du        
   4980 ****        11.0000 -16.7500  34.5000 Du        
   4981 ****        11.0000 -16.7500  34.7500 Du        
   4982 ****        11.0000 -16.5000  32.7500 Du        
   4983 ****        11.0000 -16.5000  33.0000 Du        
   4984 ****        11.0000 -16.5000  33.2500 Du        
   4985 ****        11.0000 -16.5000  33.5000 Du        
   4986 ****        11.0000 -16.5000  33.7500 Du        
   4987 ****        11.0000 -16.5000  34.0000 Du        
   4988 ****        11.0000 -16.5000  34.2500 Du        
   4989 ****        11.0000 -16.5000  34.5000 Du        
   4990 ****        11.0000 -16.2500  32.5000 Du        
   4991 ****        11.0000 -16.2500  32.7500 Du        
   4992 ****        11.0000 -16.2500  33.0000 Du        
   4993 ****        11.0000 -16.2500  33.2500 Du        
   4994 ****        11.0000 -16.2500  33.5000 Du        
   4995 ****        11.0000 -16.2500  33.7500 Du        
   4996 ****        11.0000 -16.2500  34.0000 Du        
   4997 ****        11.0000 -16.2500  34.2500 Du        
   4998 ****        11.0000 -16.0000  32.2500 Du        
   4999 ****        11.0000 -16.0000  32.5000 Du        
   5000 ****        11.0000 -16.0000  32.7500 Du        
   5001 ****        11.0000 -16.0000  33.0000 Du        
   5002 ****        11.0000 -16.0000  33.2500 Du        
   5003 ****        11.0000 -16.0000  33.5000 Du        
   5004 ****        11.0000 -16.0000  33.7500 Du        
   5005 ****        11.0000 -16.0000  34.0000 Du        
   5006 ****        11.0000 -15.7500  32.2500 Du        
   5007 ****        11.0000 -15.7500  32.5000 Du        
   5008 ****        11.0000 -15.7500  32.7500 Du        
   5009 ****        11.0000 -15.7500  33.0000 Du        
   5010 ****        11.0000 -15.7500  33.2500 Du        
   5011 ****        11.0000 -15.7500  33.5000 Du        
   5012 ****        11.0000 -15.5000  32.2500 Du        
   5013 ****        11.0000 -15.5000  32.5000 Du        
   5014 ****        11.0000 -15.5000  32.7500 Du        
   5015 ****        11.0000 -15.5000  33.0000 Du        
   5016 ****        11.0000 -15.5000  33.2500 Du        
   5017 ****        11.0000 -15.2500  32.2500 Du        
   5018 ****        11.0000 -15.2500  32.5000 Du        
   5019 ****        11.0000 -15.2500  32.7500 Du        
   5020 ****        11.0000 -15.0000  32.2500 Du        
   5021 ****        11.0000 -15.0000  32.5000 Du        
   5022 ****        11.0000 -14.7500  32.2500 Du        
   5023 ****        11.0000 -14.5000  32.0000 Du        
   5024 ****        11.0000 -14.2500  32.0000 Du        
   5025 ****        11.0000 -14.0000  31.7500 Du        
   5026 ****        11.0000 -14.0000  32.0000 Du        
   5027 ****        11.0000 -13.7500  31.2500 Du        
   5028 ****        11.0000 -13.7500  31.5000 Du        
   5029 ****        11.0000 -13.7500  31.7500 Du        
   5030 ****        11.0000 -13.7500  32.0000 Du        
   5031 ****        11.0000 -13.5000  31.0000 Du        
   5032 ****        11.0000 -13.5000  31.2500 Du        
   5033 ****        11.0000 -13.5000  31.5000 Du        
   5034 ****        11.0000 -13.5000  31.7500 Du        
   5035 ****        11.0000 -13.5000  32.0000 Du        
   5036 ****        11.0000 -13.5000  32.2500 Du        
   5037 ****        11.0000 -13.2500  30.5000 Du        
   5038 ****        11.0000 -13.2500  30.7500 Du        
   5039 ****        11.0000 -13.2500  31.0000 Du        
   5040 ****        11.0000 -13.2500  31.2500 Du        
   5041 ****        11.0000 -13.2500  31.5000 Du        
   5042 ****        11.0000 -13.2500  31.7500 Du        
   5043 ****        11.0000 -13.2500  32.0000 Du        
   5044 ****        11.0000 -13.2500  32.2500 Du        
   5045 ****        11.0000 -13.0000  30.2500 Du        
   5046 ****        11.0000 -13.0000  30.5000 Du        
   5047 ****        11.0000 -13.0000  30.7500 Du        
   5048 ****        11.0000 -13.0000  31.0000 Du        
   5049 ****        11.0000 -13.0000  31.2500 Du        
   5050 ****        11.0000 -13.0000  31.5000 Du        
   5051 ****        11.0000 -13.0000  31.7500 Du        
   5052 ****        11.0000 -13.0000  32.0000 Du        
   5053 ****        11.0000 -13.0000  32.2500 Du        
   5054 ****        11.0000 -12.7500  30.0000 Du        
   5055 ****        11.0000 -12.7500  30.2500 Du        
   5056 ****        11.0000 -12.7500  30.5000 Du        
   5057 ****        11.0000 -12.7500  30.7500 Du        
   5058 ****        11.0000 -12.7500  31.0000 Du        
   5059 ****        11.0000 -12.7500  31.2500 Du        
   5060 ****        11.0000 -12.7500  31.5000 Du        
   5061 ****        11.0000 -12.7500  31.7500 Du        
   5062 ****        11.0000 -12.7500  32.0000 Du        
   5063 ****        11.0000 -12.7500  32.2500 Du        
   5064 ****        11.0000 -12.5000  29.7500 Du        
   5065 ****        11.0000 -12.5000  30.0000 Du        
   5066 ****        11.0000 -12.5000  30.2500 Du        
   5067 ****        11.0000 -12.5000  30.5000 Du        
   5068 ****        11.0000 -12.5000  30.7500 Du        
   5069 ****        11.0000 -12.5000  31.0000 Du        
   5070 ****        11.0000 -12.5000  31.2500 Du        
   5071 ****        11.0000 -12.5000  31.5000 Du        
   5072 ****        11.0000 -12.5000  31.7500 Du        
   5073 ****        11.0000 -12.5000  32.0000 Du        
   5074 ****        11.0000 -12.5000  32.2500 Du        
   5075 ****        11.0000 -12.2500  29.5000 Du        
   5076 ****        11.0000 -12.2500  29.7500 Du        
   5077 ****        11.0000 -12.2500  30.0000 Du        
   5078 ****        11.0000 -12.2500  30.2500 Du        
   5079 ****        11.0000 -12.2500  30.5000 Du        
   5080 ****        11.0000 -12.2500  30.7500 Du        
   5081 ****        11.0000 -12.2500  31.0000 Du        
   5082 ****        11.0000 -12.2500  31.2500 Du        
   5083 ****        11.0000 -12.2500  31.5000 Du        
   5084 ****        11.0000 -12.2500  31.7500 Du        
   5085 ****        11.0000 -12.2500  32.0000 Du        
   5086 ****        11.0000 -12.2500  32.2500 Du        
   5087 ****        11.0000 -12.0000  29.5000 Du        
   5088 ****        11.0000 -12.0000  29.7500 Du        
   5089 ****        11.0000 -12.0000  30.0000 Du        
   5090 ****        11.0000 -12.0000  30.2500 Du        
   5091 ****        11.0000 -12.0000  30.5000 Du        
   5092 ****        11.0000 -12.0000  30.7500 Du        
   5093 ****        11.0000 -12.0000  31.0000 Du        
   5094 ****        11.0000 -12.0000  31.2500 Du        
   5095 ****        11.0000 -12.0000  31.5000 Du        
   5096 ****        11.0000 -12.0000  31.7500 Du        
   5097 ****        11.0000 -12.0000  32.0000 Du        
   5098 ****        11.0000 -12.0000  32.2500 Du        
   5099 ****        11.0000 -11.7500  29.5000 Du        
   5100 ****        11.0000 -11.7500  29.7500 Du        
   5101 ****        11.0000 -11.7500  30.0000 Du        
   5102 ****        11.0000 -11.7500  30.2500 Du        
   5103 ****        11.0000 -11.7500  30.5000 Du        
   5104 ****        11.0000 -11.7500  30.7500 Du        
   5105 ****        11.0000 -11.7500  31.0000 Du        
   5106 ****        11.0000 -11.7500  31.2500 Du        
   5107 ****        11.0000 -11.7500  31.5000 Du        
   5108 ****        11.0000 -11.7500  31.7500 Du        
   5109 ****        11.0000 -11.7500  32.0000 Du        
   5110 ****        11.0000 -11.5000  29.5000 Du        
   5111 ****        11.0000 -11.5000  29.7500 Du        
   5112 ****        11.0000 -11.5000  30.0000 Du        
   5113 ****        11.0000 -11.5000  30.2500 Du        
   5114 ****        11.0000 -11.5000  30.5000 Du        
   5115 ****        11.0000 -11.5000  30.7500 Du        
   5116 ****        11.0000 -11.5000  31.0000 Du        
   5117 ****        11.0000 -11.5000  31.2500 Du        
   5118 ****        11.0000 -11.5000  31.5000 Du        
   5119 ****        11.0000 -11.5000  31.7500 Du        
   5120 ****        11.0000 -11.5000  32.0000 Du        
   5121 ****        11.0000 -11.2500  29.5000 Du        
   5122 ****        11.0000 -11.2500  29.7500 Du        
   5123 ****        11.0000 -11.2500  30.0000 Du        
   5124 ****        11.0000 -11.2500  30.2500 Du        
   5125 ****        11.0000 -11.2500  30.5000 Du        
   5126 ****        11.0000 -11.2500  30.7500 Du        
   5127 ****        11.0000 -11.2500  31.0000 Du        
   5128 ****        11.0000 -11.2500  31.2500 Du        
   5129 ****        11.0000 -11.2500  31.5000 Du        
   5130 ****        11.0000 -11.2500  31.7500 Du        
   5131 ****        11.0000 -11.2500  32.0000 Du        
   5132 ****        11.0000 -11.0000  29.5000 Du        
   5133 ****        11.0000 -11.0000  29.7500 Du        
   5134 ****        11.0000 -11.0000  30.0000 Du        
   5135 ****        11.0000 -11.0000  30.2500 Du        
   5136 ****        11.0000 -11.0000  30.5000 Du        
   5137 ****        11.0000 -11.0000  30.7500 Du        
   5138 ****        11.0000 -11.0000  31.0000 Du        
   5139 ****        11.0000 -11.0000  31.7500 Du        
   5140 ****        11.0000 -11.0000  32.0000 Du        
   5141 ****        11.0000  -9.7500  33.0000 Du        
   5142 ****        11.0000  -9.7500  33.2500 Du        
   5143 ****        11.0000  -9.5000  33.0000 Du        
   5144 ****        11.0000  -9.5000  33.2500 Du        
   5145 ****        11.0000  -9.5000  33.5000 Du        
   5146 ****        11.0000  -9.5000  33.7500 Du        
   5147 ****        11.0000  -9.5000  34.0000 Du        
   5148 ****        11.0000  -9.5000  34.2500 Du        
   5149 ****        11.0000  -9.5000  34.5000 Du        
   5150 ****        11.0000  -9.2500  32.7500 Du        
   5151 ****        11.0000  -9.2500  33.0000 Du        
   5152 ****        11.0000  -9.2500  33.2500 Du        
   5153 ****        11.0000  -9.2500  33.5000 Du        
   5154 ****        11.0000  -9.2500  33.7500 Du        
   5155 ****        11.0000  -9.2500  34.0000 Du        
   5156 ****        11.0000  -9.2500  34.2500 Du        
   5157 ****        11.0000  -9.2500  34.5000 Du        
   5158 ****        11.0000  -9.2500  34.7500 Du        
   5159 ****        11.0000  -9.2500  35.0000 Du        
   5160 ****        11.0000  -9.0000  32.7500 Du        
   5161 ****        11.0000  -9.0000  33.0000 Du        
   5162 ****        11.0000  -9.0000  33.2500 Du        
   5163 ****        11.0000  -9.0000  33.5000 Du        
   5164 ****        11.0000  -9.0000  33.7500 Du        
   5165 ****        11.0000  -9.0000  34.0000 Du        
   5166 ****        11.0000  -9.0000  34.2500 Du        
   5167 ****        11.0000  -9.0000  34.5000 Du        
   5168 ****        11.0000  -9.0000  34.7500 Du        
   5169 ****        11.0000  -9.0000  35.0000 Du        
   5170 ****        11.0000  -9.0000  35.2500 Du        
   5171 ****        11.0000  -8.7500  32.7500 Du        
   5172 ****        11.0000  -8.7500  33.0000 Du        
   5173 ****        11.0000  -8.7500  33.2500 Du        
   5174 ****        11.0000  -8.7500  33.5000 Du        
   5175 ****        11.0000  -8.7500  33.7500 Du        
   5176 ****        11.0000  -8.7500  34.0000 Du        
   5177 ****        11.0000  -8.7500  34.2500 Du        
   5178 ****        11.0000  -8.7500  34.5000 Du        
   5179 ****        11.0000  -8.7500  34.7500 Du        
   5180 ****        11.0000  -8.7500  35.0000 Du        
   5181 ****        11.0000  -8.7500  35.2500 Du        
   5182 ****        11.0000  -8.5000  32.7500 Du        
   5183 ****        11.0000  -8.5000  33.0000 Du        
   5184 ****        11.0000  -8.5000  33.2500 Du        
   5185 ****        11.0000  -8.5000  33.5000 Du        
   5186 ****        11.0000  -8.5000  33.7500 Du        
   5187 ****        11.0000  -8.5000  34.0000 Du        
   5188 ****        11.0000  -8.5000  34.2500 Du        
   5189 ****        11.0000  -8.5000  34.5000 Du        
   5190 ****        11.0000  -8.5000  34.7500 Du        
   5191 ****        11.0000  -8.5000  35.0000 Du        
   5192 ****        11.0000  -8.2500  32.5000 Du        
   5193 ****        11.0000  -8.2500  32.7500 Du        
   5194 ****        11.0000  -8.2500  33.0000 Du        
   5195 ****        11.0000  -8.2500  33.2500 Du        
   5196 ****        11.0000  -8.2500  33.5000 Du        
   5197 ****        11.0000  -8.2500  33.7500 Du        
   5198 ****        11.0000  -8.2500  34.0000 Du        
   5199 ****        11.0000  -8.2500  34.2500 Du        
   5200 ****        11.0000  -8.2500  34.5000 Du        
   5201 ****        11.0000  -8.0000  32.5000 Du        
   5202 ****        11.0000  -8.0000  32.7500 Du        
   5203 ****        11.0000  -8.0000  33.0000 Du        
   5204 ****        11.0000  -8.0000  33.2500 Du        
   5205 ****        11.0000  -8.0000  33.5000 Du        
   5206 ****        11.0000  -8.0000  33.7500 Du        
   5207 ****        11.0000  -8.0000  34.0000 Du        
   5208 ****        11.0000  -8.0000  34.2500 Du        
   5209 ****        11.0000  -7.7500  32.5000 Du        
   5210 ****        11.0000  -7.7500  32.7500 Du        
   5211 ****        11.0000  -7.7500  33.0000 Du        
   5212 ****        11.0000  -7.7500  33.2500 Du        
   5213 ****        11.0000  -7.7500  33.5000 Du        
   5214 ****        11.0000  -7.7500  33.7500 Du        
   5215 ****        11.0000  -7.7500  34.0000 Du        
   5216 ****        11.0000  -7.7500  34.2500 Du        
   5217 ****        11.0000  -7.5000  32.5000 Du        
   5218 ****        11.0000  -7.5000  32.7500 Du        
   5219 ****        11.0000  -7.5000  33.0000 Du        
   5220 ****        11.0000  -7.5000  33.2500 Du        
   5221 ****        11.0000  -7.5000  33.5000 Du        
   5222 ****        11.0000  -7.5000  33.7500 Du        
   5223 ****        11.0000  -7.5000  34.0000 Du        
   5224 ****        11.0000  -7.2500  32.5000 Du        
   5225 ****        11.0000  -7.2500  32.7500 Du        
   5226 ****        11.0000  -7.2500  33.0000 Du        
   5227 ****        11.0000  -7.2500  33.2500 Du        
   5228 ****        11.0000  -7.2500  33.5000 Du        
   5229 ****        11.0000  -7.2500  33.7500 Du        
   5230 ****        11.0000  -7.2500  34.0000 Du        
   5231 ****        11.0000  -7.0000  32.7500 Du        
   5232 ****        11.0000  -7.0000  33.0000 Du        
   5233 ****        11.0000  -7.0000  33.2500 Du        
   5234 ****        11.0000  -7.0000  33.5000 Du        
   5235 ****        11.0000  -7.0000  33.7500 Du        
   5236 ****        11.0000  -4.0000  25.7500 Du        
   5237 ****        11.0000  -4.0000  26.0000 Du        
   5238 ****        11.0000  -3.7500  25.5000 Du        
   5239 ****        11.0000  -3.7500  25.7500 Du        
   5240 ****        11.0000  -3.7500  26.0000 Du        
   5241 ****        11.0000  -3.5000  25.2500 Du        
   5242 ****        11.0000  -3.5000  25.5000 Du        
   5243 ****        11.0000  -3.5000  25.7500 Du        
   5244 ****        11.0000  -3.5000  26.0000 Du        
   5245 ****        11.0000  -3.2500  25.0000 Du        
   5246 ****        11.0000  -3.2500  25.2500 Du        
   5247 ****        11.0000  -3.2500  25.5000 Du        
   5248 ****        11.0000  -3.2500  25.7500 Du        
   5249 ****        11.0000  -3.2500  26.0000 Du        
   5250 ****        11.0000  -3.0000  25.0000 Du        
   5251 ****        11.0000  -3.0000  25.2500 Du        
   5252 ****        11.0000  -3.0000  25.5000 Du        
   5253 ****        11.0000  -3.0000  25.7500 Du        
   5254 ****        11.0000  -3.0000  26.0000 Du        
   5255 ****        11.0000  -2.7500  25.5000 Du        
   5256 ****        11.0000  -2.7500  25.7500 Du        
   5257 ****        11.0000   7.2500  25.2500 Du        
   5258 ****        11.0000   7.2500  25.5000 Du        
   5259 ****        11.0000   7.5000  25.2500 Du        
   5260 ****        11.0000   7.5000  25.5000 Du        
   5261 ****        11.0000   7.5000  25.7500 Du        
   5262 ****        11.0000  15.7500  37.5000 Du        
   5263 ****        11.0000  16.0000  37.2500 Du        
   5264 ****        11.0000  16.0000  37.5000 Du        
   5265 ****        11.0000  16.0000  37.7500 Du        
   5266 ****        11.0000  16.2500  37.0000 Du        
   5267 ****        11.0000  16.2500  37.2500 Du        
   5268 ****        11.0000  16.2500  37.5000 Du        
   5269 ****        11.0000  16.2500  37.7500 Du        
   5270 ****        11.0000  16.2500  38.0000 Du        
   5271 ****        11.0000  16.5000  37.0000 Du        
   5272 ****        11.0000  16.5000  37.2500 Du        
   5273 ****        11.0000  16.5000  37.5000 Du        
   5274 ****        11.0000  16.5000  37.7500 Du        
   5275 ****        11.0000  16.5000  38.0000 Du        
   5276 ****        11.0000  16.5000  38.2500 Du        
   5277 ****        11.0000  16.7500  37.0000 Du        
   5278 ****        11.0000  16.7500  37.2500 Du        
   5279 ****        11.0000  16.7500  37.5000 Du        
   5280 ****        11.0000  16.7500  37.7500 Du        
   5281 ****        11.0000  16.7500  38.0000 Du        
   5282 ****        11.0000  16.7500  38.2500 Du        
   5283 ****        11.0000  17.0000  37.0000 Du        
   5284 ****        11.0000  17.0000  37.2500 Du        
   5285 ****        11.0000  17.0000  37.5000 Du        
   5286 ****        11.0000  17.0000  37.7500 Du        
   5287 ****        11.0000  17.0000  38.0000 Du        
   5288 ****        11.0000  17.0000  38.2500 Du        
   5289 ****        11.0000  17.2500  37.0000 Du        
   5290 ****        11.0000  17.2500  37.2500 Du        
   5291 ****        11.0000  17.2500  37.5000 Du        
   5292 ****        11.0000  17.2500  37.7500 Du        
   5293 ****        11.0000  17.2500  38.0000 Du        
   5294 ****        11.0000  17.2500  38.2500 Du        
   5295 ****        11.0000  17.5000  37.2500 Du        
   5296 ****        11.0000  17.5000  37.5000 Du        
   5297 ****        11.0000  17.5000  37.7500 Du        
   5298 ****        11.0000  17.5000  38.0000 Du        
   5299 ****        11.0000  17.5000  38.2500 Du        
   5300 ****        11.0000  17.7500  37.2500 Du        
   5301 ****        11.0000  17.7500  37.5000 Du        
   5302 ****        11.0000  17.7500  37.7500 Du        
   5303 ****        11.0000  17.7500  38.0000 Du        
   5304 ****        11.0000  17.7500  38.2500 Du        
   5305 ****        11.0000  18.0000  37.0000 Du        
   5306 ****        11.0000  18.0000  37.2500 Du        
   5307 ****        11.0000  18.0000  37.7500 Du        
   5308 ****        11.0000  18.0000  38.0000 Du        
   5309 ****        11.0000  18.2500  37.0000 Du        
   5310 ****        11.0000  18.2500  37.2500 Du        
   5311 ****        11.0000  18.5000  37.0000 Du        
   5312 ****        11.0000  18.5000  37.2500 Du        
   5313 ****        11.0000  18.7500  37.0000 Du        
   5314 ****        11.0000  18.7500  37.2500 Du        
   5315 ****        11.0000  19.0000  37.0000 Du        
   5316 ****        11.0000  19.0000  37.2500 Du        
   5317 ****        11.0000  19.2500  37.2500 Du        
   5318 ****        11.2500 -18.7500  35.7500 Du        
   5319 ****        11.2500 -18.7500  36.0000 Du        
   5320 ****        11.2500 -18.7500  36.2500 Du        
   5321 ****        11.2500 -18.7500  36.5000 Du        
   5322 ****        11.2500 -18.7500  36.7500 Du        
   5323 ****        11.2500 -18.5000  35.7500 Du        
   5324 ****        11.2500 -18.5000  36.0000 Du        
   5325 ****        11.2500 -18.5000  36.2500 Du        
   5326 ****        11.2500 -18.2500  35.5000 Du        
   5327 ****        11.2500 -18.2500  35.7500 Du        
   5328 ****        11.2500 -18.0000  35.2500 Du        
   5329 ****        11.2500 -18.0000  35.5000 Du        
   5330 ****        11.2500 -17.7500  35.0000 Du        
   5331 ****        11.2500 -17.7500  35.2500 Du        
   5332 ****        11.2500 -17.5000  34.7500 Du        
   5333 ****        11.2500 -17.5000  35.0000 Du        
   5334 ****        11.2500 -17.5000  35.2500 Du        
   5335 ****        11.2500 -17.2500  34.5000 Du        
   5336 ****        11.2500 -17.2500  34.7500 Du        
   5337 ****        11.2500 -17.2500  35.0000 Du        
   5338 ****        11.2500 -17.0000  34.0000 Du        
   5339 ****        11.2500 -17.0000  34.2500 Du        
   5340 ****        11.2500 -17.0000  34.5000 Du        
   5341 ****        11.2500 -17.0000  34.7500 Du        
   5342 ****        11.2500 -17.0000  35.0000 Du        
   5343 ****        11.2500 -16.7500  33.5000 Du        
   5344 ****        11.2500 -16.7500  33.7500 Du        
   5345 ****        11.2500 -16.7500  34.0000 Du        
   5346 ****        11.2500 -16.7500  34.2500 Du        
   5347 ****        11.2500 -16.7500  34.5000 Du        
   5348 ****        11.2500 -16.7500  34.7500 Du        
   5349 ****        11.2500 -16.7500  35.0000 Du        
   5350 ****        11.2500 -16.5000  32.7500 Du        
   5351 ****        11.2500 -16.5000  33.0000 Du        
   5352 ****        11.2500 -16.5000  33.2500 Du        
   5353 ****        11.2500 -16.5000  33.5000 Du        
   5354 ****        11.2500 -16.5000  33.7500 Du        
   5355 ****        11.2500 -16.5000  34.0000 Du        
   5356 ****        11.2500 -16.5000  34.2500 Du        
   5357 ****        11.2500 -16.5000  34.5000 Du        
   5358 ****        11.2500 -16.5000  34.7500 Du        
   5359 ****        11.2500 -16.2500  32.2500 Du        
   5360 ****        11.2500 -16.2500  32.5000 Du        
   5361 ****        11.2500 -16.2500  32.7500 Du        
   5362 ****        11.2500 -16.2500  33.0000 Du        
   5363 ****        11.2500 -16.2500  33.2500 Du        
   5364 ****        11.2500 -16.2500  33.5000 Du        
   5365 ****        11.2500 -16.2500  33.7500 Du        
   5366 ****        11.2500 -16.2500  34.0000 Du        
   5367 ****        11.2500 -16.2500  34.2500 Du        
   5368 ****        11.2500 -16.2500  34.5000 Du        
   5369 ****        11.2500 -16.0000  32.2500 Du        
   5370 ****        11.2500 -16.0000  32.5000 Du        
   5371 ****        11.2500 -16.0000  32.7500 Du        
   5372 ****        11.2500 -16.0000  33.0000 Du        
   5373 ****        11.2500 -16.0000  33.2500 Du        
   5374 ****        11.2500 -16.0000  33.5000 Du        
   5375 ****        11.2500 -16.0000  33.7500 Du        
   5376 ****        11.2500 -16.0000  34.0000 Du        
   5377 ****        11.2500 -16.0000  34.2500 Du        
   5378 ****        11.2500 -15.7500  32.2500 Du        
   5379 ****        11.2500 -15.7500  32.5000 Du        
   5380 ****        11.2500 -15.7500  32.7500 Du        
   5381 ****        11.2500 -15.7500  33.0000 Du        
   5382 ****        11.2500 -15.7500  33.2500 Du        
   5383 ****        11.2500 -15.7500  33.5000 Du        
   5384 ****        11.2500 -15.7500  33.7500 Du        
   5385 ****        11.2500 -15.7500  34.0000 Du        
   5386 ****        11.2500 -15.5000  32.2500 Du        
   5387 ****        11.2500 -15.5000  32.5000 Du        
   5388 ****        11.2500 -15.5000  32.7500 Du        
   5389 ****        11.2500 -15.5000  33.0000 Du        
   5390 ****        11.2500 -15.5000  33.2500 Du        
   5391 ****        11.2500 -15.5000  33.5000 Du        
   5392 ****        11.2500 -15.2500  32.0000 Du        
   5393 ****        11.2500 -15.2500  32.2500 Du        
   5394 ****        11.2500 -15.2500  32.5000 Du        
   5395 ****        11.2500 -15.2500  32.7500 Du        
   5396 ****        11.2500 -15.2500  33.0000 Du        
   5397 ****        11.2500 -15.2500  33.2500 Du        
   5398 ****        11.2500 -15.0000  32.0000 Du        
   5399 ****        11.2500 -15.0000  32.2500 Du        
   5400 ****        11.2500 -15.0000  32.5000 Du        
   5401 ****        11.2500 -15.0000  32.7500 Du        
   5402 ****        11.2500 -15.0000  33.0000 Du        
   5403 ****        11.2500 -14.7500  32.0000 Du        
   5404 ****        11.2500 -14.7500  32.2500 Du        
   5405 ****        11.2500 -14.7500  32.5000 Du        
   5406 ****        11.2500 -14.7500  32.7500 Du        
   5407 ****        11.2500 -14.7500  33.0000 Du        
   5408 ****        11.2500 -14.5000  31.7500 Du        
   5409 ****        11.2500 -14.5000  32.0000 Du        
   5410 ****        11.2500 -14.5000  32.2500 Du        
   5411 ****        11.2500 -14.5000  32.5000 Du        
   5412 ****        11.2500 -14.5000  32.7500 Du        
   5413 ****        11.2500 -14.2500  31.5000 Du        
   5414 ****        11.2500 -14.2500  31.7500 Du        
   5415 ****        11.2500 -14.2500  32.0000 Du        
   5416 ****        11.2500 -14.2500  32.2500 Du        
   5417 ****        11.2500 -14.2500  32.5000 Du        
   5418 ****        11.2500 -14.0000  31.2500 Du        
   5419 ****        11.2500 -14.0000  31.5000 Du        
   5420 ****        11.2500 -14.0000  31.7500 Du        
   5421 ****        11.2500 -14.0000  32.0000 Du        
   5422 ****        11.2500 -14.0000  32.2500 Du        
   5423 ****        11.2500 -14.0000  32.5000 Du        
   5424 ****        11.2500 -13.7500  31.0000 Du        
   5425 ****        11.2500 -13.7500  31.2500 Du        
   5426 ****        11.2500 -13.7500  31.5000 Du        
   5427 ****        11.2500 -13.7500  31.7500 Du        
   5428 ****        11.2500 -13.7500  32.0000 Du        
   5429 ****        11.2500 -13.7500  32.2500 Du        
   5430 ****        11.2500 -13.7500  32.5000 Du        
   5431 ****        11.2500 -13.5000  30.7500 Du        
   5432 ****        11.2500 -13.5000  31.0000 Du        
   5433 ****        11.2500 -13.5000  31.2500 Du        
   5434 ****        11.2500 -13.5000  31.5000 Du        
   5435 ****        11.2500 -13.5000  31.7500 Du        
   5436 ****        11.2500 -13.5000  32.0000 Du        
   5437 ****        11.2500 -13.5000  32.2500 Du        
   5438 ****        11.2500 -13.2500  30.5000 Du        
   5439 ****        11.2500 -13.2500  30.7500 Du        
   5440 ****        11.2500 -13.2500  31.0000 Du        
   5441 ****        11.2500 -13.2500  31.2500 Du        
   5442 ****        11.2500 -13.2500  31.5000 Du        
   5443 ****        11.2500 -13.2500  31.7500 Du        
   5444 ****        11.2500 -13.2500  32.0000 Du        
   5445 ****        11.2500 -13.2500  32.2500 Du        
   5446 ****        11.2500 -13.0000  30.2500 Du        
   5447 ****        11.2500 -13.0000  30.5000 Du        
   5448 ****        11.2500 -13.0000  30.7500 Du        
   5449 ****        11.2500 -13.0000  31.0000 Du        
   5450 ****        11.2500 -13.0000  31.2500 Du        
   5451 ****        11.2500 -13.0000  31.5000 Du        
   5452 ****        11.2500 -13.0000  31.7500 Du        
   5453 ****        11.2500 -13.0000  32.0000 Du        
   5454 ****        11.2500 -13.0000  32.2500 Du        
   5455 ****        11.2500 -12.7500  30.0000 Du        
   5456 ****        11.2500 -12.7500  30.2500 Du        
   5457 ****        11.2500 -12.7500  30.5000 Du        
   5458 ****        11.2500 -12.7500  30.7500 Du        
   5459 ****        11.2500 -12.7500  31.0000 Du        
   5460 ****        11.2500 -12.7500  31.2500 Du        
   5461 ****        11.2500 -12.7500  31.5000 Du        
   5462 ****        11.2500 -12.7500  31.7500 Du        
   5463 ****        11.2500 -12.7500  32.0000 Du        
   5464 ****        11.2500 -12.7500  32.2500 Du        
   5465 ****        11.2500 -12.5000  29.7500 Du        
   5466 ****        11.2500 -12.5000  30.0000 Du        
   5467 ****        11.2500 -12.5000  30.2500 Du        
   5468 ****        11.2500 -12.5000  30.5000 Du        
   5469 ****        11.2500 -12.5000  30.7500 Du        
   5470 ****        11.2500 -12.5000  31.0000 Du        
   5471 ****        11.2500 -12.5000  31.2500 Du        
   5472 ****        11.2500 -12.5000  31.5000 Du        
   5473 ****        11.2500 -12.5000  31.7500 Du        
   5474 ****        11.2500 -12.5000  32.0000 Du        
   5475 ****        11.2500 -12.5000  32.2500 Du        
   5476 ****        11.2500 -12.2500  29.5000 Du        
   5477 ****        11.2500 -12.2500  29.7500 Du        
   5478 ****        11.2500 -12.2500  30.0000 Du        
   5479 ****        11.2500 -12.2500  30.2500 Du        
   5480 ****        11.2500 -12.2500  30.5000 Du        
   5481 ****        11.2500 -12.2500  30.7500 Du        
   5482 ****        11.2500 -12.2500  31.0000 Du        
   5483 ****        11.2500 -12.2500  31.2500 Du        
   5484 ****        11.2500 -12.2500  31.5000 Du        
   5485 ****        11.2500 -12.2500  31.7500 Du        
   5486 ****        11.2500 -12.2500  32.0000 Du        
   5487 ****        11.2500 -12.2500  32.2500 Du        
   5488 ****        11.2500 -12.0000  29.5000 Du        
   5489 ****        11.2500 -12.0000  29.7500 Du        
   5490 ****        11.2500 -12.0000  30.0000 Du        
   5491 ****        11.2500 -12.0000  30.2500 Du        
   5492 ****        11.2500 -12.0000  30.5000 Du        
   5493 ****        11.2500 -12.0000  30.7500 Du        
   5494 ****        11.2500 -12.0000  31.0000 Du        
   5495 ****        11.2500 -12.0000  31.2500 Du        
   5496 ****        11.2500 -12.0000  31.5000 Du        
   5497 ****        11.2500 -12.0000  31.7500 Du        
   5498 ****        11.2500 -12.0000  32.0000 Du        
   5499 ****        11.2500 -12.0000  32.2500 Du        
   5500 ****        11.2500 -11.7500  29.2500 Du        
   5501 ****        11.2500 -11.7500  29.5000 Du        
   5502 ****        11.2500 -11.7500  29.7500 Du        
   5503 ****        11.2500 -11.7500  30.0000 Du        
   5504 ****        11.2500 -11.7500  30.2500 Du        
   5505 ****        11.2500 -11.7500  30.5000 Du        
   5506 ****        11.2500 -11.7500  30.7500 Du        
   5507 ****        11.2500 -11.7500  31.0000 Du        
   5508 ****        11.2500 -11.7500  31.2500 Du        
   5509 ****        11.2500 -11.7500  31.5000 Du        
   5510 ****        11.2500 -11.7500  31.7500 Du        
   5511 ****        11.2500 -11.7500  32.0000 Du        
   5512 ****        11.2500 -11.7500  32.2500 Du        
   5513 ****        11.2500 -11.5000  29.2500 Du        
   5514 ****        11.2500 -11.5000  29.5000 Du        
   5515 ****        11.2500 -11.5000  29.7500 Du        
   5516 ****        11.2500 -11.5000  30.0000 Du        
   5517 ****        11.2500 -11.5000  30.2500 Du        
   5518 ****        11.2500 -11.5000  30.5000 Du        
   5519 ****        11.2500 -11.5000  30.7500 Du        
   5520 ****        11.2500 -11.5000  31.0000 Du        
   5521 ****        11.2500 -11.5000  31.2500 Du        
   5522 ****        11.2500 -11.5000  31.5000 Du        
   5523 ****        11.2500 -11.5000  31.7500 Du        
   5524 ****        11.2500 -11.5000  32.0000 Du        
   5525 ****        11.2500 -11.5000  32.2500 Du        
   5526 ****        11.2500 -11.2500  29.2500 Du        
   5527 ****        11.2500 -11.2500  29.5000 Du        
   5528 ****        11.2500 -11.2500  29.7500 Du        
   5529 ****        11.2500 -11.2500  30.0000 Du        
   5530 ****        11.2500 -11.2500  30.2500 Du        
   5531 ****        11.2500 -11.2500  30.5000 Du        
   5532 ****        11.2500 -11.2500  30.7500 Du        
   5533 ****        11.2500 -11.2500  31.0000 Du        
   5534 ****        11.2500 -11.2500  31.2500 Du        
   5535 ****        11.2500 -11.2500  31.5000 Du        
   5536 ****        11.2500 -11.2500  31.7500 Du        
   5537 ****        11.2500 -11.2500  32.0000 Du        
   5538 ****        11.2500 -11.0000  29.2500 Du        
   5539 ****        11.2500 -11.0000  29.5000 Du        
   5540 ****        11.2500 -11.0000  29.7500 Du        
   5541 ****        11.2500 -11.0000  30.0000 Du        
   5542 ****        11.2500 -11.0000  30.2500 Du        
   5543 ****        11.2500 -11.0000  30.5000 Du        
   5544 ****        11.2500 -11.0000  30.7500 Du        
   5545 ****        11.2500 -11.0000  31.0000 Du        
   5546 ****        11.2500 -11.0000  31.2500 Du        
   5547 ****        11.2500 -11.0000  31.5000 Du        
   5548 ****        11.2500 -10.7500  29.5000 Du        
   5549 ****        11.2500 -10.7500  29.7500 Du        
   5550 ****        11.2500 -10.7500  30.0000 Du        
   5551 ****        11.2500 -10.7500  30.2500 Du        
   5552 ****        11.2500 -10.7500  30.5000 Du        
   5553 ****        11.2500 -10.0000  32.7500 Du        
   5554 ****        11.2500 -10.0000  33.0000 Du        
   5555 ****        11.2500  -9.7500  32.7500 Du        
   5556 ****        11.2500  -9.7500  33.0000 Du        
   5557 ****        11.2500  -9.7500  33.2500 Du        
   5558 ****        11.2500  -9.7500  33.5000 Du        
   5559 ****        11.2500  -9.5000  32.5000 Du        
   5560 ****        11.2500  -9.5000  32.7500 Du        
   5561 ****        11.2500  -9.5000  33.0000 Du        
   5562 ****        11.2500  -9.5000  33.2500 Du        
   5563 ****        11.2500  -9.5000  33.5000 Du        
   5564 ****        11.2500  -9.5000  33.7500 Du        
   5565 ****        11.2500  -9.5000  34.0000 Du        
   5566 ****        11.2500  -9.5000  34.2500 Du        
   5567 ****        11.2500  -9.5000  34.5000 Du        
   5568 ****        11.2500  -9.5000  34.7500 Du        
   5569 ****        11.2500  -9.5000  35.0000 Du        
   5570 ****        11.2500  -9.2500  32.5000 Du        
   5571 ****        11.2500  -9.2500  32.7500 Du        
   5572 ****        11.2500  -9.2500  33.0000 Du        
   5573 ****        11.2500  -9.2500  33.2500 Du        
   5574 ****        11.2500  -9.2500  33.5000 Du        
   5575 ****        11.2500  -9.2500  33.7500 Du        
   5576 ****        11.2500  -9.2500  34.0000 Du        
   5577 ****        11.2500  -9.2500  34.2500 Du        
   5578 ****        11.2500  -9.2500  34.5000 Du        
   5579 ****        11.2500  -9.2500  34.7500 Du        
   5580 ****        11.2500  -9.2500  35.0000 Du        
   5581 ****        11.2500  -9.2500  35.2500 Du        
   5582 ****        11.2500  -9.0000  32.5000 Du        
   5583 ****        11.2500  -9.0000  32.7500 Du        
   5584 ****        11.2500  -9.0000  33.0000 Du        
   5585 ****        11.2500  -9.0000  33.2500 Du        
   5586 ****        11.2500  -9.0000  33.5000 Du        
   5587 ****        11.2500  -9.0000  33.7500 Du        
   5588 ****        11.2500  -9.0000  34.0000 Du        
   5589 ****        11.2500  -9.0000  34.2500 Du        
   5590 ****        11.2500  -9.0000  34.5000 Du        
   5591 ****        11.2500  -9.0000  34.7500 Du        
   5592 ****        11.2500  -9.0000  35.0000 Du        
   5593 ****        11.2500  -9.0000  35.2500 Du        
   5594 ****        11.2500  -8.7500  32.2500 Du        
   5595 ****        11.2500  -8.7500  32.5000 Du        
   5596 ****        11.2500  -8.7500  32.7500 Du        
   5597 ****        11.2500  -8.7500  33.0000 Du        
   5598 ****        11.2500  -8.7500  33.2500 Du        
   5599 ****        11.2500  -8.7500  33.5000 Du        
   5600 ****        11.2500  -8.7500  33.7500 Du        
   5601 ****        11.2500  -8.7500  34.0000 Du        
   5602 ****        11.2500  -8.7500  34.2500 Du        
   5603 ****        11.2500  -8.7500  34.5000 Du        
   5604 ****        11.2500  -8.7500  34.7500 Du        
   5605 ****        11.2500  -8.7500  35.0000 Du        
   5606 ****        11.2500  -8.5000  32.0000 Du        
   5607 ****        11.2500  -8.5000  32.2500 Du        
   5608 ****        11.2500  -8.5000  32.5000 Du        
   5609 ****        11.2500  -8.5000  32.7500 Du        
   5610 ****        11.2500  -8.5000  33.0000 Du        
   5611 ****        11.2500  -8.5000  33.2500 Du        
   5612 ****        11.2500  -8.5000  33.5000 Du        
   5613 ****        11.2500  -8.5000  33.7500 Du        
   5614 ****        11.2500  -8.5000  34.0000 Du        
   5615 ****        11.2500  -8.5000  34.2500 Du        
   5616 ****        11.2500  -8.5000  34.5000 Du        
   5617 ****        11.2500  -8.5000  34.7500 Du        
   5618 ****        11.2500  -8.2500  32.0000 Du        
   5619 ****        11.2500  -8.2500  32.2500 Du        
   5620 ****        11.2500  -8.2500  32.5000 Du        
   5621 ****        11.2500  -8.2500  32.7500 Du        
   5622 ****        11.2500  -8.2500  33.0000 Du        
   5623 ****        11.2500  -8.2500  33.2500 Du        
   5624 ****        11.2500  -8.2500  33.5000 Du        
   5625 ****        11.2500  -8.2500  33.7500 Du        
   5626 ****        11.2500  -8.2500  34.0000 Du        
   5627 ****        11.2500  -8.2500  34.2500 Du        
   5628 ****        11.2500  -8.2500  34.5000 Du        
   5629 ****        11.2500  -8.0000  32.0000 Du        
   5630 ****        11.2500  -8.0000  32.2500 Du        
   5631 ****        11.2500  -8.0000  32.5000 Du        
   5632 ****        11.2500  -8.0000  32.7500 Du        
   5633 ****        11.2500  -8.0000  33.0000 Du        
   5634 ****        11.2500  -8.0000  33.2500 Du        
   5635 ****        11.2500  -8.0000  33.5000 Du        
   5636 ****        11.2500  -8.0000  33.7500 Du        
   5637 ****        11.2500  -8.0000  34.0000 Du        
   5638 ****        11.2500  -8.0000  34.2500 Du        
   5639 ****        11.2500  -7.7500  32.0000 Du        
   5640 ****        11.2500  -7.7500  32.2500 Du        
   5641 ****        11.2500  -7.7500  32.5000 Du        
   5642 ****        11.2500  -7.7500  32.7500 Du        
   5643 ****        11.2500  -7.7500  33.0000 Du        
   5644 ****        11.2500  -7.7500  33.2500 Du        
   5645 ****        11.2500  -7.7500  33.5000 Du        
   5646 ****        11.2500  -7.7500  33.7500 Du        
   5647 ****        11.2500  -7.7500  34.0000 Du        
   5648 ****        11.2500  -7.5000  32.0000 Du        
   5649 ****        11.2500  -7.5000  32.2500 Du        
   5650 ****        11.2500  -7.5000  32.5000 Du        
   5651 ****        11.2500  -7.5000  32.7500 Du        
   5652 ****        11.2500  -7.5000  33.0000 Du        
   5653 ****        11.2500  -7.5000  33.2500 Du        
   5654 ****        11.2500  -7.5000  33.5000 Du        
   5655 ****        11.2500  -7.5000  33.7500 Du        
   5656 ****        11.2500  -7.5000  34.0000 Du        
   5657 ****        11.2500  -7.2500  32.2500 Du        
   5658 ****        11.2500  -7.2500  32.5000 Du        
   5659 ****        11.2500  -7.2500  32.7500 Du        
   5660 ****        11.2500  -7.2500  33.0000 Du        
   5661 ****        11.2500  -7.2500  33.2500 Du        
   5662 ****        11.2500  -7.2500  33.5000 Du        
   5663 ****        11.2500  -7.2500  33.7500 Du        
   5664 ****        11.2500  -7.0000  32.5000 Du        
   5665 ****        11.2500  -7.0000  32.7500 Du        
   5666 ****        11.2500  -7.0000  33.0000 Du        
   5667 ****        11.2500  -7.0000  33.2500 Du        
   5668 ****        11.2500  -7.0000  33.5000 Du        
   5669 ****        11.2500  -7.0000  33.7500 Du        
   5670 ****        11.2500  -6.7500  33.0000 Du        
   5671 ****        11.2500  -6.7500  33.2500 Du        
   5672 ****        11.2500  -4.0000  25.5000 Du        
   5673 ****        11.2500  -4.0000  25.7500 Du        
   5674 ****        11.2500  -4.0000  26.0000 Du        
   5675 ****        11.2500  -3.7500  25.5000 Du        
   5676 ****        11.2500  -3.7500  25.7500 Du        
   5677 ****        11.2500  -3.7500  26.0000 Du        
   5678 ****        11.2500  -3.5000  25.0000 Du        
   5679 ****        11.2500  -3.5000  25.2500 Du        
   5680 ****        11.2500  -3.5000  25.5000 Du        
   5681 ****        11.2500  -3.5000  25.7500 Du        
   5682 ****        11.2500  -3.5000  26.0000 Du        
   5683 ****        11.2500  -3.2500  25.0000 Du        
   5684 ****        11.2500  -3.2500  25.2500 Du        
   5685 ****        11.2500  -3.2500  25.5000 Du        
   5686 ****        11.2500  -3.2500  25.7500 Du        
   5687 ****        11.2500  -3.2500  26.0000 Du        
   5688 ****        11.2500  -3.0000  25.0000 Du        
   5689 ****        11.2500  -3.0000  25.2500 Du        
   5690 ****        11.2500  -3.0000  25.5000 Du        
   5691 ****        11.2500  -3.0000  25.7500 Du        
   5692 ****        11.2500  -3.0000  26.0000 Du        
   5693 ****        11.2500  -2.7500  25.5000 Du        
   5694 ****        11.2500   7.2500  25.2500 Du        
   5695 ****        11.2500   7.2500  25.5000 Du        
   5696 ****        11.2500   7.5000  25.2500 Du        
   5697 ****        11.2500   7.5000  25.5000 Du        
   5698 ****        11.2500   7.5000  25.7500 Du        
   5699 ****        11.2500   7.7500  25.5000 Du        
   5700 ****        11.2500   7.7500  25.7500 Du        
   5701 ****        11.2500  16.0000  37.2500 Du        
   5702 ****        11.2500  16.0000  37.5000 Du        
   5703 ****        11.2500  16.0000  37.7500 Du        
   5704 ****        11.2500  16.2500  37.2500 Du        
   5705 ****        11.2500  16.2500  37.5000 Du        
   5706 ****        11.2500  16.2500  37.7500 Du        
   5707 ****        11.2500  16.2500  38.0000 Du        
   5708 ****        11.2500  16.5000  37.2500 Du        
   5709 ****        11.2500  16.5000  37.5000 Du        
   5710 ****        11.2500  16.5000  37.7500 Du        
   5711 ****        11.2500  16.5000  38.0000 Du        
   5712 ****        11.2500  16.5000  38.2500 Du        
   5713 ****        11.2500  16.7500  37.0000 Du        
   5714 ****        11.2500  16.7500  37.2500 Du        
   5715 ****        11.2500  16.7500  37.5000 Du        
   5716 ****        11.2500  16.7500  37.7500 Du        
   5717 ****        11.2500  16.7500  38.0000 Du        
   5718 ****        11.2500  16.7500  38.2500 Du        
   5719 ****        11.2500  17.0000  37.2500 Du        
   5720 ****        11.2500  17.0000  37.5000 Du        
   5721 ****        11.2500  17.0000  37.7500 Du        
   5722 ****        11.2500  17.0000  38.0000 Du        
   5723 ****        11.2500  17.0000  38.2500 Du        
   5724 ****        11.2500  17.2500  37.2500 Du        
   5725 ****        11.2500  17.2500  37.5000 Du        
   5726 ****        11.2500  17.2500  37.7500 Du        
   5727 ****        11.2500  17.2500  38.0000 Du        
   5728 ****        11.2500  17.2500  38.2500 Du        
   5729 ****        11.2500  17.5000  37.2500 Du        
   5730 ****        11.2500  17.5000  37.5000 Du        
   5731 ****        11.2500  17.5000  37.7500 Du        
   5732 ****        11.2500  17.5000  38.0000 Du        
   5733 ****        11.2500  17.7500  37.2500 Du        
   5734 ****        11.2500  17.7500  37.5000 Du        
   5735 ****        11.2500  17.7500  37.7500 Du        
   5736 ****        11.2500  17.7500  38.0000 Du        
   5737 ****        11.2500  18.0000  37.0000 Du        
   5738 ****        11.2500  18.0000  37.2500 Du        
   5739 ****        11.2500  18.0000  37.7500 Du        
   5740 ****        11.2500  18.2500  37.0000 Du        
   5741 ****        11.2500  18.2500  37.2500 Du        
   5742 ****        11.2500  18.5000  37.0000 Du        
   5743 ****        11.2500  18.5000  37.2500 Du        
   5744 ****        11.2500  18.7500  36.7500 Du        
   5745 ****        11.2500  18.7500  37.0000 Du        
   5746 ****        11.2500  18.7500  37.2500 Du        
   5747 ****        11.2500  19.0000  36.7500 Du        
   5748 ****        11.2500  19.0000  37.0000 Du        
   5749 ****        11.2500  19.0000  37.2500 Du        
   5750 ****        11.2500  19.2500  37.0000 Du        
   5751 ****        11.2500  19.2500  37.2500 Du        
   5752 ****        11.5000 -17.0000  34.2500 Du        
   5753 ****        11.5000 -17.0000  34.5000 Du        
   5754 ****        11.5000 -17.0000  34.7500 Du        
   5755 ****        11.5000 -16.7500  33.7500 Du        
   5756 ****        11.5000 -16.7500  34.0000 Du        
   5757 ****        11.5000 -16.7500  34.2500 Du        
   5758 ****        11.5000 -16.7500  34.5000 Du        
   5759 ****        11.5000 -16.7500  34.7500 Du        
   5760 ****        11.5000 -16.5000  32.7500 Du        
   5761 ****        11.5000 -16.5000  33.0000 Du        
   5762 ****        11.5000 -16.5000  33.2500 Du        
   5763 ****        11.5000 -16.5000  33.5000 Du        
   5764 ****        11.5000 -16.5000  33.7500 Du        
   5765 ****        11.5000 -16.5000  34.0000 Du        
   5766 ****        11.5000 -16.5000  34.2500 Du        
   5767 ****        11.5000 -16.5000  34.5000 Du        
   5768 ****        11.5000 -16.5000  34.7500 Du        
   5769 ****        11.5000 -16.2500  32.2500 Du        
   5770 ****        11.5000 -16.2500  32.5000 Du        
   5771 ****        11.5000 -16.2500  32.7500 Du        
   5772 ****        11.5000 -16.2500  33.0000 Du        
   5773 ****        11.5000 -16.2500  33.2500 Du        
   5774 ****        11.5000 -16.2500  33.5000 Du        
   5775 ****        11.5000 -16.2500  33.7500 Du        
   5776 ****        11.5000 -16.2500  34.0000 Du        
   5777 ****        11.5000 -16.2500  34.2500 Du        
   5778 ****        11.5000 -16.2500  34.5000 Du        
   5779 ****        11.5000 -16.2500  34.7500 Du        
   5780 ****        11.5000 -16.0000  32.0000 Du        
   5781 ****        11.5000 -16.0000  32.2500 Du        
   5782 ****        11.5000 -16.0000  32.5000 Du        
   5783 ****        11.5000 -16.0000  32.7500 Du        
   5784 ****        11.5000 -16.0000  33.0000 Du        
   5785 ****        11.5000 -16.0000  33.2500 Du        
   5786 ****        11.5000 -16.0000  33.5000 Du        
   5787 ****        11.5000 -16.0000  33.7500 Du        
   5788 ****        11.5000 -16.0000  34.0000 Du        
   5789 ****        11.5000 -16.0000  34.2500 Du        
   5790 ****        11.5000 -16.0000  34.5000 Du        
   5791 ****        11.5000 -15.7500  32.0000 Du        
   5792 ****        11.5000 -15.7500  32.2500 Du        
   5793 ****        11.5000 -15.7500  32.5000 Du        
   5794 ****        11.5000 -15.7500  32.7500 Du        
   5795 ****        11.5000 -15.7500  33.0000 Du        
   5796 ****        11.5000 -15.7500  33.2500 Du        
   5797 ****        11.5000 -15.7500  33.5000 Du        
   5798 ****        11.5000 -15.7500  33.7500 Du        
   5799 ****        11.5000 -15.7500  34.0000 Du        
   5800 ****        11.5000 -15.7500  34.2500 Du        
   5801 ****        11.5000 -15.5000  32.0000 Du        
   5802 ****        11.5000 -15.5000  32.2500 Du        
   5803 ****        11.5000 -15.5000  32.5000 Du        
   5804 ****        11.5000 -15.5000  32.7500 Du        
   5805 ****        11.5000 -15.5000  33.0000 Du        
   5806 ****        11.5000 -15.5000  33.2500 Du        
   5807 ****        11.5000 -15.5000  33.5000 Du        
   5808 ****        11.5000 -15.5000  33.7500 Du        
   5809 ****        11.5000 -15.5000  34.0000 Du        
   5810 ****        11.5000 -15.2500  32.0000 Du        
   5811 ****        11.5000 -15.2500  32.2500 Du        
   5812 ****        11.5000 -15.2500  32.5000 Du        
   5813 ****        11.5000 -15.2500  32.7500 Du        
   5814 ****        11.5000 -15.2500  33.0000 Du        
   5815 ****        11.5000 -15.2500  33.2500 Du        
   5816 ****        11.5000 -15.2500  33.5000 Du        
   5817 ****        11.5000 -15.2500  33.7500 Du        
   5818 ****        11.5000 -15.0000  31.7500 Du        
   5819 ****        11.5000 -15.0000  32.0000 Du        
   5820 ****        11.5000 -15.0000  32.2500 Du        
   5821 ****        11.5000 -15.0000  32.5000 Du        
   5822 ****        11.5000 -15.0000  32.7500 Du        
   5823 ****        11.5000 -15.0000  33.0000 Du        
   5824 ****        11.5000 -15.0000  33.2500 Du        
   5825 ****        11.5000 -14.7500  31.7500 Du        
   5826 ****        11.5000 -14.7500  32.0000 Du        
   5827 ****        11.5000 -14.7500  32.2500 Du        
   5828 ****        11.5000 -14.7500  32.5000 Du        
   5829 ****        11.5000 -14.7500  32.7500 Du        
   5830 ****        11.5000 -14.7500  33.0000 Du        
   5831 ****        11.5000 -14.7500  33.2500 Du        
   5832 ****        11.5000 -14.5000  31.7500 Du        
   5833 ****        11.5000 -14.5000  32.0000 Du        
   5834 ****        11.5000 -14.5000  32.2500 Du        
   5835 ****        11.5000 -14.5000  32.5000 Du        
   5836 ****        11.5000 -14.5000  32.7500 Du        
   5837 ****        11.5000 -14.5000  33.0000 Du        
   5838 ****        11.5000 -14.2500  31.5000 Du        
   5839 ****        11.5000 -14.2500  31.7500 Du        
   5840 ****        11.5000 -14.2500  32.0000 Du        
   5841 ****        11.5000 -14.2500  32.2500 Du        
   5842 ****        11.5000 -14.2500  32.5000 Du        
   5843 ****        11.5000 -14.2500  32.7500 Du        
   5844 ****        11.5000 -14.2500  33.0000 Du        
   5845 ****        11.5000 -14.0000  31.2500 Du        
   5846 ****        11.5000 -14.0000  31.5000 Du        
   5847 ****        11.5000 -14.0000  31.7500 Du        
   5848 ****        11.5000 -14.0000  32.0000 Du        
   5849 ****        11.5000 -14.0000  32.2500 Du        
   5850 ****        11.5000 -14.0000  32.5000 Du        
   5851 ****        11.5000 -14.0000  32.7500 Du        
   5852 ****        11.5000 -13.7500  31.0000 Du        
   5853 ****        11.5000 -13.7500  31.2500 Du        
   5854 ****        11.5000 -13.7500  31.5000 Du        
   5855 ****        11.5000 -13.7500  31.7500 Du        
   5856 ****        11.5000 -13.7500  32.0000 Du        
   5857 ****        11.5000 -13.7500  32.2500 Du        
   5858 ****        11.5000 -13.7500  32.5000 Du        
   5859 ****        11.5000 -13.5000  31.0000 Du        
   5860 ****        11.5000 -13.5000  31.2500 Du        
   5861 ****        11.5000 -13.2500  30.7500 Du        
   5862 ****        11.5000 -13.2500  31.0000 Du        
   5863 ****        11.5000 -13.2500  31.2500 Du        
   5864 ****        11.5000 -13.0000  30.2500 Du        
   5865 ****        11.5000 -13.0000  30.5000 Du        
   5866 ****        11.5000 -13.0000  30.7500 Du        
   5867 ****        11.5000 -13.0000  31.0000 Du        
   5868 ****        11.5000 -13.0000  31.2500 Du        
   5869 ****        11.5000 -12.7500  30.0000 Du        
   5870 ****        11.5000 -12.7500  30.2500 Du        
   5871 ****        11.5000 -12.7500  30.5000 Du        
   5872 ****        11.5000 -12.7500  30.7500 Du        
   5873 ****        11.5000 -12.7500  31.0000 Du        
   5874 ****        11.5000 -12.7500  31.2500 Du        
   5875 ****        11.5000 -12.5000  29.7500 Du        
   5876 ****        11.5000 -12.5000  30.0000 Du        
   5877 ****        11.5000 -12.5000  30.2500 Du        
   5878 ****        11.5000 -12.5000  30.5000 Du        
   5879 ****        11.5000 -12.5000  30.7500 Du        
   5880 ****        11.5000 -12.5000  31.0000 Du        
   5881 ****        11.5000 -12.5000  31.2500 Du        
   5882 ****        11.5000 -12.2500  29.7500 Du        
   5883 ****        11.5000 -12.2500  30.0000 Du        
   5884 ****        11.5000 -12.2500  30.2500 Du        
   5885 ****        11.5000 -12.2500  30.5000 Du        
   5886 ****        11.5000 -12.2500  30.7500 Du        
   5887 ****        11.5000 -12.2500  31.0000 Du        
   5888 ****        11.5000 -12.2500  31.2500 Du        
   5889 ****        11.5000 -12.0000  29.5000 Du        
   5890 ****        11.5000 -12.0000  29.7500 Du        
   5891 ****        11.5000 -12.0000  30.0000 Du        
   5892 ****        11.5000 -12.0000  30.2500 Du        
   5893 ****        11.5000 -12.0000  30.5000 Du        
   5894 ****        11.5000 -12.0000  30.7500 Du        
   5895 ****        11.5000 -12.0000  31.0000 Du        
   5896 ****        11.5000 -12.0000  31.2500 Du        
   5897 ****        11.5000 -11.7500  29.2500 Du        
   5898 ****        11.5000 -11.7500  29.5000 Du        
   5899 ****        11.5000 -11.7500  29.7500 Du        
   5900 ****        11.5000 -11.7500  30.0000 Du        
   5901 ****        11.5000 -11.7500  30.2500 Du        
   5902 ****        11.5000 -11.7500  30.5000 Du        
   5903 ****        11.5000 -11.7500  30.7500 Du        
   5904 ****        11.5000 -11.7500  31.0000 Du        
   5905 ****        11.5000 -11.7500  31.2500 Du        
   5906 ****        11.5000 -11.5000  29.7500 Du        
   5907 ****        11.5000 -11.5000  30.0000 Du        
   5908 ****        11.5000 -11.5000  30.2500 Du        
   5909 ****        11.5000 -11.5000  30.5000 Du        
   5910 ****        11.5000 -11.5000  30.7500 Du        
   5911 ****        11.5000 -11.5000  31.0000 Du        
   5912 ****        11.5000 -11.2500  29.5000 Du        
   5913 ****        11.5000 -11.2500  29.7500 Du        
   5914 ****        11.5000 -11.2500  30.0000 Du        
   5915 ****        11.5000 -11.2500  30.2500 Du        
   5916 ****        11.5000 -11.2500  30.5000 Du        
   5917 ****        11.5000 -11.2500  30.7500 Du        
   5918 ****        11.5000 -11.2500  31.0000 Du        
   5919 ****        11.5000 -11.0000  29.2500 Du        
   5920 ****        11.5000 -11.0000  29.5000 Du        
   5921 ****        11.5000 -11.0000  29.7500 Du        
   5922 ****        11.5000 -11.0000  30.0000 Du        
   5923 ****        11.5000 -11.0000  30.2500 Du        
   5924 ****        11.5000 -11.0000  30.5000 Du        
   5925 ****        11.5000 -11.0000  30.7500 Du        
   5926 ****        11.5000 -11.0000  31.0000 Du        
   5927 ****        11.5000 -11.0000  31.2500 Du        
   5928 ****        11.5000 -10.7500  30.0000 Du        
   5929 ****        11.5000 -10.0000  32.2500 Du        
   5930 ****        11.5000 -10.0000  33.0000 Du        
   5931 ****        11.5000 -10.0000  33.2500 Du        
   5932 ****        11.5000  -9.7500  32.7500 Du        
   5933 ****        11.5000  -9.7500  33.0000 Du        
   5934 ****        11.5000  -9.7500  33.2500 Du        
   5935 ****        11.5000  -9.7500  33.5000 Du        
   5936 ****        11.5000  -9.7500  33.7500 Du        
   5937 ****        11.5000  -9.7500  34.0000 Du        
   5938 ****        11.5000  -9.7500  34.2500 Du        
   5939 ****        11.5000  -9.7500  34.5000 Du        
   5940 ****        11.5000  -9.5000  32.5000 Du        
   5941 ****        11.5000  -9.5000  32.7500 Du        
   5942 ****        11.5000  -9.5000  33.0000 Du        
   5943 ****        11.5000  -9.5000  33.2500 Du        
   5944 ****        11.5000  -9.5000  33.5000 Du        
   5945 ****        11.5000  -9.5000  33.7500 Du        
   5946 ****        11.5000  -9.5000  34.0000 Du        
   5947 ****        11.5000  -9.5000  34.2500 Du        
   5948 ****        11.5000  -9.5000  34.5000 Du        
   5949 ****        11.5000  -9.5000  34.7500 Du        
   5950 ****        11.5000  -9.5000  35.0000 Du        
   5951 ****        11.5000  -9.5000  35.2500 Du        
   5952 ****        11.5000  -9.2500  32.0000 Du        
   5953 ****        11.5000  -9.2500  32.2500 Du        
   5954 ****        11.5000  -9.2500  32.5000 Du        
   5955 ****        11.5000  -9.2500  32.7500 Du        
   5956 ****        11.5000  -9.2500  33.0000 Du        
   5957 ****        11.5000  -9.2500  33.2500 Du        
   5958 ****        11.5000  -9.2500  33.5000 Du        
   5959 ****        11.5000  -9.2500  33.7500 Du        
   5960 ****        11.5000  -9.2500  34.0000 Du        
   5961 ****        11.5000  -9.2500  34.2500 Du        
   5962 ****        11.5000  -9.2500  34.5000 Du        
   5963 ****        11.5000  -9.2500  34.7500 Du        
   5964 ****        11.5000  -9.2500  35.0000 Du        
   5965 ****        11.5000  -9.2500  35.2500 Du        
   5966 ****        11.5000  -9.2500  35.5000 Du        
   5967 ****        11.5000  -9.0000  31.7500 Du        
   5968 ****        11.5000  -9.0000  32.0000 Du        
   5969 ****        11.5000  -9.0000  32.2500 Du        
   5970 ****        11.5000  -9.0000  32.5000 Du        
   5971 ****        11.5000  -9.0000  32.7500 Du        
   5972 ****        11.5000  -9.0000  33.0000 Du        
   5973 ****        11.5000  -9.0000  33.2500 Du        
   5974 ****        11.5000  -9.0000  33.5000 Du        
   5975 ****        11.5000  -9.0000  33.7500 Du        
   5976 ****        11.5000  -9.0000  34.0000 Du        
   5977 ****        11.5000  -9.0000  34.2500 Du        
   5978 ****        11.5000  -9.0000  34.5000 Du        
   5979 ****        11.5000  -9.0000  34.7500 Du        
   5980 ****        11.5000  -9.0000  35.0000 Du        
   5981 ****        11.5000  -9.0000  35.2500 Du        
   5982 ****        11.5000  -8.7500  31.5000 Du        
   5983 ****        11.5000  -8.7500  31.7500 Du        
   5984 ****        11.5000  -8.7500  32.0000 Du        
   5985 ****        11.5000  -8.7500  32.2500 Du        
   5986 ****        11.5000  -8.7500  32.5000 Du        
   5987 ****        11.5000  -8.7500  32.7500 Du        
   5988 ****        11.5000  -8.7500  33.0000 Du        
   5989 ****        11.5000  -8.7500  33.2500 Du        
   5990 ****        11.5000  -8.7500  33.5000 Du        
   5991 ****        11.5000  -8.7500  33.7500 Du        
   5992 ****        11.5000  -8.7500  34.0000 Du        
   5993 ****        11.5000  -8.7500  34.2500 Du        
   5994 ****        11.5000  -8.7500  34.5000 Du        
   5995 ****        11.5000  -8.7500  34.7500 Du        
   5996 ****        11.5000  -8.7500  35.0000 Du        
   5997 ****        11.5000  -8.5000  31.5000 Du        
   5998 ****        11.5000  -8.5000  31.7500 Du        
   5999 ****        11.5000  -8.5000  32.0000 Du        
   6000 ****        11.5000  -8.5000  32.2500 Du        
   6001 ****        11.5000  -8.5000  32.5000 Du        
   6002 ****        11.5000  -8.5000  32.7500 Du        
   6003 ****        11.5000  -8.5000  33.0000 Du        
   6004 ****        11.5000  -8.5000  33.2500 Du        
   6005 ****        11.5000  -8.5000  33.5000 Du        
   6006 ****        11.5000  -8.5000  33.7500 Du        
   6007 ****        11.5000  -8.5000  34.0000 Du        
   6008 ****        11.5000  -8.5000  34.2500 Du        
   6009 ****        11.5000  -8.5000  34.5000 Du        
   6010 ****        11.5000  -8.2500  31.2500 Du        
   6011 ****        11.5000  -8.2500  31.5000 Du        
   6012 ****        11.5000  -8.2500  31.7500 Du        
   6013 ****        11.5000  -8.2500  32.0000 Du        
   6014 ****        11.5000  -8.2500  32.2500 Du        
   6015 ****        11.5000  -8.2500  32.5000 Du        
   6016 ****        11.5000  -8.2500  32.7500 Du        
   6017 ****        11.5000  -8.2500  33.0000 Du        
   6018 ****        11.5000  -8.2500  33.2500 Du        
   6019 ****        11.5000  -8.2500  33.5000 Du        
   6020 ****        11.5000  -8.2500  33.7500 Du        
   6021 ****        11.5000  -8.2500  34.0000 Du        
   6022 ****        11.5000  -8.2500  34.2500 Du        
   6023 ****        11.5000  -8.0000  31.2500 Du        
   6024 ****        11.5000  -8.0000  31.5000 Du        
   6025 ****        11.5000  -8.0000  31.7500 Du        
   6026 ****        11.5000  -8.0000  32.0000 Du        
   6027 ****        11.5000  -8.0000  32.2500 Du        
   6028 ****        11.5000  -8.0000  32.5000 Du        
   6029 ****        11.5000  -8.0000  32.7500 Du        
   6030 ****        11.5000  -8.0000  33.0000 Du        
   6031 ****        11.5000  -8.0000  33.2500 Du        
   6032 ****        11.5000  -8.0000  33.5000 Du        
   6033 ****        11.5000  -8.0000  33.7500 Du        
   6034 ****        11.5000  -8.0000  34.0000 Du        
   6035 ****        11.5000  -8.0000  34.2500 Du        
   6036 ****        11.5000  -7.7500  31.5000 Du        
   6037 ****        11.5000  -7.7500  31.7500 Du        
   6038 ****        11.5000  -7.7500  32.0000 Du        
   6039 ****        11.5000  -7.7500  32.2500 Du        
   6040 ****        11.5000  -7.7500  32.5000 Du        
   6041 ****        11.5000  -7.7500  32.7500 Du        
   6042 ****        11.5000  -7.7500  33.0000 Du        
   6043 ****        11.5000  -7.7500  33.2500 Du        
   6044 ****        11.5000  -7.7500  33.5000 Du        
   6045 ****        11.5000  -7.7500  33.7500 Du        
   6046 ****        11.5000  -7.7500  34.0000 Du        
   6047 ****        11.5000  -7.5000  31.7500 Du        
   6048 ****        11.5000  -7.5000  32.0000 Du        
   6049 ****        11.5000  -7.5000  32.2500 Du        
   6050 ****        11.5000  -7.5000  32.5000 Du        
   6051 ****        11.5000  -7.5000  32.7500 Du        
   6052 ****        11.5000  -7.5000  33.0000 Du        
   6053 ****        11.5000  -7.5000  33.2500 Du        
   6054 ****        11.5000  -7.5000  33.5000 Du        
   6055 ****        11.5000  -7.5000  33.7500 Du        
   6056 ****        11.5000  -7.2500  32.0000 Du        
   6057 ****        11.5000  -7.2500  32.2500 Du        
   6058 ****        11.5000  -7.2500  32.5000 Du        
   6059 ****        11.5000  -7.2500  32.7500 Du        
   6060 ****        11.5000  -7.2500  33.0000 Du        
   6061 ****        11.5000  -7.2500  33.2500 Du        
   6062 ****        11.5000  -7.2500  33.5000 Du        
   6063 ****        11.5000  -7.2500  33.7500 Du        
   6064 ****        11.5000  -7.0000  32.2500 Du        
   6065 ****        11.5000  -7.0000  32.5000 Du        
   6066 ****        11.5000  -7.0000  32.7500 Du        
   6067 ****        11.5000  -7.0000  33.0000 Du        
   6068 ****        11.5000  -7.0000  33.2500 Du        
   6069 ****        11.5000  -7.0000  33.5000 Du        
   6070 ****        11.5000  -6.7500  32.7500 Du        
   6071 ****        11.5000  -6.7500  33.0000 Du        
   6072 ****        11.5000  -4.2500  25.7500 Du        
   6073 ****        11.5000  -4.2500  26.0000 Du        
   6074 ****        11.5000  -4.0000  25.5000 Du        
   6075 ****        11.5000  -4.0000  25.7500 Du        
   6076 ****        11.5000  -4.0000  26.0000 Du        
   6077 ****        11.5000  -3.7500  25.2500 Du        
   6078 ****        11.5000  -3.7500  25.5000 Du        
   6079 ****        11.5000  -3.7500  25.7500 Du        
   6080 ****        11.5000  -3.7500  26.0000 Du        
   6081 ****        11.5000  -3.5000  25.0000 Du        
   6082 ****        11.5000  -3.5000  25.2500 Du        
   6083 ****        11.5000  -3.5000  25.5000 Du        
   6084 ****        11.5000  -3.5000  25.7500 Du        
   6085 ****        11.5000  -3.5000  26.0000 Du        
   6086 ****        11.5000  -3.2500  25.0000 Du        
   6087 ****        11.5000  -3.2500  25.2500 Du        
   6088 ****        11.5000  -3.2500  25.5000 Du        
   6089 ****        11.5000  -3.2500  25.7500 Du        
   6090 ****        11.5000  -3.2500  26.0000 Du        
   6091 ****        11.5000  -3.0000  25.0000 Du        
   6092 ****        11.5000  -3.0000  25.2500 Du        
   6093 ****        11.5000  -3.0000  25.5000 Du        
   6094 ****        11.5000   7.5000  25.2500 Du        
   6095 ****        11.5000   7.5000  25.5000 Du        
   6096 ****        11.5000   7.5000  25.7500 Du        
   6097 ****        11.5000   7.5000  26.0000 Du        
   6098 ****        11.5000   7.7500  25.2500 Du        
   6099 ****        11.5000   7.7500  25.5000 Du        
   6100 ****        11.5000   7.7500  25.7500 Du        
   6101 ****        11.5000   7.7500  26.0000 Du        
   6102 ****        11.5000   9.5000  19.0000 Du        
   6103 ****        11.5000   9.5000  19.2500 Du        
   6104 ****        11.5000  16.2500  37.2500 Du        
   6105 ****        11.5000  16.2500  37.5000 Du        
   6106 ****        11.5000  16.2500  37.7500 Du        
   6107 ****        11.5000  16.5000  37.2500 Du        
   6108 ****        11.5000  16.5000  37.5000 Du        
   6109 ****        11.5000  16.5000  37.7500 Du        
   6110 ****        11.5000  16.5000  38.0000 Du        
   6111 ****        11.5000  16.7500  37.2500 Du        
   6112 ****        11.5000  16.7500  37.5000 Du        
   6113 ****        11.5000  16.7500  37.7500 Du        
   6114 ****        11.5000  16.7500  38.0000 Du        
   6115 ****        11.5000  16.7500  38.2500 Du        
   6116 ****        11.5000  17.0000  37.2500 Du        
   6117 ****        11.5000  17.0000  37.5000 Du        
   6118 ****        11.5000  17.0000  37.7500 Du        
   6119 ****        11.5000  17.0000  38.0000 Du        
   6120 ****        11.5000  17.0000  38.2500 Du        
   6121 ****        11.5000  17.2500  37.2500 Du        
   6122 ****        11.5000  17.2500  37.5000 Du        
   6123 ****        11.5000  17.2500  37.7500 Du        
   6124 ****        11.5000  17.2500  38.0000 Du        
   6125 ****        11.5000  17.2500  38.2500 Du        
   6126 ****        11.5000  17.5000  37.2500 Du        
   6127 ****        11.5000  17.5000  37.5000 Du        
   6128 ****        11.5000  17.5000  37.7500 Du        
   6129 ****        11.5000  17.5000  38.0000 Du        
   6130 ****        11.5000  17.7500  37.2500 Du        
   6131 ****        11.5000  17.7500  37.5000 Du        
   6132 ****        11.5000  17.7500  37.7500 Du        
   6133 ****        11.5000  17.7500  38.0000 Du        
   6134 ****        11.5000  18.0000  37.2500 Du        
   6135 ****        11.5000  18.2500  37.2500 Du        
   6136 ****        11.5000  18.7500  37.0000 Du        
   6137 ****        11.5000  19.0000  36.7500 Du        
   6138 ****        11.5000  19.0000  37.0000 Du        
   6139 ****        11.5000  19.0000  37.2500 Du        
   6140 ****        11.5000  19.2500  37.0000 Du        
   6141 ****        11.5000  19.2500  37.2500 Du        
   6142 ****        11.5000  19.5000  37.0000 Du        
   6143 ****        11.5000  19.5000  37.2500 Du        
   6144 ****        11.7500 -17.0000  34.7500 Du        
   6145 ****        11.7500 -16.7500  34.0000 Du        
   6146 ****        11.7500 -16.7500  34.2500 Du        
   6147 ****        11.7500 -16.7500  34.5000 Du        
   6148 ****        11.7500 -16.7500  34.7500 Du        
   6149 ****        11.7500 -16.5000  33.2500 Du        
   6150 ****        11.7500 -16.5000  33.5000 Du        
   6151 ****        11.7500 -16.5000  33.7500 Du        
   6152 ****        11.7500 -16.5000  34.0000 Du        
   6153 ****        11.7500 -16.5000  34.2500 Du        
   6154 ****        11.7500 -16.5000  34.5000 Du        
   6155 ****        11.7500 -16.5000  34.7500 Du        
   6156 ****        11.7500 -16.2500  32.0000 Du        
   6157 ****        11.7500 -16.2500  32.2500 Du        
   6158 ****        11.7500 -16.2500  32.5000 Du        
   6159 ****        11.7500 -16.2500  32.7500 Du        
   6160 ****        11.7500 -16.2500  33.0000 Du        
   6161 ****        11.7500 -16.2500  33.2500 Du        
   6162 ****        11.7500 -16.2500  33.5000 Du        
   6163 ****        11.7500 -16.2500  33.7500 Du        
   6164 ****        11.7500 -16.2500  34.0000 Du        
   6165 ****        11.7500 -16.2500  34.2500 Du        
   6166 ****        11.7500 -16.2500  34.5000 Du        
   6167 ****        11.7500 -16.2500  34.7500 Du        
   6168 ****        11.7500 -16.0000  31.7500 Du        
   6169 ****        11.7500 -16.0000  32.0000 Du        
   6170 ****        11.7500 -16.0000  32.2500 Du        
   6171 ****        11.7500 -16.0000  32.5000 Du        
   6172 ****        11.7500 -16.0000  32.7500 Du        
   6173 ****        11.7500 -16.0000  33.0000 Du        
   6174 ****        11.7500 -16.0000  33.2500 Du        
   6175 ****        11.7500 -16.0000  33.5000 Du        
   6176 ****        11.7500 -16.0000  33.7500 Du        
   6177 ****        11.7500 -16.0000  34.0000 Du        
   6178 ****        11.7500 -16.0000  34.2500 Du        
   6179 ****        11.7500 -16.0000  34.5000 Du        
   6180 ****        11.7500 -16.0000  34.7500 Du        
   6181 ****        11.7500 -15.7500  31.7500 Du        
   6182 ****        11.7500 -15.7500  32.0000 Du        
   6183 ****        11.7500 -15.7500  32.2500 Du        
   6184 ****        11.7500 -15.7500  32.5000 Du        
   6185 ****        11.7500 -15.7500  32.7500 Du        
   6186 ****        11.7500 -15.7500  33.0000 Du        
   6187 ****        11.7500 -15.7500  33.2500 Du        
   6188 ****        11.7500 -15.7500  33.5000 Du        
   6189 ****        11.7500 -15.7500  33.7500 Du        
   6190 ****        11.7500 -15.7500  34.0000 Du        
   6191 ****        11.7500 -15.7500  34.2500 Du        
   6192 ****        11.7500 -15.7500  34.5000 Du        
   6193 ****        11.7500 -15.5000  31.7500 Du        
   6194 ****        11.7500 -15.5000  32.0000 Du        
   6195 ****        11.7500 -15.5000  32.2500 Du        
   6196 ****        11.7500 -15.5000  32.5000 Du        
   6197 ****        11.7500 -15.5000  32.7500 Du        
   6198 ****        11.7500 -15.5000  33.0000 Du        
   6199 ****        11.7500 -15.5000  33.2500 Du        
   6200 ****        11.7500 -15.5000  33.5000 Du        
   6201 ****        11.7500 -15.5000  33.7500 Du        
   6202 ****        11.7500 -15.5000  34.0000 Du        
   6203 ****        11.7500 -15.5000  34.2500 Du        
   6204 ****        11.7500 -15.5000  34.5000 Du        
   6205 ****        11.7500 -15.2500  31.7500 Du        
   6206 ****        11.7500 -15.2500  32.0000 Du        
   6207 ****        11.7500 -15.2500  32.2500 Du        
   6208 ****        11.7500 -15.2500  32.5000 Du        
   6209 ****        11.7500 -15.2500  32.7500 Du        
   6210 ****        11.7500 -15.2500  33.0000 Du        
   6211 ****        11.7500 -15.2500  33.2500 Du        
   6212 ****        11.7500 -15.2500  33.5000 Du        
   6213 ****        11.7500 -15.2500  33.7500 Du        
   6214 ****        11.7500 -15.2500  34.0000 Du        
   6215 ****        11.7500 -15.2500  34.2500 Du        
   6216 ****        11.7500 -15.0000  31.7500 Du        
   6217 ****        11.7500 -15.0000  32.0000 Du        
   6218 ****        11.7500 -15.0000  32.2500 Du        
   6219 ****        11.7500 -15.0000  32.5000 Du        
   6220 ****        11.7500 -15.0000  32.7500 Du        
   6221 ****        11.7500 -15.0000  33.0000 Du        
   6222 ****        11.7500 -15.0000  33.2500 Du        
   6223 ****        11.7500 -15.0000  33.5000 Du        
   6224 ****        11.7500 -15.0000  33.7500 Du        
   6225 ****        11.7500 -15.0000  34.0000 Du        
   6226 ****        11.7500 -14.7500  31.5000 Du        
   6227 ****        11.7500 -14.7500  31.7500 Du        
   6228 ****        11.7500 -14.7500  32.0000 Du        
   6229 ****        11.7500 -14.7500  32.2500 Du        
   6230 ****        11.7500 -14.7500  32.5000 Du        
   6231 ****        11.7500 -14.7500  32.7500 Du        
   6232 ****        11.7500 -14.7500  33.0000 Du        
   6233 ****        11.7500 -14.7500  33.2500 Du        
   6234 ****        11.7500 -14.7500  33.5000 Du        
   6235 ****        11.7500 -14.5000  31.7500 Du        
   6236 ****        11.7500 -14.5000  32.0000 Du        
   6237 ****        11.7500 -14.5000  32.2500 Du        
   6238 ****        11.7500 -14.5000  32.5000 Du        
   6239 ****        11.7500 -14.5000  32.7500 Du        
   6240 ****        11.7500 -14.5000  33.0000 Du        
   6241 ****        11.7500 -14.5000  33.2500 Du        
   6242 ****        11.7500 -14.2500  31.2500 Du        
   6243 ****        11.7500 -14.2500  31.5000 Du        
   6244 ****        11.7500 -14.2500  31.7500 Du        
   6245 ****        11.7500 -14.2500  32.0000 Du        
   6246 ****        11.7500 -14.2500  32.2500 Du        
   6247 ****        11.7500 -14.2500  32.5000 Du        
   6248 ****        11.7500 -14.2500  32.7500 Du        
   6249 ****        11.7500 -14.2500  33.0000 Du        
   6250 ****        11.7500 -14.2500  33.2500 Du        
   6251 ****        11.7500 -14.0000  31.0000 Du        
   6252 ****        11.7500 -14.0000  31.2500 Du        
   6253 ****        11.7500 -14.0000  31.5000 Du        
   6254 ****        11.7500 -14.0000  31.7500 Du        
   6255 ****        11.7500 -14.0000  32.0000 Du        
   6256 ****        11.7500 -14.0000  32.2500 Du        
   6257 ****        11.7500 -14.0000  32.5000 Du        
   6258 ****        11.7500 -14.0000  32.7500 Du        
   6259 ****        11.7500 -14.0000  33.0000 Du        
   6260 ****        11.7500 -14.0000  33.2500 Du        
   6261 ****        11.7500 -13.7500  31.0000 Du        
   6262 ****        11.7500 -13.7500  31.2500 Du        
   6263 ****        11.7500 -13.7500  31.7500 Du        
   6264 ****        11.7500 -13.7500  32.0000 Du        
   6265 ****        11.7500 -13.7500  32.2500 Du        
   6266 ****        11.7500 -13.7500  32.5000 Du        
   6267 ****        11.7500 -13.7500  32.7500 Du        
   6268 ****        11.7500 -13.7500  33.0000 Du        
   6269 ****        11.7500 -13.5000  31.0000 Du        
   6270 ****        11.7500 -13.5000  32.5000 Du        
   6271 ****        11.7500 -13.5000  32.7500 Du        
   6272 ****        11.7500 -13.2500  30.7500 Du        
   6273 ****        11.7500 -13.2500  31.0000 Du        
   6274 ****        11.7500 -13.2500  31.2500 Du        
   6275 ****        11.7500 -13.2500  32.5000 Du        
   6276 ****        11.7500 -13.2500  32.7500 Du        
   6277 ****        11.7500 -13.0000  30.5000 Du        
   6278 ****        11.7500 -13.0000  30.7500 Du        
   6279 ****        11.7500 -13.0000  31.0000 Du        
   6280 ****        11.7500 -13.0000  31.2500 Du        
   6281 ****        11.7500 -13.0000  32.5000 Du        
   6282 ****        11.7500 -12.7500  30.0000 Du        
   6283 ****        11.7500 -12.7500  30.2500 Du        
   6284 ****        11.7500 -12.7500  30.5000 Du        
   6285 ****        11.7500 -12.7500  30.7500 Du        
   6286 ****        11.7500 -12.7500  31.0000 Du        
   6287 ****        11.7500 -12.7500  31.2500 Du        
   6288 ****        11.7500 -12.5000  30.0000 Du        
   6289 ****        11.7500 -12.5000  30.2500 Du        
   6290 ****        11.7500 -12.5000  30.5000 Du        
   6291 ****        11.7500 -12.5000  30.7500 Du        
   6292 ****        11.7500 -12.5000  31.0000 Du        
   6293 ****        11.7500 -12.2500  29.7500 Du        
   6294 ****        11.7500 -12.2500  30.0000 Du        
   6295 ****        11.7500 -12.2500  30.2500 Du        
   6296 ****        11.7500 -12.2500  30.5000 Du        
   6297 ****        11.7500 -12.0000  29.5000 Du        
   6298 ****        11.7500 -12.0000  29.7500 Du        
   6299 ****        11.7500 -12.0000  30.0000 Du        
   6300 ****        11.7500 -12.0000  30.2500 Du        
   6301 ****        11.7500 -12.0000  30.5000 Du        
   6302 ****        11.7500 -12.0000  30.7500 Du        
   6303 ****        11.7500 -12.0000  31.0000 Du        
   6304 ****        11.7500 -12.0000  32.0000 Du        
   6305 ****        11.7500 -12.0000  32.2500 Du        
   6306 ****        11.7500 -11.7500  29.2500 Du        
   6307 ****        11.7500 -11.7500  29.5000 Du        
   6308 ****        11.7500 -11.7500  29.7500 Du        
   6309 ****        11.7500 -11.7500  30.0000 Du        
   6310 ****        11.7500 -11.7500  30.2500 Du        
   6311 ****        11.7500 -11.7500  30.5000 Du        
   6312 ****        11.7500 -11.7500  30.7500 Du        
   6313 ****        11.7500 -11.7500  32.0000 Du        
   6314 ****        11.7500 -11.5000  29.7500 Du        
   6315 ****        11.7500 -11.5000  30.0000 Du        
   6316 ****        11.7500 -11.2500  29.0000 Du        
   6317 ****        11.7500 -11.2500  29.2500 Du        
   6318 ****        11.7500 -11.2500  30.0000 Du        
   6319 ****        11.7500 -11.0000  29.0000 Du        
   6320 ****        11.7500 -11.0000  29.2500 Du        
   6321 ****        11.7500 -11.0000  30.0000 Du        
   6322 ****        11.7500 -10.7500  29.0000 Du        
   6323 ****        11.7500 -10.7500  29.2500 Du        
   6324 ****        11.7500 -10.2500  32.7500 Du        
   6325 ****        11.7500 -10.2500  33.0000 Du        
   6326 ****        11.7500 -10.2500  33.2500 Du        
   6327 ****        11.7500 -10.2500  33.5000 Du        
   6328 ****        11.7500 -10.2500  33.7500 Du        
   6329 ****        11.7500 -10.0000  32.2500 Du        
   6330 ****        11.7500 -10.0000  32.5000 Du        
   6331 ****        11.7500 -10.0000  32.7500 Du        
   6332 ****        11.7500 -10.0000  33.0000 Du        
   6333 ****        11.7500 -10.0000  33.2500 Du        
   6334 ****        11.7500 -10.0000  33.5000 Du        
   6335 ****        11.7500 -10.0000  33.7500 Du        
   6336 ****        11.7500 -10.0000  34.0000 Du        
   6337 ****        11.7500 -10.0000  34.2500 Du        
   6338 ****        11.7500  -9.7500  32.0000 Du        
   6339 ****        11.7500  -9.7500  32.2500 Du        
   6340 ****        11.7500  -9.7500  32.5000 Du        
   6341 ****        11.7500  -9.7500  32.7500 Du        
   6342 ****        11.7500  -9.7500  33.0000 Du        
   6343 ****        11.7500  -9.7500  33.2500 Du        
   6344 ****        11.7500  -9.7500  33.5000 Du        
   6345 ****        11.7500  -9.7500  33.7500 Du        
   6346 ****        11.7500  -9.7500  34.0000 Du        
   6347 ****        11.7500  -9.7500  34.2500 Du        
   6348 ****        11.7500  -9.7500  34.5000 Du        
   6349 ****        11.7500  -9.7500  34.7500 Du        
   6350 ****        11.7500  -9.7500  35.0000 Du        
   6351 ****        11.7500  -9.7500  35.2500 Du        
   6352 ****        11.7500  -9.5000  29.2500 Du        
   6353 ****        11.7500  -9.5000  31.7500 Du        
   6354 ****        11.7500  -9.5000  32.0000 Du        
   6355 ****        11.7500  -9.5000  32.2500 Du        
   6356 ****        11.7500  -9.5000  32.5000 Du        
   6357 ****        11.7500  -9.5000  32.7500 Du        
   6358 ****        11.7500  -9.5000  33.0000 Du        
   6359 ****        11.7500  -9.5000  33.2500 Du        
   6360 ****        11.7500  -9.5000  33.5000 Du        
   6361 ****        11.7500  -9.5000  33.7500 Du        
   6362 ****        11.7500  -9.5000  34.0000 Du        
   6363 ****        11.7500  -9.5000  34.2500 Du        
   6364 ****        11.7500  -9.5000  34.5000 Du        
   6365 ****        11.7500  -9.5000  34.7500 Du        
   6366 ****        11.7500  -9.5000  35.0000 Du        
   6367 ****        11.7500  -9.5000  35.2500 Du        
   6368 ****        11.7500  -9.5000  35.5000 Du        
   6369 ****        11.7500  -9.2500  29.0000 Du        
   6370 ****        11.7500  -9.2500  29.2500 Du        
   6371 ****        11.7500  -9.2500  31.5000 Du        
   6372 ****        11.7500  -9.2500  31.7500 Du        
   6373 ****        11.7500  -9.2500  32.0000 Du        
   6374 ****        11.7500  -9.2500  32.2500 Du        
   6375 ****        11.7500  -9.2500  32.5000 Du        
   6376 ****        11.7500  -9.2500  32.7500 Du        
   6377 ****        11.7500  -9.2500  33.0000 Du        
   6378 ****        11.7500  -9.2500  33.2500 Du        
   6379 ****        11.7500  -9.2500  33.5000 Du        
   6380 ****        11.7500  -9.2500  33.7500 Du        
   6381 ****        11.7500  -9.2500  34.0000 Du        
   6382 ****        11.7500  -9.2500  34.2500 Du        
   6383 ****        11.7500  -9.2500  34.5000 Du        
   6384 ****        11.7500  -9.2500  34.7500 Du        
   6385 ****        11.7500  -9.2500  35.0000 Du        
   6386 ****        11.7500  -9.2500  35.2500 Du        
   6387 ****        11.7500  -9.2500  35.5000 Du        
   6388 ****        11.7500  -9.2500  35.7500 Du        
   6389 ****        11.7500  -9.0000  28.7500 Du        
   6390 ****        11.7500  -9.0000  29.0000 Du        
   6391 ****        11.7500  -9.0000  29.2500 Du        
   6392 ****        11.7500  -9.0000  31.0000 Du        
   6393 ****        11.7500  -9.0000  31.2500 Du        
   6394 ****        11.7500  -9.0000  31.5000 Du        
   6395 ****        11.7500  -9.0000  31.7500 Du        
   6396 ****        11.7500  -9.0000  32.0000 Du        
   6397 ****        11.7500  -9.0000  32.2500 Du        
   6398 ****        11.7500  -9.0000  32.5000 Du        
   6399 ****        11.7500  -9.0000  32.7500 Du        
   6400 ****        11.7500  -9.0000  33.0000 Du        
   6401 ****        11.7500  -9.0000  33.2500 Du        
   6402 ****        11.7500  -9.0000  33.5000 Du        
   6403 ****        11.7500  -9.0000  33.7500 Du        
   6404 ****        11.7500  -9.0000  34.0000 Du        
   6405 ****        11.7500  -9.0000  34.2500 Du        
   6406 ****        11.7500  -9.0000  34.5000 Du        
   6407 ****        11.7500  -9.0000  34.7500 Du        
   6408 ****        11.7500  -9.0000  35.0000 Du        
   6409 ****        11.7500  -9.0000  35.2500 Du        
   6410 ****        11.7500  -8.7500  29.0000 Du        
   6411 ****        11.7500  -8.7500  29.5000 Du        
   6412 ****        11.7500  -8.7500  29.7500 Du        
   6413 ****        11.7500  -8.7500  30.0000 Du        
   6414 ****        11.7500  -8.7500  30.2500 Du        
   6415 ****        11.7500  -8.7500  30.5000 Du        
   6416 ****        11.7500  -8.7500  30.7500 Du        
   6417 ****        11.7500  -8.7500  31.0000 Du        
   6418 ****        11.7500  -8.7500  31.2500 Du        
   6419 ****        11.7500  -8.7500  31.5000 Du        
   6420 ****        11.7500  -8.7500  31.7500 Du        
   6421 ****        11.7500  -8.7500  32.0000 Du        
   6422 ****        11.7500  -8.7500  32.2500 Du        
   6423 ****        11.7500  -8.7500  32.5000 Du        
   6424 ****        11.7500  -8.7500  32.7500 Du        
   6425 ****        11.7500  -8.7500  33.0000 Du        
   6426 ****        11.7500  -8.7500  33.2500 Du        
   6427 ****        11.7500  -8.7500  33.5000 Du        
   6428 ****        11.7500  -8.7500  33.7500 Du        
   6429 ****        11.7500  -8.7500  34.0000 Du        
   6430 ****        11.7500  -8.7500  34.2500 Du        
   6431 ****        11.7500  -8.7500  34.5000 Du        
   6432 ****        11.7500  -8.7500  34.7500 Du        
   6433 ****        11.7500  -8.5000  30.2500 Du        
   6434 ****        11.7500  -8.5000  30.5000 Du        
   6435 ****        11.7500  -8.5000  30.7500 Du        
   6436 ****        11.7500  -8.5000  31.0000 Du        
   6437 ****        11.7500  -8.5000  31.2500 Du        
   6438 ****        11.7500  -8.5000  31.5000 Du        
   6439 ****        11.7500  -8.5000  31.7500 Du        
   6440 ****        11.7500  -8.5000  32.0000 Du        
   6441 ****        11.7500  -8.5000  32.2500 Du        
   6442 ****        11.7500  -8.5000  32.5000 Du        
   6443 ****        11.7500  -8.5000  32.7500 Du        
   6444 ****        11.7500  -8.5000  33.0000 Du        
   6445 ****        11.7500  -8.5000  33.2500 Du        
   6446 ****        11.7500  -8.5000  33.5000 Du        
   6447 ****        11.7500  -8.5000  33.7500 Du        
   6448 ****        11.7500  -8.5000  34.0000 Du        
   6449 ****        11.7500  -8.5000  34.2500 Du        
   6450 ****        11.7500  -8.5000  34.5000 Du        
   6451 ****        11.7500  -8.2500  30.5000 Du        
   6452 ****        11.7500  -8.2500  30.7500 Du        
   6453 ****        11.7500  -8.2500  31.0000 Du        
   6454 ****        11.7500  -8.2500  31.2500 Du        
   6455 ****        11.7500  -8.2500  31.5000 Du        
   6456 ****        11.7500  -8.2500  31.7500 Du        
   6457 ****        11.7500  -8.2500  32.0000 Du        
   6458 ****        11.7500  -8.2500  32.2500 Du        
   6459 ****        11.7500  -8.2500  32.5000 Du        
   6460 ****        11.7500  -8.2500  32.7500 Du        
   6461 ****        11.7500  -8.2500  33.0000 Du        
   6462 ****        11.7500  -8.2500  33.2500 Du        
   6463 ****        11.7500  -8.2500  33.5000 Du        
   6464 ****        11.7500  -8.2500  33.7500 Du        
   6465 ****        11.7500  -8.2500  34.0000 Du        
   6466 ****        11.7500  -8.2500  34.2500 Du        
   6467 ****        11.7500  -8.0000  30.7500 Du        
   6468 ****        11.7500  -8.0000  31.0000 Du        
   6469 ****        11.7500  -8.0000  31.2500 Du        
   6470 ****        11.7500  -8.0000  31.5000 Du        
   6471 ****        11.7500  -8.0000  31.7500 Du        
   6472 ****        11.7500  -8.0000  32.0000 Du        
   6473 ****        11.7500  -8.0000  32.2500 Du        
   6474 ****        11.7500  -8.0000  32.5000 Du        
   6475 ****        11.7500  -8.0000  32.7500 Du        
   6476 ****        11.7500  -8.0000  33.0000 Du        
   6477 ****        11.7500  -8.0000  33.2500 Du        
   6478 ****        11.7500  -8.0000  33.5000 Du        
   6479 ****        11.7500  -8.0000  33.7500 Du        
   6480 ****        11.7500  -8.0000  34.0000 Du        
   6481 ****        11.7500  -7.7500  31.2500 Du        
   6482 ****        11.7500  -7.7500  31.5000 Du        
   6483 ****        11.7500  -7.7500  31.7500 Du        
   6484 ****        11.7500  -7.7500  32.0000 Du        
   6485 ****        11.7500  -7.7500  32.2500 Du        
   6486 ****        11.7500  -7.7500  32.5000 Du        
   6487 ****        11.7500  -7.7500  32.7500 Du        
   6488 ****        11.7500  -7.7500  33.0000 Du        
   6489 ****        11.7500  -7.7500  33.2500 Du        
   6490 ****        11.7500  -7.7500  33.5000 Du        
   6491 ****        11.7500  -7.7500  33.7500 Du        
   6492 ****        11.7500  -7.7500  34.0000 Du        
   6493 ****        11.7500  -7.5000  31.5000 Du        
   6494 ****        11.7500  -7.5000  31.7500 Du        
   6495 ****        11.7500  -7.5000  32.0000 Du        
   6496 ****        11.7500  -7.5000  32.2500 Du        
   6497 ****        11.7500  -7.5000  32.5000 Du        
   6498 ****        11.7500  -7.5000  32.7500 Du        
   6499 ****        11.7500  -7.5000  33.0000 Du        
   6500 ****        11.7500  -7.5000  33.2500 Du        
   6501 ****        11.7500  -7.5000  33.5000 Du        
   6502 ****        11.7500  -7.5000  33.7500 Du        
   6503 ****        11.7500  -7.2500  31.7500 Du        
   6504 ****        11.7500  -7.2500  32.0000 Du        
   6505 ****        11.7500  -7.2500  32.2500 Du        
   6506 ****        11.7500  -7.2500  32.5000 Du        
   6507 ****        11.7500  -7.2500  32.7500 Du        
   6508 ****        11.7500  -7.2500  33.0000 Du        
   6509 ****        11.7500  -7.2500  33.2500 Du        
   6510 ****        11.7500  -7.2500  33.5000 Du        
   6511 ****        11.7500  -7.2500  33.7500 Du        
   6512 ****        11.7500  -7.0000  32.0000 Du        
   6513 ****        11.7500  -7.0000  32.2500 Du        
   6514 ****        11.7500  -7.0000  32.5000 Du        
   6515 ****        11.7500  -7.0000  32.7500 Du        
   6516 ****        11.7500  -7.0000  33.0000 Du        
   6517 ****        11.7500  -7.0000  33.2500 Du        
   6518 ****        11.7500  -7.0000  33.5000 Du        
   6519 ****        11.7500  -6.7500  32.5000 Du        
   6520 ****        11.7500  -6.7500  32.7500 Du        
   6521 ****        11.7500  -6.7500  33.0000 Du        
   6522 ****        11.7500  -4.5000  26.0000 Du        
   6523 ****        11.7500  -4.2500  25.5000 Du        
   6524 ****        11.7500  -4.2500  25.7500 Du        
   6525 ****        11.7500  -4.2500  26.0000 Du        
   6526 ****        11.7500  -4.2500  26.2500 Du        
   6527 ****        11.7500  -4.0000  25.5000 Du        
   6528 ****        11.7500  -4.0000  25.7500 Du        
   6529 ****        11.7500  -4.0000  26.0000 Du        
   6530 ****        11.7500  -3.7500  25.2500 Du        
   6531 ****        11.7500  -3.7500  25.5000 Du        
   6532 ****        11.7500  -3.7500  25.7500 Du        
   6533 ****        11.7500  -3.7500  26.0000 Du        
   6534 ****        11.7500  -3.5000  25.2500 Du        
   6535 ****        11.7500  -3.5000  25.5000 Du        
   6536 ****        11.7500  -3.5000  25.7500 Du        
   6537 ****        11.7500  -3.2500  25.2500 Du        
   6538 ****        11.7500  -3.2500  25.5000 Du        
   6539 ****        11.7500   7.5000  25.2500 Du        
   6540 ****        11.7500   7.5000  25.5000 Du        
   6541 ****        11.7500   7.5000  25.7500 Du        
   6542 ****        11.7500   7.5000  26.0000 Du        
   6543 ****        11.7500   7.7500  25.2500 Du        
   6544 ****        11.7500   7.7500  25.5000 Du        
   6545 ****        11.7500   7.7500  25.7500 Du        
   6546 ****        11.7500   7.7500  26.0000 Du        
   6547 ****        11.7500   7.7500  26.2500 Du        
   6548 ****        11.7500   8.0000  25.5000 Du        
   6549 ****        11.7500   8.0000  25.7500 Du        
   6550 ****        11.7500   8.0000  26.0000 Du        
   6551 ****        11.7500   9.2500  19.0000 Du        
   6552 ****        11.7500   9.2500  19.2500 Du        
   6553 ****        11.7500   9.2500  19.5000 Du        
   6554 ****        11.7500   9.5000  19.0000 Du        
   6555 ****        11.7500   9.5000  19.2500 Du        
   6556 ****        11.7500   9.5000  19.5000 Du        
   6557 ****        11.7500   9.7500  19.0000 Du        
   6558 ****        11.7500   9.7500  19.2500 Du        
   6559 ****        11.7500   9.7500  19.5000 Du        
   6560 ****        11.7500  16.2500  37.7500 Du        
   6561 ****        11.7500  16.5000  37.5000 Du        
   6562 ****        11.7500  16.5000  37.7500 Du        
   6563 ****        11.7500  16.5000  38.0000 Du        
   6564 ****        11.7500  16.7500  37.2500 Du        
   6565 ****        11.7500  16.7500  37.5000 Du        
   6566 ****        11.7500  16.7500  37.7500 Du        
   6567 ****        11.7500  16.7500  38.0000 Du        
   6568 ****        11.7500  16.7500  38.2500 Du        
   6569 ****        11.7500  17.0000  37.2500 Du        
   6570 ****        11.7500  17.0000  37.5000 Du        
   6571 ****        11.7500  17.0000  37.7500 Du        
   6572 ****        11.7500  17.0000  38.0000 Du        
   6573 ****        11.7500  17.0000  38.2500 Du        
   6574 ****        11.7500  17.2500  37.2500 Du        
   6575 ****        11.7500  17.2500  37.5000 Du        
   6576 ****        11.7500  17.2500  37.7500 Du        
   6577 ****        11.7500  17.2500  38.0000 Du        
   6578 ****        11.7500  17.2500  38.2500 Du        
   6579 ****        11.7500  17.5000  37.7500 Du        
   6580 ****        11.7500  17.5000  38.0000 Du        
   6581 ****        11.7500  17.7500  37.7500 Du        
   6582 ****        11.7500  17.7500  38.0000 Du        
   6583 ****        11.7500  18.0000  37.2500 Du        
   6584 ****        11.7500  18.2500  37.2500 Du        
   6585 ****        11.7500  18.7500  37.0000 Du        
   6586 ****        11.7500  19.0000  36.7500 Du        
   6587 ****        11.7500  19.0000  37.0000 Du        
   6588 ****        11.7500  19.2500  36.7500 Du        
   6589 ****        11.7500  19.2500  37.0000 Du        
   6590 ****        11.7500  19.5000  36.7500 Du        
   6591 ****        11.7500  19.5000  37.0000 Du        
   6592 ****        11.7500  19.5000  37.2500 Du        
   6593 ****        11.7500  19.7500  37.0000 Du        
   6594 ****        11.7500  19.7500  37.2500 Du        
   6595 ****        12.0000 -16.7500  34.2500 Du        
   6596 ****        12.0000 -16.7500  34.5000 Du        
   6597 ****        12.0000 -16.7500  34.7500 Du        
   6598 ****        12.0000 -16.5000  33.7500 Du        
   6599 ****        12.0000 -16.5000  34.0000 Du        
   6600 ****        12.0000 -16.5000  34.2500 Du        
   6601 ****        12.0000 -16.5000  34.5000 Du        
   6602 ****        12.0000 -16.2500  32.0000 Du        
   6603 ****        12.0000 -16.2500  32.2500 Du        
   6604 ****        12.0000 -16.2500  32.5000 Du        
   6605 ****        12.0000 -16.2500  32.7500 Du        
   6606 ****        12.0000 -16.2500  33.0000 Du        
   6607 ****        12.0000 -16.2500  33.2500 Du        
   6608 ****        12.0000 -16.2500  33.5000 Du        
   6609 ****        12.0000 -16.2500  33.7500 Du        
   6610 ****        12.0000 -16.2500  34.0000 Du        
   6611 ****        12.0000 -16.2500  34.2500 Du        
   6612 ****        12.0000 -16.2500  34.5000 Du        
   6613 ****        12.0000 -16.2500  34.7500 Du        
   6614 ****        12.0000 -16.0000  31.5000 Du        
   6615 ****        12.0000 -16.0000  31.7500 Du        
   6616 ****        12.0000 -16.0000  32.0000 Du        
   6617 ****        12.0000 -16.0000  32.2500 Du        
   6618 ****        12.0000 -16.0000  32.5000 Du        
   6619 ****        12.0000 -16.0000  32.7500 Du        
   6620 ****        12.0000 -16.0000  33.0000 Du        
   6621 ****        12.0000 -16.0000  33.2500 Du        
   6622 ****        12.0000 -16.0000  33.5000 Du        
   6623 ****        12.0000 -16.0000  33.7500 Du        
   6624 ****        12.0000 -16.0000  34.0000 Du        
   6625 ****        12.0000 -16.0000  34.2500 Du        
   6626 ****        12.0000 -16.0000  34.5000 Du        
   6627 ****        12.0000 -16.0000  34.7500 Du        
   6628 ****        12.0000 -15.7500  31.5000 Du        
   6629 ****        12.0000 -15.7500  31.7500 Du        
   6630 ****        12.0000 -15.7500  32.0000 Du        
   6631 ****        12.0000 -15.7500  32.2500 Du        
   6632 ****        12.0000 -15.7500  32.5000 Du        
   6633 ****        12.0000 -15.7500  32.7500 Du        
   6634 ****        12.0000 -15.7500  33.0000 Du        
   6635 ****        12.0000 -15.7500  33.2500 Du        
   6636 ****        12.0000 -15.7500  33.5000 Du        
   6637 ****        12.0000 -15.7500  33.7500 Du        
   6638 ****        12.0000 -15.7500  34.0000 Du        
   6639 ****        12.0000 -15.7500  34.2500 Du        
   6640 ****        12.0000 -15.7500  34.5000 Du        
   6641 ****        12.0000 -15.7500  34.7500 Du        
   6642 ****        12.0000 -15.5000  31.5000 Du        
   6643 ****        12.0000 -15.5000  31.7500 Du        
   6644 ****        12.0000 -15.5000  32.0000 Du        
   6645 ****        12.0000 -15.5000  32.2500 Du        
   6646 ****        12.0000 -15.5000  32.5000 Du        
   6647 ****        12.0000 -15.5000  32.7500 Du        
   6648 ****        12.0000 -15.5000  33.0000 Du        
   6649 ****        12.0000 -15.5000  33.2500 Du        
   6650 ****        12.0000 -15.5000  33.5000 Du        
   6651 ****        12.0000 -15.5000  33.7500 Du        
   6652 ****        12.0000 -15.5000  34.0000 Du        
   6653 ****        12.0000 -15.5000  34.2500 Du        
   6654 ****        12.0000 -15.5000  34.5000 Du        
   6655 ****        12.0000 -15.2500  31.5000 Du        
   6656 ****        12.0000 -15.2500  31.7500 Du        
   6657 ****        12.0000 -15.2500  32.0000 Du        
   6658 ****        12.0000 -15.2500  32.2500 Du        
   6659 ****        12.0000 -15.2500  32.5000 Du        
   6660 ****        12.0000 -15.2500  32.7500 Du        
   6661 ****        12.0000 -15.2500  33.0000 Du        
   6662 ****        12.0000 -15.2500  33.2500 Du        
   6663 ****        12.0000 -15.2500  33.5000 Du        
   6664 ****        12.0000 -15.2500  33.7500 Du        
   6665 ****        12.0000 -15.2500  34.0000 Du        
   6666 ****        12.0000 -15.2500  34.2500 Du        
   6667 ****        12.0000 -15.2500  34.5000 Du        
   6668 ****        12.0000 -15.0000  31.5000 Du        
   6669 ****        12.0000 -15.0000  31.7500 Du        
   6670 ****        12.0000 -15.0000  32.0000 Du        
   6671 ****        12.0000 -15.0000  32.2500 Du        
   6672 ****        12.0000 -15.0000  32.5000 Du        
   6673 ****        12.0000 -15.0000  32.7500 Du        
   6674 ****        12.0000 -15.0000  33.0000 Du        
   6675 ****        12.0000 -15.0000  33.2500 Du        
   6676 ****        12.0000 -15.0000  33.5000 Du        
   6677 ****        12.0000 -15.0000  33.7500 Du        
   6678 ****        12.0000 -15.0000  34.0000 Du        
   6679 ****        12.0000 -15.0000  34.2500 Du        
   6680 ****        12.0000 -14.7500  31.5000 Du        
   6681 ****        12.0000 -14.7500  31.7500 Du        
   6682 ****        12.0000 -14.7500  32.0000 Du        
   6683 ****        12.0000 -14.7500  32.2500 Du        
   6684 ****        12.0000 -14.7500  32.5000 Du        
   6685 ****        12.0000 -14.7500  32.7500 Du        
   6686 ****        12.0000 -14.7500  33.0000 Du        
   6687 ****        12.0000 -14.7500  33.2500 Du        
   6688 ****        12.0000 -14.7500  33.5000 Du        
   6689 ****        12.0000 -14.7500  33.7500 Du        
   6690 ****        12.0000 -14.7500  34.0000 Du        
   6691 ****        12.0000 -14.5000  31.2500 Du        
   6692 ****        12.0000 -14.5000  31.5000 Du        
   6693 ****        12.0000 -14.5000  31.7500 Du        
   6694 ****        12.0000 -14.5000  32.0000 Du        
   6695 ****        12.0000 -14.5000  32.2500 Du        
   6696 ****        12.0000 -14.5000  32.5000 Du        
   6697 ****        12.0000 -14.5000  32.7500 Du        
   6698 ****        12.0000 -14.5000  33.0000 Du        
   6699 ****        12.0000 -14.5000  33.2500 Du        
   6700 ****        12.0000 -14.5000  33.5000 Du        
   6701 ****        12.0000 -14.5000  33.7500 Du        
   6702 ****        12.0000 -14.2500  31.0000 Du        
   6703 ****        12.0000 -14.2500  31.2500 Du        
   6704 ****        12.0000 -14.2500  31.7500 Du        
   6705 ****        12.0000 -14.2500  32.0000 Du        
   6706 ****        12.0000 -14.2500  32.2500 Du        
   6707 ****        12.0000 -14.2500  32.5000 Du        
   6708 ****        12.0000 -14.2500  32.7500 Du        
   6709 ****        12.0000 -14.2500  33.0000 Du        
   6710 ****        12.0000 -14.2500  33.2500 Du        
   6711 ****        12.0000 -14.2500  33.5000 Du        
   6712 ****        12.0000 -14.0000  31.0000 Du        
   6713 ****        12.0000 -14.0000  31.2500 Du        
   6714 ****        12.0000 -14.0000  31.7500 Du        
   6715 ****        12.0000 -14.0000  32.0000 Du        
   6716 ****        12.0000 -14.0000  32.2500 Du        
   6717 ****        12.0000 -14.0000  32.5000 Du        
   6718 ****        12.0000 -14.0000  32.7500 Du        
   6719 ****        12.0000 -14.0000  33.0000 Du        
   6720 ****        12.0000 -14.0000  33.2500 Du        
   6721 ****        12.0000 -14.0000  33.5000 Du        
   6722 ****        12.0000 -13.7500  32.0000 Du        
   6723 ****        12.0000 -13.7500  32.2500 Du        
   6724 ****        12.0000 -13.7500  32.5000 Du        
   6725 ****        12.0000 -13.7500  32.7500 Du        
   6726 ****        12.0000 -13.7500  33.0000 Du        
   6727 ****        12.0000 -13.7500  33.2500 Du        
   6728 ****        12.0000 -13.5000  32.5000 Du        
   6729 ****        12.0000 -13.5000  32.7500 Du        
   6730 ****        12.0000 -13.5000  33.0000 Du        
   6731 ****        12.0000 -13.2500  32.5000 Du        
   6732 ****        12.0000 -13.2500  32.7500 Du        
   6733 ****        12.0000 -13.2500  33.0000 Du        
   6734 ****        12.0000 -13.0000  32.5000 Du        
   6735 ****        12.0000 -13.0000  32.7500 Du        
   6736 ****        12.0000 -12.2500  30.0000 Du        
   6737 ****        12.0000 -12.0000  30.0000 Du        
   6738 ****        12.0000 -10.5000  32.7500 Du        
   6739 ****        12.0000 -10.5000  33.0000 Du        
   6740 ****        12.0000 -10.5000  33.2500 Du        
   6741 ****        12.0000 -10.5000  33.5000 Du        
   6742 ****        12.0000 -10.2500  32.5000 Du        
   6743 ****        12.0000 -10.2500  32.7500 Du        
   6744 ****        12.0000 -10.2500  33.0000 Du        
   6745 ****        12.0000 -10.2500  33.2500 Du        
   6746 ****        12.0000 -10.2500  33.5000 Du        
   6747 ****        12.0000 -10.2500  33.7500 Du        
   6748 ****        12.0000 -10.2500  34.0000 Du        
   6749 ****        12.0000 -10.0000  32.0000 Du        
   6750 ****        12.0000 -10.0000  32.2500 Du        
   6751 ****        12.0000 -10.0000  32.5000 Du        
   6752 ****        12.0000 -10.0000  32.7500 Du        
   6753 ****        12.0000 -10.0000  33.0000 Du        
   6754 ****        12.0000 -10.0000  33.2500 Du        
   6755 ****        12.0000 -10.0000  33.5000 Du        
   6756 ****        12.0000 -10.0000  33.7500 Du        
   6757 ****        12.0000 -10.0000  34.0000 Du        
   6758 ****        12.0000 -10.0000  34.2500 Du        
   6759 ****        12.0000 -10.0000  34.5000 Du        
   6760 ****        12.0000 -10.0000  34.7500 Du        
   6761 ****        12.0000 -10.0000  35.0000 Du        
   6762 ****        12.0000  -9.7500  31.7500 Du        
   6763 ****        12.0000  -9.7500  32.0000 Du        
   6764 ****        12.0000  -9.7500  32.2500 Du        
   6765 ****        12.0000  -9.7500  32.5000 Du        
   6766 ****        12.0000  -9.7500  32.7500 Du        
   6767 ****        12.0000  -9.7500  33.0000 Du        
   6768 ****        12.0000  -9.7500  33.2500 Du        
   6769 ****        12.0000  -9.7500  33.5000 Du        
   6770 ****        12.0000  -9.7500  33.7500 Du        
   6771 ****        12.0000  -9.7500  34.0000 Du        
   6772 ****        12.0000  -9.7500  34.2500 Du        
   6773 ****        12.0000  -9.7500  34.5000 Du        
   6774 ****        12.0000  -9.7500  34.7500 Du        
   6775 ****        12.0000  -9.7500  35.0000 Du        
   6776 ****        12.0000  -9.7500  35.2500 Du        
   6777 ****        12.0000  -9.7500  35.5000 Du        
   6778 ****        12.0000  -9.5000  29.0000 Du        
   6779 ****        12.0000  -9.5000  31.7500 Du        
   6780 ****        12.0000  -9.5000  32.0000 Du        
   6781 ****        12.0000  -9.5000  32.2500 Du        
   6782 ****        12.0000  -9.5000  32.5000 Du        
   6783 ****        12.0000  -9.5000  32.7500 Du        
   6784 ****        12.0000  -9.5000  33.0000 Du        
   6785 ****        12.0000  -9.5000  33.2500 Du        
   6786 ****        12.0000  -9.5000  33.5000 Du        
   6787 ****        12.0000  -9.5000  33.7500 Du        
   6788 ****        12.0000  -9.5000  34.0000 Du        
   6789 ****        12.0000  -9.5000  34.2500 Du        
   6790 ****        12.0000  -9.5000  34.5000 Du        
   6791 ****        12.0000  -9.5000  34.7500 Du        
   6792 ****        12.0000  -9.5000  35.0000 Du        
   6793 ****        12.0000  -9.5000  35.2500 Du        
   6794 ****        12.0000  -9.5000  35.5000 Du        
   6795 ****        12.0000  -9.5000  35.7500 Du        
   6796 ****        12.0000  -9.2500  28.7500 Du        
   6797 ****        12.0000  -9.2500  29.0000 Du        
   6798 ****        12.0000  -9.2500  29.2500 Du        
   6799 ****        12.0000  -9.2500  31.2500 Du        
   6800 ****        12.0000  -9.2500  31.5000 Du        
   6801 ****        12.0000  -9.2500  31.7500 Du        
   6802 ****        12.0000  -9.2500  32.0000 Du        
   6803 ****        12.0000  -9.2500  32.2500 Du        
   6804 ****        12.0000  -9.2500  32.5000 Du        
   6805 ****        12.0000  -9.2500  32.7500 Du        
   6806 ****        12.0000  -9.2500  33.0000 Du        
   6807 ****        12.0000  -9.2500  33.2500 Du        
   6808 ****        12.0000  -9.2500  33.5000 Du        
   6809 ****        12.0000  -9.2500  33.7500 Du        
   6810 ****        12.0000  -9.2500  34.0000 Du        
   6811 ****        12.0000  -9.2500  34.2500 Du        
   6812 ****        12.0000  -9.2500  34.5000 Du        
   6813 ****        12.0000  -9.2500  34.7500 Du        
   6814 ****        12.0000  -9.2500  35.0000 Du        
   6815 ****        12.0000  -9.2500  35.2500 Du        
   6816 ****        12.0000  -9.2500  35.5000 Du        
   6817 ****        12.0000  -9.2500  35.7500 Du        
   6818 ****        12.0000  -9.0000  28.2500 Du        
   6819 ****        12.0000  -9.0000  28.5000 Du        
   6820 ****        12.0000  -9.0000  28.7500 Du        
   6821 ****        12.0000  -9.0000  29.0000 Du        
   6822 ****        12.0000  -9.0000  29.2500 Du        
   6823 ****        12.0000  -9.0000  29.5000 Du        
   6824 ****        12.0000  -9.0000  29.7500 Du        
   6825 ****        12.0000  -9.0000  30.0000 Du        
   6826 ****        12.0000  -9.0000  30.2500 Du        
   6827 ****        12.0000  -9.0000  30.5000 Du        
   6828 ****        12.0000  -9.0000  30.7500 Du        
   6829 ****        12.0000  -9.0000  31.0000 Du        
   6830 ****        12.0000  -9.0000  31.2500 Du        
   6831 ****        12.0000  -9.0000  31.5000 Du        
   6832 ****        12.0000  -9.0000  31.7500 Du        
   6833 ****        12.0000  -9.0000  32.0000 Du        
   6834 ****        12.0000  -9.0000  32.2500 Du        
   6835 ****        12.0000  -9.0000  32.5000 Du        
   6836 ****        12.0000  -9.0000  32.7500 Du        
   6837 ****        12.0000  -9.0000  33.0000 Du        
   6838 ****        12.0000  -9.0000  33.2500 Du        
   6839 ****        12.0000  -9.0000  33.5000 Du        
   6840 ****        12.0000  -9.0000  33.7500 Du        
   6841 ****        12.0000  -9.0000  34.0000 Du        
   6842 ****        12.0000  -9.0000  34.2500 Du        
   6843 ****        12.0000  -9.0000  34.5000 Du        
   6844 ****        12.0000  -9.0000  34.7500 Du        
   6845 ****        12.0000  -9.0000  35.0000 Du        
   6846 ****        12.0000  -9.0000  35.2500 Du        
   6847 ****        12.0000  -8.7500  28.5000 Du        
   6848 ****        12.0000  -8.7500  28.7500 Du        
   6849 ****        12.0000  -8.7500  29.5000 Du        
   6850 ****        12.0000  -8.7500  29.7500 Du        
   6851 ****        12.0000  -8.7500  30.0000 Du        
   6852 ****        12.0000  -8.7500  30.2500 Du        
   6853 ****        12.0000  -8.7500  30.5000 Du        
   6854 ****        12.0000  -8.7500  30.7500 Du        
   6855 ****        12.0000  -8.7500  31.0000 Du        
   6856 ****        12.0000  -8.7500  31.2500 Du        
   6857 ****        12.0000  -8.7500  31.5000 Du        
   6858 ****        12.0000  -8.7500  31.7500 Du        
   6859 ****        12.0000  -8.7500  32.0000 Du        
   6860 ****        12.0000  -8.7500  32.2500 Du        
   6861 ****        12.0000  -8.7500  32.5000 Du        
   6862 ****        12.0000  -8.7500  32.7500 Du        
   6863 ****        12.0000  -8.7500  33.0000 Du        
   6864 ****        12.0000  -8.7500  33.2500 Du        
   6865 ****        12.0000  -8.7500  33.5000 Du        
   6866 ****        12.0000  -8.7500  33.7500 Du        
   6867 ****        12.0000  -8.7500  34.0000 Du        
   6868 ****        12.0000  -8.7500  34.2500 Du        
   6869 ****        12.0000  -8.7500  34.5000 Du        
   6870 ****        12.0000  -8.7500  34.7500 Du        
   6871 ****        12.0000  -8.5000  29.0000 Du        
   6872 ****        12.0000  -8.5000  29.2500 Du        
   6873 ****        12.0000  -8.5000  30.0000 Du        
   6874 ****        12.0000  -8.5000  30.2500 Du        
   6875 ****        12.0000  -8.5000  30.5000 Du        
   6876 ****        12.0000  -8.5000  30.7500 Du        
   6877 ****        12.0000  -8.5000  31.0000 Du        
   6878 ****        12.0000  -8.5000  31.2500 Du        
   6879 ****        12.0000  -8.5000  31.5000 Du        
   6880 ****        12.0000  -8.5000  31.7500 Du        
   6881 ****        12.0000  -8.5000  32.0000 Du        
   6882 ****        12.0000  -8.5000  32.2500 Du        
   6883 ****        12.0000  -8.5000  32.5000 Du        
   6884 ****        12.0000  -8.5000  32.7500 Du        
   6885 ****        12.0000  -8.5000  33.0000 Du        
   6886 ****        12.0000  -8.5000  33.2500 Du        
   6887 ****        12.0000  -8.5000  33.5000 Du        
   6888 ****        12.0000  -8.5000  33.7500 Du        
   6889 ****        12.0000  -8.5000  34.0000 Du        
   6890 ****        12.0000  -8.5000  34.2500 Du        
   6891 ****        12.0000  -8.5000  34.5000 Du        
   6892 ****        12.0000  -8.2500  30.2500 Du        
   6893 ****        12.0000  -8.2500  30.5000 Du        
   6894 ****        12.0000  -8.2500  30.7500 Du        
   6895 ****        12.0000  -8.2500  31.0000 Du        
   6896 ****        12.0000  -8.2500  31.2500 Du        
   6897 ****        12.0000  -8.2500  31.5000 Du        
   6898 ****        12.0000  -8.2500  31.7500 Du        
   6899 ****        12.0000  -8.2500  32.0000 Du        
   6900 ****        12.0000  -8.2500  32.2500 Du        
   6901 ****        12.0000  -8.2500  32.5000 Du        
   6902 ****        12.0000  -8.2500  32.7500 Du        
   6903 ****        12.0000  -8.2500  33.0000 Du        
   6904 ****        12.0000  -8.2500  33.2500 Du        
   6905 ****        12.0000  -8.2500  33.5000 Du        
   6906 ****        12.0000  -8.2500  33.7500 Du        
   6907 ****        12.0000  -8.2500  34.0000 Du        
   6908 ****        12.0000  -8.2500  34.2500 Du        
   6909 ****        12.0000  -8.0000  30.5000 Du        
   6910 ****        12.0000  -8.0000  30.7500 Du        
   6911 ****        12.0000  -8.0000  31.0000 Du        
   6912 ****        12.0000  -8.0000  31.2500 Du        
   6913 ****        12.0000  -8.0000  31.5000 Du        
   6914 ****        12.0000  -8.0000  31.7500 Du        
   6915 ****        12.0000  -8.0000  32.0000 Du        
   6916 ****        12.0000  -8.0000  32.2500 Du        
   6917 ****        12.0000  -8.0000  32.5000 Du        
   6918 ****        12.0000  -8.0000  32.7500 Du        
   6919 ****        12.0000  -8.0000  33.0000 Du        
   6920 ****        12.0000  -8.0000  33.2500 Du        
   6921 ****        12.0000  -8.0000  33.5000 Du        
   6922 ****        12.0000  -8.0000  33.7500 Du        
   6923 ****        12.0000  -8.0000  34.0000 Du        
   6924 ****        12.0000  -7.7500  31.0000 Du        
   6925 ****        12.0000  -7.7500  31.2500 Du        
   6926 ****        12.0000  -7.7500  31.5000 Du        
   6927 ****        12.0000  -7.7500  31.7500 Du        
   6928 ****        12.0000  -7.7500  32.0000 Du        
   6929 ****        12.0000  -7.7500  32.2500 Du        
   6930 ****        12.0000  -7.7500  32.5000 Du        
   6931 ****        12.0000  -7.7500  32.7500 Du        
   6932 ****        12.0000  -7.7500  33.0000 Du        
   6933 ****        12.0000  -7.7500  33.2500 Du        
   6934 ****        12.0000  -7.7500  33.5000 Du        
   6935 ****        12.0000  -7.7500  33.7500 Du        
   6936 ****        12.0000  -7.7500  34.0000 Du        
   6937 ****        12.0000  -7.5000  31.2500 Du        
   6938 ****        12.0000  -7.5000  31.5000 Du        
   6939 ****        12.0000  -7.5000  31.7500 Du        
   6940 ****        12.0000  -7.5000  32.0000 Du        
   6941 ****        12.0000  -7.5000  32.2500 Du        
   6942 ****        12.0000  -7.5000  32.5000 Du        
   6943 ****        12.0000  -7.5000  32.7500 Du        
   6944 ****        12.0000  -7.5000  33.0000 Du        
   6945 ****        12.0000  -7.5000  33.2500 Du        
   6946 ****        12.0000  -7.5000  33.5000 Du        
   6947 ****        12.0000  -7.5000  33.7500 Du        
   6948 ****        12.0000  -7.2500  31.5000 Du        
   6949 ****        12.0000  -7.2500  31.7500 Du        
   6950 ****        12.0000  -7.2500  32.0000 Du        
   6951 ****        12.0000  -7.2500  32.2500 Du        
   6952 ****        12.0000  -7.2500  32.5000 Du        
   6953 ****        12.0000  -7.2500  32.7500 Du        
   6954 ****        12.0000  -7.2500  33.0000 Du        
   6955 ****        12.0000  -7.2500  33.2500 Du        
   6956 ****        12.0000  -7.2500  33.5000 Du        
   6957 ****        12.0000  -7.0000  31.7500 Du        
   6958 ****        12.0000  -7.0000  32.0000 Du        
   6959 ****        12.0000  -7.0000  32.2500 Du        
   6960 ****        12.0000  -7.0000  32.5000 Du        
   6961 ****        12.0000  -7.0000  32.7500 Du        
   6962 ****        12.0000  -7.0000  33.0000 Du        
   6963 ****        12.0000  -7.0000  33.2500 Du        
   6964 ****        12.0000  -7.0000  33.5000 Du        
   6965 ****        12.0000  -4.2500  25.5000 Du        
   6966 ****        12.0000  -4.2500  25.7500 Du        
   6967 ****        12.0000  -4.2500  26.0000 Du        
   6968 ****        12.0000  -4.0000  25.5000 Du        
   6969 ****        12.0000  -4.0000  25.7500 Du        
   6970 ****        12.0000  -4.0000  26.0000 Du        
   6971 ****        12.0000  -3.7500  25.5000 Du        
   6972 ****        12.0000  -3.7500  25.7500 Du        
   6973 ****        12.0000  -3.5000  25.5000 Du        
   6974 ****        12.0000   7.5000  25.2500 Du        
   6975 ****        12.0000   7.5000  25.5000 Du        
   6976 ****        12.0000   7.5000  25.7500 Du        
   6977 ****        12.0000   7.5000  26.0000 Du        
   6978 ****        12.0000   7.7500  25.2500 Du        
   6979 ****        12.0000   7.7500  25.5000 Du        
   6980 ****        12.0000   7.7500  25.7500 Du        
   6981 ****        12.0000   7.7500  26.0000 Du        
   6982 ****        12.0000   7.7500  26.2500 Du        
   6983 ****        12.0000   7.7500  26.5000 Du        
   6984 ****        12.0000   8.0000  25.2500 Du        
   6985 ****        12.0000   8.0000  25.5000 Du        
   6986 ****        12.0000   8.0000  25.7500 Du        
   6987 ****        12.0000   8.0000  26.0000 Du        
   6988 ****        12.0000   8.0000  26.2500 Du        
   6989 ****        12.0000   8.2500  25.5000 Du        
   6990 ****        12.0000   8.2500  25.7500 Du        
   6991 ****        12.0000   9.0000  19.0000 Du        
   6992 ****        12.0000   9.0000  19.5000 Du        
   6993 ****        12.0000   9.2500  19.0000 Du        
   6994 ****        12.0000   9.2500  19.2500 Du        
   6995 ****        12.0000   9.2500  19.5000 Du        
   6996 ****        12.0000   9.5000  19.0000 Du        
   6997 ****        12.0000   9.5000  19.2500 Du        
   6998 ****        12.0000   9.5000  19.5000 Du        
   6999 ****        12.0000   9.7500  19.0000 Du        
   7000 ****        12.0000   9.7500  19.2500 Du        
   7001 ****        12.0000   9.7500  19.5000 Du        
   7002 ****        12.0000   9.7500  19.7500 Du        
   7003 ****        12.0000  10.0000  19.0000 Du        
   7004 ****        12.0000  10.0000  19.2500 Du        
   7005 ****        12.0000  10.0000  19.5000 Du        
   7006 ****        12.0000  16.2500  37.7500 Du        
   7007 ****        12.0000  16.5000  37.7500 Du        
   7008 ****        12.0000  16.5000  38.0000 Du        
   7009 ****        12.0000  16.7500  37.5000 Du        
   7010 ****        12.0000  16.7500  37.7500 Du        
   7011 ****        12.0000  16.7500  38.0000 Du        
   7012 ****        12.0000  16.7500  38.2500 Du        
   7013 ****        12.0000  17.0000  37.5000 Du        
   7014 ****        12.0000  17.0000  37.7500 Du        
   7015 ****        12.0000  17.0000  38.0000 Du        
   7016 ****        12.0000  17.0000  38.2500 Du        
   7017 ****        12.0000  17.2500  37.7500 Du        
   7018 ****        12.0000  17.2500  38.0000 Du        
   7019 ****        12.0000  17.2500  38.2500 Du        
   7020 ****        12.0000  17.5000  37.7500 Du        
   7021 ****        12.0000  19.0000  36.7500 Du        
   7022 ****        12.0000  19.0000  37.0000 Du        
   7023 ****        12.0000  19.2500  36.2500 Du        
   7024 ****        12.0000  19.2500  36.5000 Du        
   7025 ****        12.0000  19.2500  36.7500 Du        
   7026 ****        12.0000  19.2500  37.0000 Du        
   7027 ****        12.0000  19.5000  36.2500 Du        
   7028 ****        12.0000  19.5000  36.5000 Du        
   7029 ****        12.0000  19.5000  36.7500 Du        
   7030 ****        12.0000  19.5000  37.0000 Du        
   7031 ****        12.0000  19.7500  36.2500 Du        
   7032 ****        12.0000  19.7500  36.5000 Du        
   7033 ****        12.0000  19.7500  36.7500 Du        
   7034 ****        12.0000  19.7500  37.0000 Du        
   7035 ****        12.0000  19.7500  37.2500 Du        
   7036 ****        12.0000  20.0000  36.7500 Du        
   7037 ****        12.0000  20.0000  37.0000 Du        
   7038 ****        12.2500 -16.7500  34.5000 Du        
   7039 ****        12.2500 -16.5000  33.7500 Du        
   7040 ****        12.2500 -16.5000  34.0000 Du        
   7041 ****        12.2500 -16.5000  34.2500 Du        
   7042 ****        12.2500 -16.5000  34.5000 Du        
   7043 ****        12.2500 -16.2500  32.0000 Du        
   7044 ****        12.2500 -16.2500  32.7500 Du        
   7045 ****        12.2500 -16.2500  33.0000 Du        
   7046 ****        12.2500 -16.2500  33.2500 Du        
   7047 ****        12.2500 -16.2500  33.5000 Du        
   7048 ****        12.2500 -16.2500  33.7500 Du        
   7049 ****        12.2500 -16.2500  34.0000 Du        
   7050 ****        12.2500 -16.2500  34.2500 Du        
   7051 ****        12.2500 -16.2500  34.5000 Du        
   7052 ****        12.2500 -16.0000  31.5000 Du        
   7053 ****        12.2500 -16.0000  31.7500 Du        
   7054 ****        12.2500 -16.0000  32.0000 Du        
   7055 ****        12.2500 -16.0000  32.2500 Du        
   7056 ****        12.2500 -16.0000  32.5000 Du        
   7057 ****        12.2500 -16.0000  32.7500 Du        
   7058 ****        12.2500 -16.0000  33.0000 Du        
   7059 ****        12.2500 -16.0000  33.2500 Du        
   7060 ****        12.2500 -16.0000  33.5000 Du        
   7061 ****        12.2500 -16.0000  33.7500 Du        
   7062 ****        12.2500 -16.0000  34.0000 Du        
   7063 ****        12.2500 -16.0000  34.2500 Du        
   7064 ****        12.2500 -16.0000  34.5000 Du        
   7065 ****        12.2500 -15.7500  31.2500 Du        
   7066 ****        12.2500 -15.7500  31.5000 Du        
   7067 ****        12.2500 -15.7500  31.7500 Du        
   7068 ****        12.2500 -15.7500  32.0000 Du        
   7069 ****        12.2500 -15.7500  32.2500 Du        
   7070 ****        12.2500 -15.7500  32.5000 Du        
   7071 ****        12.2500 -15.7500  32.7500 Du        
   7072 ****        12.2500 -15.7500  33.0000 Du        
   7073 ****        12.2500 -15.7500  33.2500 Du        
   7074 ****        12.2500 -15.7500  33.5000 Du        
   7075 ****        12.2500 -15.7500  33.7500 Du        
   7076 ****        12.2500 -15.7500  34.0000 Du        
   7077 ****        12.2500 -15.7500  34.2500 Du        
   7078 ****        12.2500 -15.7500  34.5000 Du        
   7079 ****        12.2500 -15.5000  31.5000 Du        
   7080 ****        12.2500 -15.5000  31.7500 Du        
   7081 ****        12.2500 -15.5000  32.0000 Du        
   7082 ****        12.2500 -15.5000  32.2500 Du        
   7083 ****        12.2500 -15.5000  32.5000 Du        
   7084 ****        12.2500 -15.5000  32.7500 Du        
   7085 ****        12.2500 -15.5000  33.0000 Du        
   7086 ****        12.2500 -15.5000  33.2500 Du        
   7087 ****        12.2500 -15.5000  33.5000 Du        
   7088 ****        12.2500 -15.5000  33.7500 Du        
   7089 ****        12.2500 -15.5000  34.0000 Du        
   7090 ****        12.2500 -15.5000  34.2500 Du        
   7091 ****        12.2500 -15.5000  34.5000 Du        
   7092 ****        12.2500 -15.5000  34.7500 Du        
   7093 ****        12.2500 -15.2500  31.5000 Du        
   7094 ****        12.2500 -15.2500  31.7500 Du        
   7095 ****        12.2500 -15.2500  32.0000 Du        
   7096 ****        12.2500 -15.2500  32.2500 Du        
   7097 ****        12.2500 -15.2500  32.5000 Du        
   7098 ****        12.2500 -15.2500  32.7500 Du        
   7099 ****        12.2500 -15.2500  33.0000 Du        
   7100 ****        12.2500 -15.2500  33.2500 Du        
   7101 ****        12.2500 -15.2500  33.5000 Du        
   7102 ****        12.2500 -15.2500  33.7500 Du        
   7103 ****        12.2500 -15.2500  34.0000 Du        
   7104 ****        12.2500 -15.2500  34.2500 Du        
   7105 ****        12.2500 -15.2500  34.5000 Du        
   7106 ****        12.2500 -15.2500  34.7500 Du        
   7107 ****        12.2500 -15.0000  31.7500 Du        
   7108 ****        12.2500 -15.0000  32.0000 Du        
   7109 ****        12.2500 -15.0000  32.2500 Du        
   7110 ****        12.2500 -15.0000  32.5000 Du        
   7111 ****        12.2500 -15.0000  32.7500 Du        
   7112 ****        12.2500 -15.0000  33.0000 Du        
   7113 ****        12.2500 -15.0000  33.2500 Du        
   7114 ****        12.2500 -15.0000  33.5000 Du        
   7115 ****        12.2500 -15.0000  33.7500 Du        
   7116 ****        12.2500 -15.0000  34.0000 Du        
   7117 ****        12.2500 -15.0000  34.2500 Du        
   7118 ****        12.2500 -15.0000  34.5000 Du        
   7119 ****        12.2500 -15.0000  34.7500 Du        
   7120 ****        12.2500 -14.7500  32.0000 Du        
   7121 ****        12.2500 -14.7500  32.2500 Du        
   7122 ****        12.2500 -14.7500  32.5000 Du        
   7123 ****        12.2500 -14.7500  32.7500 Du        
   7124 ****        12.2500 -14.7500  33.0000 Du        
   7125 ****        12.2500 -14.7500  33.2500 Du        
   7126 ****        12.2500 -14.7500  33.5000 Du        
   7127 ****        12.2500 -14.7500  33.7500 Du        
   7128 ****        12.2500 -14.7500  34.0000 Du        
   7129 ****        12.2500 -14.7500  34.2500 Du        
   7130 ****        12.2500 -14.7500  34.5000 Du        
   7131 ****        12.2500 -14.5000  32.0000 Du        
   7132 ****        12.2500 -14.5000  32.2500 Du        
   7133 ****        12.2500 -14.5000  32.5000 Du        
   7134 ****        12.2500 -14.5000  32.7500 Du        
   7135 ****        12.2500 -14.5000  33.0000 Du        
   7136 ****        12.2500 -14.5000  33.2500 Du        
   7137 ****        12.2500 -14.5000  33.5000 Du        
   7138 ****        12.2500 -14.5000  33.7500 Du        
   7139 ****        12.2500 -14.5000  34.0000 Du        
   7140 ****        12.2500 -14.5000  34.2500 Du        
   7141 ****        12.2500 -14.2500  32.0000 Du        
   7142 ****        12.2500 -14.2500  32.2500 Du        
   7143 ****        12.2500 -14.2500  32.5000 Du        
   7144 ****        12.2500 -14.2500  32.7500 Du        
   7145 ****        12.2500 -14.2500  33.0000 Du        
   7146 ****        12.2500 -14.2500  33.2500 Du        
   7147 ****        12.2500 -14.2500  33.5000 Du        
   7148 ****        12.2500 -14.2500  33.7500 Du        
   7149 ****        12.2500 -14.2500  34.0000 Du        
   7150 ****        12.2500 -14.0000  32.0000 Du        
   7151 ****        12.2500 -14.0000  32.2500 Du        
   7152 ****        12.2500 -14.0000  32.5000 Du        
   7153 ****        12.2500 -14.0000  32.7500 Du        
   7154 ****        12.2500 -14.0000  33.0000 Du        
   7155 ****        12.2500 -14.0000  33.2500 Du        
   7156 ****        12.2500 -14.0000  33.5000 Du        
   7157 ****        12.2500 -14.0000  33.7500 Du        
   7158 ****        12.2500 -13.7500  32.5000 Du        
   7159 ****        12.2500 -13.7500  32.7500 Du        
   7160 ****        12.2500 -13.7500  33.0000 Du        
   7161 ****        12.2500 -13.7500  33.2500 Du        
   7162 ****        12.2500 -13.7500  33.5000 Du        
   7163 ****        12.2500 -13.5000  32.7500 Du        
   7164 ****        12.2500 -13.5000  33.0000 Du        
   7165 ****        12.2500 -13.5000  33.2500 Du        
   7166 ****        12.2500 -13.2500  32.7500 Du        
   7167 ****        12.2500 -13.2500  33.0000 Du        
   7168 ****        12.2500 -10.7500  33.0000 Du        
   7169 ****        12.2500 -10.5000  32.5000 Du        
   7170 ****        12.2500 -10.5000  32.7500 Du        
   7171 ****        12.2500 -10.5000  33.0000 Du        
   7172 ****        12.2500 -10.5000  33.2500 Du        
   7173 ****        12.2500 -10.5000  33.5000 Du        
   7174 ****        12.2500 -10.5000  33.7500 Du        
   7175 ****        12.2500 -10.5000  34.0000 Du        
   7176 ****        12.2500 -10.2500  32.5000 Du        
   7177 ****        12.2500 -10.2500  32.7500 Du        
   7178 ****        12.2500 -10.2500  33.0000 Du        
   7179 ****        12.2500 -10.2500  33.2500 Du        
   7180 ****        12.2500 -10.2500  33.5000 Du        
   7181 ****        12.2500 -10.2500  33.7500 Du        
   7182 ****        12.2500 -10.2500  34.0000 Du        
   7183 ****        12.2500 -10.2500  34.2500 Du        
   7184 ****        12.2500 -10.2500  34.5000 Du        
   7185 ****        12.2500 -10.2500  34.7500 Du        
   7186 ****        12.2500 -10.0000  32.2500 Du        
   7187 ****        12.2500 -10.0000  32.5000 Du        
   7188 ****        12.2500 -10.0000  32.7500 Du        
   7189 ****        12.2500 -10.0000  33.0000 Du        
   7190 ****        12.2500 -10.0000  33.2500 Du        
   7191 ****        12.2500 -10.0000  33.5000 Du        
   7192 ****        12.2500 -10.0000  33.7500 Du        
   7193 ****        12.2500 -10.0000  34.0000 Du        
   7194 ****        12.2500 -10.0000  34.2500 Du        
   7195 ****        12.2500 -10.0000  34.5000 Du        
   7196 ****        12.2500 -10.0000  34.7500 Du        
   7197 ****        12.2500 -10.0000  35.0000 Du        
   7198 ****        12.2500 -10.0000  35.2500 Du        
   7199 ****        12.2500  -9.7500  31.7500 Du        
   7200 ****        12.2500  -9.7500  32.0000 Du        
   7201 ****        12.2500  -9.7500  32.2500 Du        
   7202 ****        12.2500  -9.7500  32.5000 Du        
   7203 ****        12.2500  -9.7500  32.7500 Du        
   7204 ****        12.2500  -9.7500  33.0000 Du        
   7205 ****        12.2500  -9.7500  33.2500 Du        
   7206 ****        12.2500  -9.7500  33.5000 Du        
   7207 ****        12.2500  -9.7500  33.7500 Du        
   7208 ****        12.2500  -9.7500  34.0000 Du        
   7209 ****        12.2500  -9.7500  34.2500 Du        
   7210 ****        12.2500  -9.7500  34.5000 Du        
   7211 ****        12.2500  -9.7500  34.7500 Du        
   7212 ****        12.2500  -9.7500  35.0000 Du        
   7213 ****        12.2500  -9.7500  35.2500 Du        
   7214 ****        12.2500  -9.7500  35.5000 Du        
   7215 ****        12.2500  -9.5000  29.0000 Du        
   7216 ****        12.2500  -9.5000  31.5000 Du        
   7217 ****        12.2500  -9.5000  31.7500 Du        
   7218 ****        12.2500  -9.5000  32.0000 Du        
   7219 ****        12.2500  -9.5000  32.2500 Du        
   7220 ****        12.2500  -9.5000  32.5000 Du        
   7221 ****        12.2500  -9.5000  32.7500 Du        
   7222 ****        12.2500  -9.5000  33.0000 Du        
   7223 ****        12.2500  -9.5000  33.2500 Du        
   7224 ****        12.2500  -9.5000  33.5000 Du        
   7225 ****        12.2500  -9.5000  33.7500 Du        
   7226 ****        12.2500  -9.5000  34.0000 Du        
   7227 ****        12.2500  -9.5000  34.2500 Du        
   7228 ****        12.2500  -9.5000  34.5000 Du        
   7229 ****        12.2500  -9.5000  34.7500 Du        
   7230 ****        12.2500  -9.5000  35.0000 Du        
   7231 ****        12.2500  -9.5000  35.2500 Du        
   7232 ****        12.2500  -9.5000  35.5000 Du        
   7233 ****        12.2500  -9.5000  35.7500 Du        
   7234 ****        12.2500  -9.2500  28.5000 Du        
   7235 ****        12.2500  -9.2500  28.7500 Du        
   7236 ****        12.2500  -9.2500  29.0000 Du        
   7237 ****        12.2500  -9.2500  29.2500 Du        
   7238 ****        12.2500  -9.2500  31.5000 Du        
   7239 ****        12.2500  -9.2500  31.7500 Du        
   7240 ****        12.2500  -9.2500  32.0000 Du        
   7241 ****        12.2500  -9.2500  32.2500 Du        
   7242 ****        12.2500  -9.2500  32.5000 Du        
   7243 ****        12.2500  -9.2500  32.7500 Du        
   7244 ****        12.2500  -9.2500  33.0000 Du        
   7245 ****        12.2500  -9.2500  33.2500 Du        
   7246 ****        12.2500  -9.2500  33.5000 Du        
   7247 ****        12.2500  -9.2500  33.7500 Du        
   7248 ****        12.2500  -9.2500  34.0000 Du        
   7249 ****        12.2500  -9.2500  34.2500 Du        
   7250 ****        12.2500  -9.2500  34.5000 Du        
   7251 ****        12.2500  -9.2500  34.7500 Du        
   7252 ****        12.2500  -9.2500  35.0000 Du        
   7253 ****        12.2500  -9.2500  35.2500 Du        
   7254 ****        12.2500  -9.2500  35.5000 Du        
   7255 ****        12.2500  -9.0000  28.5000 Du        
   7256 ****        12.2500  -9.0000  30.7500 Du        
   7257 ****        12.2500  -9.0000  31.0000 Du        
   7258 ****        12.2500  -9.0000  31.2500 Du        
   7259 ****        12.2500  -9.0000  31.5000 Du        
   7260 ****        12.2500  -9.0000  31.7500 Du        
   7261 ****        12.2500  -9.0000  32.0000 Du        
   7262 ****        12.2500  -9.0000  32.2500 Du        
   7263 ****        12.2500  -9.0000  32.5000 Du        
   7264 ****        12.2500  -9.0000  32.7500 Du        
   7265 ****        12.2500  -9.0000  33.0000 Du        
   7266 ****        12.2500  -9.0000  33.2500 Du        
   7267 ****        12.2500  -9.0000  33.5000 Du        
   7268 ****        12.2500  -9.0000  33.7500 Du        
   7269 ****        12.2500  -9.0000  34.0000 Du        
   7270 ****        12.2500  -9.0000  34.2500 Du        
   7271 ****        12.2500  -9.0000  34.5000 Du        
   7272 ****        12.2500  -9.0000  34.7500 Du        
   7273 ****        12.2500  -9.0000  35.0000 Du        
   7274 ****        12.2500  -9.0000  35.2500 Du        
   7275 ****        12.2500  -8.7500  29.5000 Du        
   7276 ****        12.2500  -8.7500  29.7500 Du        
   7277 ****        12.2500  -8.7500  30.5000 Du        
   7278 ****        12.2500  -8.7500  30.7500 Du        
   7279 ****        12.2500  -8.7500  31.0000 Du        
   7280 ****        12.2500  -8.7500  31.2500 Du        
   7281 ****        12.2500  -8.7500  31.5000 Du        
   7282 ****        12.2500  -8.7500  31.7500 Du        
   7283 ****        12.2500  -8.7500  32.0000 Du        
   7284 ****        12.2500  -8.7500  32.2500 Du        
   7285 ****        12.2500  -8.7500  32.5000 Du        
   7286 ****        12.2500  -8.7500  32.7500 Du        
   7287 ****        12.2500  -8.7500  33.0000 Du        
   7288 ****        12.2500  -8.7500  33.2500 Du        
   7289 ****        12.2500  -8.7500  33.5000 Du        
   7290 ****        12.2500  -8.7500  33.7500 Du        
   7291 ****        12.2500  -8.7500  34.0000 Du        
   7292 ****        12.2500  -8.7500  34.2500 Du        
   7293 ****        12.2500  -8.7500  34.5000 Du        
   7294 ****        12.2500  -8.7500  34.7500 Du        
   7295 ****        12.2500  -8.5000  30.2500 Du        
   7296 ****        12.2500  -8.5000  30.5000 Du        
   7297 ****        12.2500  -8.5000  30.7500 Du        
   7298 ****        12.2500  -8.5000  31.0000 Du        
   7299 ****        12.2500  -8.5000  31.2500 Du        
   7300 ****        12.2500  -8.5000  31.5000 Du        
   7301 ****        12.2500  -8.5000  31.7500 Du        
   7302 ****        12.2500  -8.5000  32.0000 Du        
   7303 ****        12.2500  -8.5000  32.2500 Du        
   7304 ****        12.2500  -8.5000  32.5000 Du        
   7305 ****        12.2500  -8.5000  32.7500 Du        
   7306 ****        12.2500  -8.5000  33.0000 Du        
   7307 ****        12.2500  -8.5000  33.2500 Du        
   7308 ****        12.2500  -8.5000  33.5000 Du        
   7309 ****        12.2500  -8.5000  33.7500 Du        
   7310 ****        12.2500  -8.5000  34.0000 Du        
   7311 ****        12.2500  -8.5000  34.2500 Du        
   7312 ****        12.2500  -8.5000  34.5000 Du        
   7313 ****        12.2500  -8.2500  30.0000 Du        
   7314 ****        12.2500  -8.2500  30.2500 Du        
   7315 ****        12.2500  -8.2500  30.5000 Du        
   7316 ****        12.2500  -8.2500  30.7500 Du        
   7317 ****        12.2500  -8.2500  31.0000 Du        
   7318 ****        12.2500  -8.2500  31.2500 Du        
   7319 ****        12.2500  -8.2500  31.5000 Du        
   7320 ****        12.2500  -8.2500  31.7500 Du        
   7321 ****        12.2500  -8.2500  32.0000 Du        
   7322 ****        12.2500  -8.2500  32.2500 Du        
   7323 ****        12.2500  -8.2500  32.5000 Du        
   7324 ****        12.2500  -8.2500  32.7500 Du        
   7325 ****        12.2500  -8.2500  33.0000 Du        
   7326 ****        12.2500  -8.2500  33.2500 Du        
   7327 ****        12.2500  -8.2500  33.5000 Du        
   7328 ****        12.2500  -8.2500  33.7500 Du        
   7329 ****        12.2500  -8.2500  34.0000 Du        
   7330 ****        12.2500  -8.2500  34.2500 Du        
   7331 ****        12.2500  -8.0000  30.5000 Du        
   7332 ****        12.2500  -8.0000  30.7500 Du        
   7333 ****        12.2500  -8.0000  31.0000 Du        
   7334 ****        12.2500  -8.0000  31.2500 Du        
   7335 ****        12.2500  -8.0000  31.5000 Du        
   7336 ****        12.2500  -8.0000  31.7500 Du        
   7337 ****        12.2500  -8.0000  32.0000 Du        
   7338 ****        12.2500  -8.0000  32.2500 Du        
   7339 ****        12.2500  -8.0000  32.5000 Du        
   7340 ****        12.2500  -8.0000  32.7500 Du        
   7341 ****        12.2500  -8.0000  33.0000 Du        
   7342 ****        12.2500  -8.0000  33.2500 Du        
   7343 ****        12.2500  -8.0000  33.5000 Du        
   7344 ****        12.2500  -8.0000  33.7500 Du        
   7345 ****        12.2500  -8.0000  34.0000 Du        
   7346 ****        12.2500  -7.7500  30.7500 Du        
   7347 ****        12.2500  -7.7500  31.0000 Du        
   7348 ****        12.2500  -7.7500  31.2500 Du        
   7349 ****        12.2500  -7.7500  31.5000 Du        
   7350 ****        12.2500  -7.7500  31.7500 Du        
   7351 ****        12.2500  -7.7500  32.0000 Du        
   7352 ****        12.2500  -7.7500  32.2500 Du        
   7353 ****        12.2500  -7.7500  32.5000 Du        
   7354 ****        12.2500  -7.7500  32.7500 Du        
   7355 ****        12.2500  -7.7500  33.0000 Du        
   7356 ****        12.2500  -7.7500  33.2500 Du        
   7357 ****        12.2500  -7.7500  33.5000 Du        
   7358 ****        12.2500  -7.7500  33.7500 Du        
   7359 ****        12.2500  -7.7500  34.0000 Du        
   7360 ****        12.2500  -7.5000  31.0000 Du        
   7361 ****        12.2500  -7.5000  31.2500 Du        
   7362 ****        12.2500  -7.5000  31.5000 Du        
   7363 ****        12.2500  -7.5000  31.7500 Du        
   7364 ****        12.2500  -7.5000  32.0000 Du        
   7365 ****        12.2500  -7.5000  32.2500 Du        
   7366 ****        12.2500  -7.5000  32.5000 Du        
   7367 ****        12.2500  -7.5000  32.7500 Du        
   7368 ****        12.2500  -7.5000  33.0000 Du        
   7369 ****        12.2500  -7.5000  33.2500 Du        
   7370 ****        12.2500  -7.5000  33.5000 Du        
   7371 ****        12.2500  -7.5000  33.7500 Du        
   7372 ****        12.2500  -7.2500  31.2500 Du        
   7373 ****        12.2500  -7.2500  31.5000 Du        
   7374 ****        12.2500  -7.2500  31.7500 Du        
   7375 ****        12.2500  -7.2500  32.0000 Du        
   7376 ****        12.2500  -7.2500  32.2500 Du        
   7377 ****        12.2500  -7.2500  32.5000 Du        
   7378 ****        12.2500  -7.2500  32.7500 Du        
   7379 ****        12.2500  -7.2500  33.0000 Du        
   7380 ****        12.2500  -7.2500  33.2500 Du        
   7381 ****        12.2500  -7.2500  33.5000 Du        
   7382 ****        12.2500  -7.0000  31.5000 Du        
   7383 ****        12.2500  -7.0000  31.7500 Du        
   7384 ****        12.2500  -7.0000  32.0000 Du        
   7385 ****        12.2500  -7.0000  32.2500 Du        
   7386 ****        12.2500  -7.0000  32.5000 Du        
   7387 ****        12.2500  -7.0000  32.7500 Du        
   7388 ****        12.2500  -7.0000  33.0000 Du        
   7389 ****        12.2500  -7.0000  33.2500 Du        
   7390 ****        12.2500  -4.2500  25.5000 Du        
   7391 ****        12.2500  -4.2500  25.7500 Du        
   7392 ****        12.2500  -4.0000  25.5000 Du        
   7393 ****        12.2500  -4.0000  25.7500 Du        
   7394 ****        12.2500  -3.7500  25.5000 Du        
   7395 ****        12.2500   7.7500  25.2500 Du        
   7396 ****        12.2500   7.7500  25.5000 Du        
   7397 ****        12.2500   7.7500  25.7500 Du        
   7398 ****        12.2500   7.7500  26.0000 Du        
   7399 ****        12.2500   7.7500  26.2500 Du        
   7400 ****        12.2500   7.7500  26.5000 Du        
   7401 ****        12.2500   8.0000  25.2500 Du        
   7402 ****        12.2500   8.0000  25.5000 Du        
   7403 ****        12.2500   8.0000  25.7500 Du        
   7404 ****        12.2500   8.0000  26.0000 Du        
   7405 ****        12.2500   8.0000  26.2500 Du        
   7406 ****        12.2500   8.0000  26.5000 Du        
   7407 ****        12.2500   8.2500  25.2500 Du        
   7408 ****        12.2500   8.2500  25.5000 Du        
   7409 ****        12.2500   8.2500  25.7500 Du        
   7410 ****        12.2500   8.2500  26.0000 Du        
   7411 ****        12.2500   8.5000  25.7500 Du        
   7412 ****        12.2500   9.0000  19.0000 Du        
   7413 ****        12.2500   9.0000  19.2500 Du        
   7414 ****        12.2500   9.0000  19.5000 Du        
   7415 ****        12.2500   9.0000  19.7500 Du        
   7416 ****        12.2500   9.2500  19.0000 Du        
   7417 ****        12.2500   9.2500  19.2500 Du        
   7418 ****        12.2500   9.2500  19.5000 Du        
   7419 ****        12.2500   9.2500  19.7500 Du        
   7420 ****        12.2500   9.5000  19.0000 Du        
   7421 ****        12.2500   9.5000  19.2500 Du        
   7422 ****        12.2500   9.5000  19.5000 Du        
   7423 ****        12.2500   9.5000  19.7500 Du        
   7424 ****        12.2500   9.7500  19.0000 Du        
   7425 ****        12.2500   9.7500  19.2500 Du        
   7426 ****        12.2500   9.7500  19.5000 Du        
   7427 ****        12.2500   9.7500  19.7500 Du        
   7428 ****        12.2500  10.0000  19.0000 Du        
   7429 ****        12.2500  10.0000  19.2500 Du        
   7430 ****        12.2500  10.0000  19.5000 Du        
   7431 ****        12.2500  16.2500  37.7500 Du        
   7432 ****        12.2500  16.2500  38.0000 Du        
   7433 ****        12.2500  16.5000  37.7500 Du        
   7434 ****        12.2500  16.5000  38.0000 Du        
   7435 ****        12.2500  16.7500  37.7500 Du        
   7436 ****        12.2500  16.7500  38.0000 Du        
   7437 ****        12.2500  16.7500  38.2500 Du        
   7438 ****        12.2500  16.7500  38.5000 Du        
   7439 ****        12.2500  17.0000  37.7500 Du        
   7440 ****        12.2500  17.0000  38.0000 Du        
   7441 ****        12.2500  17.0000  38.2500 Du        
   7442 ****        12.2500  17.0000  38.5000 Du        
   7443 ****        12.2500  17.0000  38.7500 Du        
   7444 ****        12.2500  17.2500  37.7500 Du        
   7445 ****        12.2500  17.2500  38.0000 Du        
   7446 ****        12.2500  17.2500  38.2500 Du        
   7447 ****        12.2500  19.2500  36.2500 Du        
   7448 ****        12.2500  19.5000  36.2500 Du        
   7449 ****        12.2500  19.5000  36.5000 Du        
   7450 ****        12.2500  19.5000  36.7500 Du        
   7451 ****        12.2500  19.5000  37.0000 Du        
   7452 ****        12.2500  19.7500  36.0000 Du        
   7453 ****        12.2500  19.7500  36.2500 Du        
   7454 ****        12.2500  19.7500  36.5000 Du        
   7455 ****        12.2500  19.7500  36.7500 Du        
   7456 ****        12.2500  19.7500  37.0000 Du        
   7457 ****        12.2500  20.0000  36.0000 Du        
   7458 ****        12.2500  20.0000  36.2500 Du        
   7459 ****        12.2500  20.0000  36.5000 Du        
   7460 ****        12.2500  20.0000  36.7500 Du        
   7461 ****        12.2500  20.0000  37.0000 Du        
   7462 ****        12.2500  20.2500  36.2500 Du        
   7463 ****        12.2500  20.2500  36.5000 Du        
   7464 ****        12.2500  20.2500  36.7500 Du        
   7465 ****        12.2500  20.2500  37.0000 Du        
   7466 ****        12.5000 -16.5000  34.2500 Du        
   7467 ****        12.5000 -16.2500  33.2500 Du        
   7468 ****        12.5000 -16.2500  33.5000 Du        
   7469 ****        12.5000 -16.2500  33.7500 Du        
   7470 ****        12.5000 -16.2500  34.0000 Du        
   7471 ****        12.5000 -16.2500  34.2500 Du        
   7472 ****        12.5000 -16.2500  34.5000 Du        
   7473 ****        12.5000 -16.0000  31.7500 Du        
   7474 ****        12.5000 -16.0000  32.0000 Du        
   7475 ****        12.5000 -16.0000  32.5000 Du        
   7476 ****        12.5000 -16.0000  32.7500 Du        
   7477 ****        12.5000 -16.0000  33.0000 Du        
   7478 ****        12.5000 -16.0000  33.2500 Du        
   7479 ****        12.5000 -16.0000  33.5000 Du        
   7480 ****        12.5000 -16.0000  33.7500 Du        
   7481 ****        12.5000 -16.0000  34.0000 Du        
   7482 ****        12.5000 -16.0000  34.2500 Du        
   7483 ****        12.5000 -16.0000  34.5000 Du        
   7484 ****        12.5000 -15.7500  31.5000 Du        
   7485 ****        12.5000 -15.7500  31.7500 Du        
   7486 ****        12.5000 -15.7500  32.0000 Du        
   7487 ****        12.5000 -15.7500  32.2500 Du        
   7488 ****        12.5000 -15.7500  32.5000 Du        
   7489 ****        12.5000 -15.7500  32.7500 Du        
   7490 ****        12.5000 -15.7500  33.0000 Du        
   7491 ****        12.5000 -15.7500  33.2500 Du        
   7492 ****        12.5000 -15.7500  33.5000 Du        
   7493 ****        12.5000 -15.7500  33.7500 Du        
   7494 ****        12.5000 -15.7500  34.0000 Du        
   7495 ****        12.5000 -15.7500  34.2500 Du        
   7496 ****        12.5000 -15.7500  34.5000 Du        
   7497 ****        12.5000 -15.5000  31.2500 Du        
   7498 ****        12.5000 -15.5000  31.7500 Du        
   7499 ****        12.5000 -15.5000  32.0000 Du        
   7500 ****        12.5000 -15.5000  32.2500 Du        
   7501 ****        12.5000 -15.5000  32.5000 Du        
   7502 ****        12.5000 -15.5000  32.7500 Du        
   7503 ****        12.5000 -15.5000  33.0000 Du        
   7504 ****        12.5000 -15.5000  33.2500 Du        
   7505 ****        12.5000 -15.5000  33.5000 Du        
   7506 ****        12.5000 -15.5000  33.7500 Du        
   7507 ****        12.5000 -15.5000  34.0000 Du        
   7508 ****        12.5000 -15.5000  34.2500 Du        
   7509 ****        12.5000 -15.5000  34.5000 Du        
   7510 ****        12.5000 -15.2500  32.0000 Du        
   7511 ****        12.5000 -15.2500  32.2500 Du        
   7512 ****        12.5000 -15.2500  32.5000 Du        
   7513 ****        12.5000 -15.2500  32.7500 Du        
   7514 ****        12.5000 -15.2500  33.0000 Du        
   7515 ****        12.5000 -15.2500  33.2500 Du        
   7516 ****        12.5000 -15.2500  33.5000 Du        
   7517 ****        12.5000 -15.2500  33.7500 Du        
   7518 ****        12.5000 -15.2500  34.0000 Du        
   7519 ****        12.5000 -15.2500  34.2500 Du        
   7520 ****        12.5000 -15.2500  34.5000 Du        
   7521 ****        12.5000 -15.2500  34.7500 Du        
   7522 ****        12.5000 -15.0000  32.2500 Du        
   7523 ****        12.5000 -15.0000  32.5000 Du        
   7524 ****        12.5000 -15.0000  32.7500 Du        
   7525 ****        12.5000 -15.0000  33.0000 Du        
   7526 ****        12.5000 -15.0000  33.2500 Du        
   7527 ****        12.5000 -15.0000  33.5000 Du        
   7528 ****        12.5000 -15.0000  33.7500 Du        
   7529 ****        12.5000 -15.0000  34.0000 Du        
   7530 ****        12.5000 -15.0000  34.2500 Du        
   7531 ****        12.5000 -15.0000  34.5000 Du        
   7532 ****        12.5000 -15.0000  34.7500 Du        
   7533 ****        12.5000 -14.7500  32.5000 Du        
   7534 ****        12.5000 -14.7500  32.7500 Du        
   7535 ****        12.5000 -14.7500  33.0000 Du        
   7536 ****        12.5000 -14.7500  33.2500 Du        
   7537 ****        12.5000 -14.7500  33.5000 Du        
   7538 ****        12.5000 -14.7500  33.7500 Du        
   7539 ****        12.5000 -14.7500  34.0000 Du        
   7540 ****        12.5000 -14.7500  34.2500 Du        
   7541 ****        12.5000 -14.7500  34.5000 Du        
   7542 ****        12.5000 -14.7500  34.7500 Du        
   7543 ****        12.5000 -14.5000  32.2500 Du        
   7544 ****        12.5000 -14.5000  32.7500 Du        
   7545 ****        12.5000 -14.5000  33.0000 Du        
   7546 ****        12.5000 -14.5000  33.2500 Du        
   7547 ****        12.5000 -14.5000  33.5000 Du        
   7548 ****        12.5000 -14.5000  33.7500 Du        
   7549 ****        12.5000 -14.5000  34.0000 Du        
   7550 ****        12.5000 -14.5000  34.2500 Du        
   7551 ****        12.5000 -14.5000  34.5000 Du        
   7552 ****        12.5000 -14.5000  34.7500 Du        
   7553 ****        12.5000 -14.2500  32.7500 Du        
   7554 ****        12.5000 -14.2500  33.0000 Du        
   7555 ****        12.5000 -14.2500  33.2500 Du        
   7556 ****        12.5000 -14.2500  33.5000 Du        
   7557 ****        12.5000 -14.2500  33.7500 Du        
   7558 ****        12.5000 -14.2500  34.0000 Du        
   7559 ****        12.5000 -14.2500  34.2500 Du        
   7560 ****        12.5000 -14.2500  34.5000 Du        
   7561 ****        12.5000 -14.0000  32.7500 Du        
   7562 ****        12.5000 -14.0000  33.0000 Du        
   7563 ****        12.5000 -14.0000  33.2500 Du        
   7564 ****        12.5000 -14.0000  33.5000 Du        
   7565 ****        12.5000 -14.0000  33.7500 Du        
   7566 ****        12.5000 -14.0000  34.0000 Du        
   7567 ****        12.5000 -14.0000  34.2500 Du        
   7568 ****        12.5000 -13.7500  33.0000 Du        
   7569 ****        12.5000 -13.7500  33.2500 Du        
   7570 ****        12.5000 -13.7500  33.5000 Du        
   7571 ****        12.5000 -13.7500  33.7500 Du        
   7572 ****        12.5000 -13.7500  34.0000 Du        
   7573 ****        12.5000 -13.5000  33.5000 Du        
   7574 ****        12.5000 -13.5000  33.7500 Du        
   7575 ****        12.5000 -13.2500  33.5000 Du        
   7576 ****        12.5000 -11.2500  33.5000 Du        
   7577 ****        12.5000 -11.0000  33.5000 Du        
   7578 ****        12.5000 -11.0000  33.7500 Du        
   7579 ****        12.5000 -10.7500  32.7500 Du        
   7580 ****        12.5000 -10.7500  33.0000 Du        
   7581 ****        12.5000 -10.7500  33.2500 Du        
   7582 ****        12.5000 -10.7500  33.5000 Du        
   7583 ****        12.5000 -10.7500  33.7500 Du        
   7584 ****        12.5000 -10.7500  34.0000 Du        
   7585 ****        12.5000 -10.7500  34.2500 Du        
   7586 ****        12.5000 -10.5000  32.7500 Du        
   7587 ****        12.5000 -10.5000  33.0000 Du        
   7588 ****        12.5000 -10.5000  33.2500 Du        
   7589 ****        12.5000 -10.5000  33.5000 Du        
   7590 ****        12.5000 -10.5000  33.7500 Du        
   7591 ****        12.5000 -10.5000  34.0000 Du        
   7592 ****        12.5000 -10.5000  34.2500 Du        
   7593 ****        12.5000 -10.5000  34.5000 Du        
   7594 ****        12.5000 -10.2500  32.7500 Du        
   7595 ****        12.5000 -10.2500  33.0000 Du        
   7596 ****        12.5000 -10.2500  33.2500 Du        
   7597 ****        12.5000 -10.2500  33.5000 Du        
   7598 ****        12.5000 -10.2500  33.7500 Du        
   7599 ****        12.5000 -10.2500  34.0000 Du        
   7600 ****        12.5000 -10.2500  34.2500 Du        
   7601 ****        12.5000 -10.2500  34.5000 Du        
   7602 ****        12.5000 -10.2500  34.7500 Du        
   7603 ****        12.5000 -10.2500  35.0000 Du        
   7604 ****        12.5000 -10.0000  32.5000 Du        
   7605 ****        12.5000 -10.0000  32.7500 Du        
   7606 ****        12.5000 -10.0000  33.0000 Du        
   7607 ****        12.5000 -10.0000  33.2500 Du        
   7608 ****        12.5000 -10.0000  33.5000 Du        
   7609 ****        12.5000 -10.0000  33.7500 Du        
   7610 ****        12.5000 -10.0000  34.0000 Du        
   7611 ****        12.5000 -10.0000  34.2500 Du        
   7612 ****        12.5000 -10.0000  34.5000 Du        
   7613 ****        12.5000 -10.0000  34.7500 Du        
   7614 ****        12.5000 -10.0000  35.0000 Du        
   7615 ****        12.5000 -10.0000  35.2500 Du        
   7616 ****        12.5000  -9.7500  32.5000 Du        
   7617 ****        12.5000  -9.7500  32.7500 Du        
   7618 ****        12.5000  -9.7500  33.0000 Du        
   7619 ****        12.5000  -9.7500  33.2500 Du        
   7620 ****        12.5000  -9.7500  33.5000 Du        
   7621 ****        12.5000  -9.7500  33.7500 Du        
   7622 ****        12.5000  -9.7500  34.0000 Du        
   7623 ****        12.5000  -9.7500  34.2500 Du        
   7624 ****        12.5000  -9.7500  34.5000 Du        
   7625 ****        12.5000  -9.7500  34.7500 Du        
   7626 ****        12.5000  -9.7500  35.0000 Du        
   7627 ****        12.5000  -9.7500  35.2500 Du        
   7628 ****        12.5000  -9.5000  32.0000 Du        
   7629 ****        12.5000  -9.5000  32.2500 Du        
   7630 ****        12.5000  -9.5000  32.5000 Du        
   7631 ****        12.5000  -9.5000  32.7500 Du        
   7632 ****        12.5000  -9.5000  33.0000 Du        
   7633 ****        12.5000  -9.5000  33.2500 Du        
   7634 ****        12.5000  -9.5000  33.5000 Du        
   7635 ****        12.5000  -9.5000  33.7500 Du        
   7636 ****        12.5000  -9.5000  34.0000 Du        
   7637 ****        12.5000  -9.5000  34.2500 Du        
   7638 ****        12.5000  -9.5000  34.5000 Du        
   7639 ****        12.5000  -9.5000  34.7500 Du        
   7640 ****        12.5000  -9.5000  35.0000 Du        
   7641 ****        12.5000  -9.5000  35.2500 Du        
   7642 ****        12.5000  -9.5000  35.5000 Du        
   7643 ****        12.5000  -9.2500  31.7500 Du        
   7644 ****        12.5000  -9.2500  32.0000 Du        
   7645 ****        12.5000  -9.2500  32.2500 Du        
   7646 ****        12.5000  -9.2500  32.5000 Du        
   7647 ****        12.5000  -9.2500  32.7500 Du        
   7648 ****        12.5000  -9.2500  33.0000 Du        
   7649 ****        12.5000  -9.2500  33.2500 Du        
   7650 ****        12.5000  -9.2500  33.5000 Du        
   7651 ****        12.5000  -9.2500  33.7500 Du        
   7652 ****        12.5000  -9.2500  34.0000 Du        
   7653 ****        12.5000  -9.2500  34.2500 Du        
   7654 ****        12.5000  -9.2500  34.5000 Du        
   7655 ****        12.5000  -9.2500  34.7500 Du        
   7656 ****        12.5000  -9.2500  35.0000 Du        
   7657 ****        12.5000  -9.2500  35.2500 Du        
   7658 ****        12.5000  -9.2500  35.5000 Du        
   7659 ****        12.5000  -9.0000  31.5000 Du        
   7660 ****        12.5000  -9.0000  31.7500 Du        
   7661 ****        12.5000  -9.0000  32.0000 Du        
   7662 ****        12.5000  -9.0000  32.2500 Du        
   7663 ****        12.5000  -9.0000  32.5000 Du        
   7664 ****        12.5000  -9.0000  32.7500 Du        
   7665 ****        12.5000  -9.0000  33.0000 Du        
   7666 ****        12.5000  -9.0000  33.2500 Du        
   7667 ****        12.5000  -9.0000  33.5000 Du        
   7668 ****        12.5000  -9.0000  33.7500 Du        
   7669 ****        12.5000  -9.0000  34.0000 Du        
   7670 ****        12.5000  -9.0000  34.2500 Du        
   7671 ****        12.5000  -9.0000  34.5000 Du        
   7672 ****        12.5000  -9.0000  34.7500 Du        
   7673 ****        12.5000  -9.0000  35.0000 Du        
   7674 ****        12.5000  -9.0000  35.2500 Du        
   7675 ****        12.5000  -8.7500  31.2500 Du        
   7676 ****        12.5000  -8.7500  31.5000 Du        
   7677 ****        12.5000  -8.7500  31.7500 Du        
   7678 ****        12.5000  -8.7500  32.0000 Du        
   7679 ****        12.5000  -8.7500  32.2500 Du        
   7680 ****        12.5000  -8.7500  32.5000 Du        
   7681 ****        12.5000  -8.7500  32.7500 Du        
   7682 ****        12.5000  -8.7500  33.0000 Du        
   7683 ****        12.5000  -8.7500  33.2500 Du        
   7684 ****        12.5000  -8.7500  33.5000 Du        
   7685 ****        12.5000  -8.7500  33.7500 Du        
   7686 ****        12.5000  -8.7500  34.0000 Du        
   7687 ****        12.5000  -8.7500  34.2500 Du        
   7688 ****        12.5000  -8.7500  34.5000 Du        
   7689 ****        12.5000  -8.7500  34.7500 Du        
   7690 ****        12.5000  -8.5000  31.0000 Du        
   7691 ****        12.5000  -8.5000  31.2500 Du        
   7692 ****        12.5000  -8.5000  31.5000 Du        
   7693 ****        12.5000  -8.5000  31.7500 Du        
   7694 ****        12.5000  -8.5000  32.0000 Du        
   7695 ****        12.5000  -8.5000  32.2500 Du        
   7696 ****        12.5000  -8.5000  32.5000 Du        
   7697 ****        12.5000  -8.5000  32.7500 Du        
   7698 ****        12.5000  -8.5000  33.0000 Du        
   7699 ****        12.5000  -8.5000  33.2500 Du        
   7700 ****        12.5000  -8.5000  33.5000 Du        
   7701 ****        12.5000  -8.5000  33.7500 Du        
   7702 ****        12.5000  -8.5000  34.0000 Du        
   7703 ****        12.5000  -8.5000  34.2500 Du        
   7704 ****        12.5000  -8.5000  34.5000 Du        
   7705 ****        12.5000  -8.2500  31.0000 Du        
   7706 ****        12.5000  -8.2500  31.2500 Du        
   7707 ****        12.5000  -8.2500  31.5000 Du        
   7708 ****        12.5000  -8.2500  31.7500 Du        
   7709 ****        12.5000  -8.2500  32.0000 Du        
   7710 ****        12.5000  -8.2500  32.2500 Du        
   7711 ****        12.5000  -8.2500  32.5000 Du        
   7712 ****        12.5000  -8.2500  32.7500 Du        
   7713 ****        12.5000  -8.2500  33.0000 Du        
   7714 ****        12.5000  -8.2500  33.2500 Du        
   7715 ****        12.5000  -8.2500  33.5000 Du        
   7716 ****        12.5000  -8.2500  33.7500 Du        
   7717 ****        12.5000  -8.2500  34.0000 Du        
   7718 ****        12.5000  -8.2500  34.2500 Du        
   7719 ****        12.5000  -8.0000  31.0000 Du        
   7720 ****        12.5000  -8.0000  31.2500 Du        
   7721 ****        12.5000  -8.0000  31.5000 Du        
   7722 ****        12.5000  -8.0000  31.7500 Du        
   7723 ****        12.5000  -8.0000  32.0000 Du        
   7724 ****        12.5000  -8.0000  32.2500 Du        
   7725 ****        12.5000  -8.0000  32.5000 Du        
   7726 ****        12.5000  -8.0000  32.7500 Du        
   7727 ****        12.5000  -8.0000  33.0000 Du        
   7728 ****        12.5000  -8.0000  33.2500 Du        
   7729 ****        12.5000  -8.0000  33.5000 Du        
   7730 ****        12.5000  -8.0000  33.7500 Du        
   7731 ****        12.5000  -8.0000  34.0000 Du        
   7732 ****        12.5000  -7.7500  31.0000 Du        
   7733 ****        12.5000  -7.7500  31.2500 Du        
   7734 ****        12.5000  -7.7500  31.5000 Du        
   7735 ****        12.5000  -7.7500  31.7500 Du        
   7736 ****        12.5000  -7.7500  32.0000 Du        
   7737 ****        12.5000  -7.7500  32.2500 Du        
   7738 ****        12.5000  -7.7500  32.5000 Du        
   7739 ****        12.5000  -7.7500  32.7500 Du        
   7740 ****        12.5000  -7.7500  33.0000 Du        
   7741 ****        12.5000  -7.7500  33.2500 Du        
   7742 ****        12.5000  -7.7500  33.5000 Du        
   7743 ****        12.5000  -7.7500  33.7500 Du        
   7744 ****        12.5000  -7.7500  34.0000 Du        
   7745 ****        12.5000  -7.5000  31.2500 Du        
   7746 ****        12.5000  -7.5000  31.5000 Du        
   7747 ****        12.5000  -7.5000  31.7500 Du        
   7748 ****        12.5000  -7.5000  32.0000 Du        
   7749 ****        12.5000  -7.5000  32.2500 Du        
   7750 ****        12.5000  -7.5000  32.5000 Du        
   7751 ****        12.5000  -7.5000  32.7500 Du        
   7752 ****        12.5000  -7.5000  33.0000 Du        
   7753 ****        12.5000  -7.5000  33.2500 Du        
   7754 ****        12.5000  -7.5000  33.5000 Du        
   7755 ****        12.5000  -7.5000  33.7500 Du        
   7756 ****        12.5000  -7.2500  31.2500 Du        
   7757 ****        12.5000  -7.2500  31.5000 Du        
   7758 ****        12.5000  -7.2500  31.7500 Du        
   7759 ****        12.5000  -7.2500  32.0000 Du        
   7760 ****        12.5000  -7.2500  32.2500 Du        
   7761 ****        12.5000  -7.2500  32.5000 Du        
   7762 ****        12.5000  -7.2500  32.7500 Du        
   7763 ****        12.5000  -7.2500  33.0000 Du        
   7764 ****        12.5000  -7.2500  33.2500 Du        
   7765 ****        12.5000  -7.2500  33.5000 Du        
   7766 ****        12.5000  -7.0000  31.7500 Du        
   7767 ****        12.5000  -7.0000  32.0000 Du        
   7768 ****        12.5000  -7.0000  32.2500 Du        
   7769 ****        12.5000  -7.0000  32.5000 Du        
   7770 ****        12.5000  -7.0000  32.7500 Du        
   7771 ****        12.5000  -7.0000  33.0000 Du        
   7772 ****        12.5000  -7.0000  33.2500 Du        
   7773 ****        12.5000   7.7500  25.2500 Du        
   7774 ****        12.5000   7.7500  25.5000 Du        
   7775 ****        12.5000   7.7500  25.7500 Du        
   7776 ****        12.5000   7.7500  26.0000 Du        
   7777 ****        12.5000   7.7500  26.2500 Du        
   7778 ****        12.5000   8.0000  25.0000 Du        
   7779 ****        12.5000   8.0000  25.2500 Du        
   7780 ****        12.5000   8.0000  25.5000 Du        
   7781 ****        12.5000   8.0000  25.7500 Du        
   7782 ****        12.5000   8.0000  26.0000 Du        
   7783 ****        12.5000   8.0000  26.2500 Du        
   7784 ****        12.5000   8.0000  26.5000 Du        
   7785 ****        12.5000   8.2500  25.2500 Du        
   7786 ****        12.5000   8.2500  25.5000 Du        
   7787 ****        12.5000   8.2500  25.7500 Du        
   7788 ****        12.5000   8.2500  26.0000 Du        
   7789 ****        12.5000   8.2500  26.2500 Du        
   7790 ****        12.5000   8.5000  19.7500 Du        
   7791 ****        12.5000   8.5000  20.0000 Du        
   7792 ****        12.5000   8.5000  25.2500 Du        
   7793 ****        12.5000   8.5000  25.5000 Du        
   7794 ****        12.5000   8.5000  25.7500 Du        
   7795 ****        12.5000   8.5000  26.0000 Du        
   7796 ****        12.5000   8.7500  19.0000 Du        
   7797 ****        12.5000   8.7500  19.2500 Du        
   7798 ****        12.5000   8.7500  19.5000 Du        
   7799 ****        12.5000   8.7500  19.7500 Du        
   7800 ****        12.5000   8.7500  20.0000 Du        
   7801 ****        12.5000   9.0000  19.0000 Du        
   7802 ****        12.5000   9.0000  19.2500 Du        
   7803 ****        12.5000   9.0000  19.5000 Du        
   7804 ****        12.5000   9.0000  19.7500 Du        
   7805 ****        12.5000   9.0000  20.0000 Du        
   7806 ****        12.5000   9.2500  19.0000 Du        
   7807 ****        12.5000   9.2500  19.2500 Du        
   7808 ****        12.5000   9.2500  19.5000 Du        
   7809 ****        12.5000   9.2500  19.7500 Du        
   7810 ****        12.5000   9.5000  19.0000 Du        
   7811 ****        12.5000   9.5000  19.2500 Du        
   7812 ****        12.5000   9.5000  19.5000 Du        
   7813 ****        12.5000   9.5000  19.7500 Du        
   7814 ****        12.5000   9.5000  20.0000 Du        
   7815 ****        12.5000   9.7500  19.0000 Du        
   7816 ****        12.5000   9.7500  19.2500 Du        
   7817 ****        12.5000   9.7500  19.5000 Du        
   7818 ****        12.5000   9.7500  19.7500 Du        
   7819 ****        12.5000  10.0000  19.0000 Du        
   7820 ****        12.5000  10.0000  19.2500 Du        
   7821 ****        12.5000  10.0000  19.5000 Du        
   7822 ****        12.5000  16.2500  38.0000 Du        
   7823 ****        12.5000  16.5000  37.7500 Du        
   7824 ****        12.5000  16.5000  38.0000 Du        
   7825 ****        12.5000  16.7500  37.7500 Du        
   7826 ****        12.5000  16.7500  38.0000 Du        
   7827 ****        12.5000  16.7500  38.2500 Du        
   7828 ****        12.5000  17.0000  38.0000 Du        
   7829 ****        12.5000  17.0000  38.2500 Du        
   7830 ****        12.5000  19.5000  36.0000 Du        
   7831 ****        12.5000  19.5000  36.2500 Du        
   7832 ****        12.5000  19.5000  36.5000 Du        
   7833 ****        12.5000  19.5000  36.7500 Du        
   7834 ****        12.5000  19.7500  35.7500 Du        
   7835 ****        12.5000  19.7500  36.0000 Du        
   7836 ****        12.5000  19.7500  36.2500 Du        
   7837 ****        12.5000  19.7500  36.5000 Du        
   7838 ****        12.5000  19.7500  36.7500 Du        
   7839 ****        12.5000  19.7500  37.0000 Du        
   7840 ****        12.5000  20.0000  35.7500 Du        
   7841 ****        12.5000  20.0000  36.0000 Du        
   7842 ****        12.5000  20.0000  36.2500 Du        
   7843 ****        12.5000  20.0000  36.5000 Du        
   7844 ****        12.5000  20.0000  36.7500 Du        
   7845 ****        12.5000  20.0000  37.0000 Du        
   7846 ****        12.5000  20.2500  35.7500 Du        
   7847 ****        12.5000  20.2500  36.0000 Du        
   7848 ****        12.5000  20.2500  36.2500 Du        
   7849 ****        12.5000  20.2500  36.5000 Du        
   7850 ****        12.5000  20.2500  36.7500 Du        
   7851 ****        12.5000  20.2500  37.0000 Du        
   7852 ****        12.5000  20.5000  36.2500 Du        
   7853 ****        12.7500 -16.2500  33.5000 Du        
   7854 ****        12.7500 -16.2500  33.7500 Du        
   7855 ****        12.7500 -16.2500  34.0000 Du        
   7856 ****        12.7500 -16.2500  34.2500 Du        
   7857 ****        12.7500 -16.0000  32.7500 Du        
   7858 ****        12.7500 -16.0000  33.0000 Du        
   7859 ****        12.7500 -16.0000  33.2500 Du        
   7860 ****        12.7500 -16.0000  33.5000 Du        
   7861 ****        12.7500 -16.0000  33.7500 Du        
   7862 ****        12.7500 -16.0000  34.0000 Du        
   7863 ****        12.7500 -16.0000  34.2500 Du        
   7864 ****        12.7500 -16.0000  34.5000 Du        
   7865 ****        12.7500 -15.7500  31.7500 Du        
   7866 ****        12.7500 -15.7500  32.0000 Du        
   7867 ****        12.7500 -15.7500  32.5000 Du        
   7868 ****        12.7500 -15.7500  32.7500 Du        
   7869 ****        12.7500 -15.7500  33.0000 Du        
   7870 ****        12.7500 -15.7500  33.2500 Du        
   7871 ****        12.7500 -15.7500  33.5000 Du        
   7872 ****        12.7500 -15.7500  33.7500 Du        
   7873 ****        12.7500 -15.7500  34.0000 Du        
   7874 ****        12.7500 -15.7500  34.2500 Du        
   7875 ****        12.7500 -15.7500  34.5000 Du        
   7876 ****        12.7500 -15.5000  31.0000 Du        
   7877 ****        12.7500 -15.5000  31.7500 Du        
   7878 ****        12.7500 -15.5000  32.2500 Du        
   7879 ****        12.7500 -15.5000  32.5000 Du        
   7880 ****        12.7500 -15.5000  32.7500 Du        
   7881 ****        12.7500 -15.5000  33.0000 Du        
   7882 ****        12.7500 -15.5000  33.2500 Du        
   7883 ****        12.7500 -15.5000  33.5000 Du        
   7884 ****        12.7500 -15.5000  33.7500 Du        
   7885 ****        12.7500 -15.5000  34.0000 Du        
   7886 ****        12.7500 -15.5000  34.2500 Du        
   7887 ****        12.7500 -15.5000  34.5000 Du        
   7888 ****        12.7500 -15.2500  32.0000 Du        
   7889 ****        12.7500 -15.2500  32.5000 Du        
   7890 ****        12.7500 -15.2500  32.7500 Du        
   7891 ****        12.7500 -15.2500  33.0000 Du        
   7892 ****        12.7500 -15.2500  33.2500 Du        
   7893 ****        12.7500 -15.2500  33.5000 Du        
   7894 ****        12.7500 -15.2500  33.7500 Du        
   7895 ****        12.7500 -15.2500  34.0000 Du        
   7896 ****        12.7500 -15.2500  34.2500 Du        
   7897 ****        12.7500 -15.2500  34.5000 Du        
   7898 ****        12.7500 -15.2500  34.7500 Du        
   7899 ****        12.7500 -15.0000  32.5000 Du        
   7900 ****        12.7500 -15.0000  32.7500 Du        
   7901 ****        12.7500 -15.0000  33.0000 Du        
   7902 ****        12.7500 -15.0000  33.2500 Du        
   7903 ****        12.7500 -15.0000  33.5000 Du        
   7904 ****        12.7500 -15.0000  33.7500 Du        
   7905 ****        12.7500 -15.0000  34.0000 Du        
   7906 ****        12.7500 -15.0000  34.2500 Du        
   7907 ****        12.7500 -15.0000  34.5000 Du        
   7908 ****        12.7500 -15.0000  34.7500 Du        
   7909 ****        12.7500 -14.7500  32.5000 Du        
   7910 ****        12.7500 -14.7500  32.7500 Du        
   7911 ****        12.7500 -14.7500  33.0000 Du        
   7912 ****        12.7500 -14.7500  33.2500 Du        
   7913 ****        12.7500 -14.7500  33.5000 Du        
   7914 ****        12.7500 -14.7500  33.7500 Du        
   7915 ****        12.7500 -14.7500  34.0000 Du        
   7916 ****        12.7500 -14.7500  34.2500 Du        
   7917 ****        12.7500 -14.7500  34.5000 Du        
   7918 ****        12.7500 -14.7500  34.7500 Du        
   7919 ****        12.7500 -14.5000  32.7500 Du        
   7920 ****        12.7500 -14.5000  33.0000 Du        
   7921 ****        12.7500 -14.5000  33.2500 Du        
   7922 ****        12.7500 -14.5000  33.5000 Du        
   7923 ****        12.7500 -14.5000  33.7500 Du        
   7924 ****        12.7500 -14.5000  34.0000 Du        
   7925 ****        12.7500 -14.5000  34.2500 Du        
   7926 ****        12.7500 -14.5000  34.5000 Du        
   7927 ****        12.7500 -14.5000  34.7500 Du        
   7928 ****        12.7500 -14.2500  32.7500 Du        
   7929 ****        12.7500 -14.2500  33.0000 Du        
   7930 ****        12.7500 -14.2500  33.2500 Du        
   7931 ****        12.7500 -14.2500  33.5000 Du        
   7932 ****        12.7500 -14.2500  33.7500 Du        
   7933 ****        12.7500 -14.2500  34.0000 Du        
   7934 ****        12.7500 -14.2500  34.2500 Du        
   7935 ****        12.7500 -14.2500  34.5000 Du        
   7936 ****        12.7500 -14.2500  34.7500 Du        
   7937 ****        12.7500 -14.2500  35.0000 Du        
   7938 ****        12.7500 -14.0000  32.7500 Du        
   7939 ****        12.7500 -14.0000  33.0000 Du        
   7940 ****        12.7500 -14.0000  33.2500 Du        
   7941 ****        12.7500 -14.0000  33.5000 Du        
   7942 ****        12.7500 -14.0000  33.7500 Du        
   7943 ****        12.7500 -14.0000  34.0000 Du        
   7944 ****        12.7500 -14.0000  34.2500 Du        
   7945 ****        12.7500 -14.0000  34.5000 Du        
   7946 ****        12.7500 -14.0000  34.7500 Du        
   7947 ****        12.7500 -14.0000  35.0000 Du        
   7948 ****        12.7500 -13.7500  33.0000 Du        
   7949 ****        12.7500 -13.7500  33.2500 Du        
   7950 ****        12.7500 -13.7500  33.5000 Du        
   7951 ****        12.7500 -13.7500  33.7500 Du        
   7952 ****        12.7500 -13.7500  34.0000 Du        
   7953 ****        12.7500 -13.7500  34.2500 Du        
   7954 ****        12.7500 -13.7500  34.5000 Du        
   7955 ****        12.7500 -13.7500  34.7500 Du        
   7956 ****        12.7500 -13.7500  35.0000 Du        
   7957 ****        12.7500 -13.5000  33.2500 Du        
   7958 ****        12.7500 -13.5000  33.5000 Du        
   7959 ****        12.7500 -13.5000  33.7500 Du        
   7960 ****        12.7500 -13.5000  34.0000 Du        
   7961 ****        12.7500 -13.5000  34.2500 Du        
   7962 ****        12.7500 -13.5000  34.5000 Du        
   7963 ****        12.7500 -13.5000  34.7500 Du        
   7964 ****        12.7500 -13.2500  33.2500 Du        
   7965 ****        12.7500 -13.2500  33.5000 Du        
   7966 ****        12.7500 -13.2500  33.7500 Du        
   7967 ****        12.7500 -13.2500  34.0000 Du        
   7968 ****        12.7500 -13.2500  34.2500 Du        
   7969 ****        12.7500 -13.2500  34.5000 Du        
   7970 ****        12.7500 -13.0000  33.2500 Du        
   7971 ****        12.7500 -13.0000  33.5000 Du        
   7972 ****        12.7500 -13.0000  33.7500 Du        
   7973 ****        12.7500 -13.0000  34.0000 Du        
   7974 ****        12.7500 -12.7500  33.0000 Du        
   7975 ****        12.7500 -12.7500  33.2500 Du        
   7976 ****        12.7500 -12.7500  33.5000 Du        
   7977 ****        12.7500 -12.7500  33.7500 Du        
   7978 ****        12.7500 -12.5000  33.0000 Du        
   7979 ****        12.7500 -12.5000  33.5000 Du        
   7980 ****        12.7500 -12.5000  33.7500 Du        
   7981 ****        12.7500 -12.2500  33.2500 Du        
   7982 ****        12.7500 -12.2500  33.5000 Du        
   7983 ****        12.7500 -12.2500  33.7500 Du        
   7984 ****        12.7500 -12.0000  33.2500 Du        
   7985 ****        12.7500 -12.0000  33.5000 Du        
   7986 ****        12.7500 -12.0000  33.7500 Du        
   7987 ****        12.7500 -11.7500  33.2500 Du        
   7988 ****        12.7500 -11.7500  33.5000 Du        
   7989 ****        12.7500 -11.7500  33.7500 Du        
   7990 ****        12.7500 -11.5000  33.5000 Du        
   7991 ****        12.7500 -11.5000  33.7500 Du        
   7992 ****        12.7500 -11.5000  34.0000 Du        
   7993 ****        12.7500 -11.2500  33.2500 Du        
   7994 ****        12.7500 -11.2500  33.5000 Du        
   7995 ****        12.7500 -11.2500  33.7500 Du        
   7996 ****        12.7500 -11.2500  34.0000 Du        
   7997 ****        12.7500 -11.0000  33.0000 Du        
   7998 ****        12.7500 -11.0000  33.2500 Du        
   7999 ****        12.7500 -11.0000  33.5000 Du        
   8000 ****        12.7500 -11.0000  33.7500 Du        
   8001 ****        12.7500 -11.0000  34.0000 Du        
   8002 ****        12.7500 -11.0000  34.2500 Du        
   8003 ****        12.7500 -10.7500  32.7500 Du        
   8004 ****        12.7500 -10.7500  33.0000 Du        
   8005 ****        12.7500 -10.7500  33.2500 Du        
   8006 ****        12.7500 -10.7500  33.5000 Du        
   8007 ****        12.7500 -10.7500  33.7500 Du        
   8008 ****        12.7500 -10.7500  34.0000 Du        
   8009 ****        12.7500 -10.7500  34.2500 Du        
   8010 ****        12.7500 -10.7500  34.5000 Du        
   8011 ****        12.7500 -10.5000  32.7500 Du        
   8012 ****        12.7500 -10.5000  33.0000 Du        
   8013 ****        12.7500 -10.5000  33.2500 Du        
   8014 ****        12.7500 -10.5000  33.5000 Du        
   8015 ****        12.7500 -10.5000  33.7500 Du        
   8016 ****        12.7500 -10.5000  34.0000 Du        
   8017 ****        12.7500 -10.5000  34.2500 Du        
   8018 ****        12.7500 -10.5000  34.5000 Du        
   8019 ****        12.7500 -10.5000  34.7500 Du        
   8020 ****        12.7500 -10.2500  32.5000 Du        
   8021 ****        12.7500 -10.2500  32.7500 Du        
   8022 ****        12.7500 -10.2500  33.0000 Du        
   8023 ****        12.7500 -10.2500  33.2500 Du        
   8024 ****        12.7500 -10.2500  33.5000 Du        
   8025 ****        12.7500 -10.2500  33.7500 Du        
   8026 ****        12.7500 -10.2500  34.0000 Du        
   8027 ****        12.7500 -10.2500  34.2500 Du        
   8028 ****        12.7500 -10.2500  34.5000 Du        
   8029 ****        12.7500 -10.2500  34.7500 Du        
   8030 ****        12.7500 -10.2500  35.0000 Du        
   8031 ****        12.7500 -10.0000  32.5000 Du        
   8032 ****        12.7500 -10.0000  32.7500 Du        
   8033 ****        12.7500 -10.0000  33.0000 Du        
   8034 ****        12.7500 -10.0000  33.2500 Du        
   8035 ****        12.7500 -10.0000  33.5000 Du        
   8036 ****        12.7500 -10.0000  33.7500 Du        
   8037 ****        12.7500 -10.0000  34.0000 Du        
   8038 ****        12.7500 -10.0000  34.2500 Du        
   8039 ****        12.7500 -10.0000  34.5000 Du        
   8040 ****        12.7500 -10.0000  34.7500 Du        
   8041 ****        12.7500 -10.0000  35.0000 Du        
   8042 ****        12.7500  -9.7500  32.5000 Du        
   8043 ****        12.7500  -9.7500  32.7500 Du        
   8044 ****        12.7500  -9.7500  33.0000 Du        
   8045 ****        12.7500  -9.7500  33.2500 Du        
   8046 ****        12.7500  -9.7500  33.5000 Du        
   8047 ****        12.7500  -9.7500  33.7500 Du        
   8048 ****        12.7500  -9.7500  34.0000 Du        
   8049 ****        12.7500  -9.7500  34.2500 Du        
   8050 ****        12.7500  -9.7500  34.5000 Du        
   8051 ****        12.7500  -9.7500  34.7500 Du        
   8052 ****        12.7500  -9.7500  35.0000 Du        
   8053 ****        12.7500  -9.7500  35.2500 Du        
   8054 ****        12.7500  -9.5000  32.0000 Du        
   8055 ****        12.7500  -9.5000  32.2500 Du        
   8056 ****        12.7500  -9.5000  32.5000 Du        
   8057 ****        12.7500  -9.5000  32.7500 Du        
   8058 ****        12.7500  -9.5000  33.0000 Du        
   8059 ****        12.7500  -9.5000  33.2500 Du        
   8060 ****        12.7500  -9.5000  33.5000 Du        
   8061 ****        12.7500  -9.5000  33.7500 Du        
   8062 ****        12.7500  -9.5000  34.0000 Du        
   8063 ****        12.7500  -9.5000  34.2500 Du        
   8064 ****        12.7500  -9.5000  34.5000 Du        
   8065 ****        12.7500  -9.5000  34.7500 Du        
   8066 ****        12.7500  -9.5000  35.0000 Du        
   8067 ****        12.7500  -9.5000  35.2500 Du        
   8068 ****        12.7500  -9.2500  32.0000 Du        
   8069 ****        12.7500  -9.2500  32.2500 Du        
   8070 ****        12.7500  -9.2500  32.5000 Du        
   8071 ****        12.7500  -9.2500  32.7500 Du        
   8072 ****        12.7500  -9.2500  33.0000 Du        
   8073 ****        12.7500  -9.2500  33.2500 Du        
   8074 ****        12.7500  -9.2500  33.5000 Du        
   8075 ****        12.7500  -9.2500  33.7500 Du        
   8076 ****        12.7500  -9.2500  34.0000 Du        
   8077 ****        12.7500  -9.2500  34.2500 Du        
   8078 ****        12.7500  -9.2500  34.5000 Du        
   8079 ****        12.7500  -9.2500  34.7500 Du        
   8080 ****        12.7500  -9.2500  35.0000 Du        
   8081 ****        12.7500  -9.2500  35.2500 Du        
   8082 ****        12.7500  -9.0000  31.7500 Du        
   8083 ****        12.7500  -9.0000  32.0000 Du        
   8084 ****        12.7500  -9.0000  32.2500 Du        
   8085 ****        12.7500  -9.0000  32.5000 Du        
   8086 ****        12.7500  -9.0000  32.7500 Du        
   8087 ****        12.7500  -9.0000  33.0000 Du        
   8088 ****        12.7500  -9.0000  33.2500 Du        
   8089 ****        12.7500  -9.0000  33.5000 Du        
   8090 ****        12.7500  -9.0000  33.7500 Du        
   8091 ****        12.7500  -9.0000  34.0000 Du        
   8092 ****        12.7500  -9.0000  34.2500 Du        
   8093 ****        12.7500  -9.0000  34.5000 Du        
   8094 ****        12.7500  -9.0000  34.7500 Du        
   8095 ****        12.7500  -9.0000  35.0000 Du        
   8096 ****        12.7500  -9.0000  35.2500 Du        
   8097 ****        12.7500  -8.7500  31.7500 Du        
   8098 ****        12.7500  -8.7500  32.0000 Du        
   8099 ****        12.7500  -8.7500  32.2500 Du        
   8100 ****        12.7500  -8.7500  32.5000 Du        
   8101 ****        12.7500  -8.7500  32.7500 Du        
   8102 ****        12.7500  -8.7500  33.0000 Du        
   8103 ****        12.7500  -8.7500  33.2500 Du        
   8104 ****        12.7500  -8.7500  33.5000 Du        
   8105 ****        12.7500  -8.7500  33.7500 Du        
   8106 ****        12.7500  -8.7500  34.0000 Du        
   8107 ****        12.7500  -8.7500  34.2500 Du        
   8108 ****        12.7500  -8.7500  34.5000 Du        
   8109 ****        12.7500  -8.7500  34.7500 Du        
   8110 ****        12.7500  -8.5000  31.7500 Du        
   8111 ****        12.7500  -8.5000  32.0000 Du        
   8112 ****        12.7500  -8.5000  32.2500 Du        
   8113 ****        12.7500  -8.5000  32.5000 Du        
   8114 ****        12.7500  -8.5000  32.7500 Du        
   8115 ****        12.7500  -8.5000  33.0000 Du        
   8116 ****        12.7500  -8.5000  33.2500 Du        
   8117 ****        12.7500  -8.5000  33.5000 Du        
   8118 ****        12.7500  -8.5000  33.7500 Du        
   8119 ****        12.7500  -8.5000  34.0000 Du        
   8120 ****        12.7500  -8.5000  34.2500 Du        
   8121 ****        12.7500  -8.5000  34.5000 Du        
   8122 ****        12.7500  -8.2500  31.7500 Du        
   8123 ****        12.7500  -8.2500  32.0000 Du        
   8124 ****        12.7500  -8.2500  32.2500 Du        
   8125 ****        12.7500  -8.2500  32.5000 Du        
   8126 ****        12.7500  -8.2500  32.7500 Du        
   8127 ****        12.7500  -8.2500  33.0000 Du        
   8128 ****        12.7500  -8.2500  33.2500 Du        
   8129 ****        12.7500  -8.2500  33.5000 Du        
   8130 ****        12.7500  -8.2500  33.7500 Du        
   8131 ****        12.7500  -8.2500  34.0000 Du        
   8132 ****        12.7500  -8.2500  34.2500 Du        
   8133 ****        12.7500  -8.0000  31.7500 Du        
   8134 ****        12.7500  -8.0000  32.0000 Du        
   8135 ****        12.7500  -8.0000  32.2500 Du        
   8136 ****        12.7500  -8.0000  32.5000 Du        
   8137 ****        12.7500  -8.0000  32.7500 Du        
   8138 ****        12.7500  -8.0000  33.0000 Du        
   8139 ****        12.7500  -8.0000  33.2500 Du        
   8140 ****        12.7500  -8.0000  33.5000 Du        
   8141 ****        12.7500  -8.0000  33.7500 Du        
   8142 ****        12.7500  -8.0000  34.0000 Du        
   8143 ****        12.7500  -7.7500  31.7500 Du        
   8144 ****        12.7500  -7.7500  32.0000 Du        
   8145 ****        12.7500  -7.7500  32.2500 Du        
   8146 ****        12.7500  -7.7500  32.5000 Du        
   8147 ****        12.7500  -7.7500  32.7500 Du        
   8148 ****        12.7500  -7.7500  33.0000 Du        
   8149 ****        12.7500  -7.7500  33.2500 Du        
   8150 ****        12.7500  -7.7500  33.5000 Du        
   8151 ****        12.7500  -7.7500  33.7500 Du        
   8152 ****        12.7500  -7.7500  34.0000 Du        
   8153 ****        12.7500  -7.5000  31.7500 Du        
   8154 ****        12.7500  -7.5000  32.0000 Du        
   8155 ****        12.7500  -7.5000  32.2500 Du        
   8156 ****        12.7500  -7.5000  32.5000 Du        
   8157 ****        12.7500  -7.5000  32.7500 Du        
   8158 ****        12.7500  -7.5000  33.0000 Du        
   8159 ****        12.7500  -7.5000  33.2500 Du        
   8160 ****        12.7500  -7.5000  33.5000 Du        
   8161 ****        12.7500  -7.5000  33.7500 Du        
   8162 ****        12.7500  -7.2500  31.7500 Du        
   8163 ****        12.7500  -7.2500  32.0000 Du        
   8164 ****        12.7500  -7.2500  32.2500 Du        
   8165 ****        12.7500  -7.2500  32.5000 Du        
   8166 ****        12.7500  -7.2500  32.7500 Du        
   8167 ****        12.7500  -7.2500  33.0000 Du        
   8168 ****        12.7500  -7.2500  33.2500 Du        
   8169 ****        12.7500  -7.2500  33.5000 Du        
   8170 ****        12.7500   7.5000  20.2500 Du        
   8171 ****        12.7500   7.7500  20.0000 Du        
   8172 ****        12.7500   7.7500  20.2500 Du        
   8173 ****        12.7500   7.7500  25.7500 Du        
   8174 ****        12.7500   8.0000  20.0000 Du        
   8175 ****        12.7500   8.0000  20.2500 Du        
   8176 ****        12.7500   8.0000  25.0000 Du        
   8177 ****        12.7500   8.0000  25.2500 Du        
   8178 ****        12.7500   8.0000  25.5000 Du        
   8179 ****        12.7500   8.0000  25.7500 Du        
   8180 ****        12.7500   8.0000  26.0000 Du        
   8181 ****        12.7500   8.0000  26.2500 Du        
   8182 ****        12.7500   8.0000  26.5000 Du        
   8183 ****        12.7500   8.2500  19.7500 Du        
   8184 ****        12.7500   8.2500  20.0000 Du        
   8185 ****        12.7500   8.2500  20.2500 Du        
   8186 ****        12.7500   8.2500  25.0000 Du        
   8187 ****        12.7500   8.2500  25.2500 Du        
   8188 ****        12.7500   8.2500  25.5000 Du        
   8189 ****        12.7500   8.2500  25.7500 Du        
   8190 ****        12.7500   8.2500  26.0000 Du        
   8191 ****        12.7500   8.2500  26.2500 Du        
   8192 ****        12.7500   8.2500  26.5000 Du        
   8193 ****        12.7500   8.5000  19.7500 Du        
   8194 ****        12.7500   8.5000  20.0000 Du        
   8195 ****        12.7500   8.5000  25.0000 Du        
   8196 ****        12.7500   8.5000  25.2500 Du        
   8197 ****        12.7500   8.5000  25.5000 Du        
   8198 ****        12.7500   8.5000  25.7500 Du        
   8199 ****        12.7500   8.5000  26.0000 Du        
   8200 ****        12.7500   8.5000  26.2500 Du        
   8201 ****        12.7500   8.7500  19.2500 Du        
   8202 ****        12.7500   8.7500  19.5000 Du        
   8203 ****        12.7500   8.7500  19.7500 Du        
   8204 ****        12.7500   8.7500  20.0000 Du        
   8205 ****        12.7500   8.7500  20.2500 Du        
   8206 ****        12.7500   9.0000  19.0000 Du        
   8207 ****        12.7500   9.0000  19.2500 Du        
   8208 ****        12.7500   9.0000  19.5000 Du        
   8209 ****        12.7500   9.0000  19.7500 Du        
   8210 ****        12.7500   9.0000  20.0000 Du        
   8211 ****        12.7500   9.0000  20.2500 Du        
   8212 ****        12.7500   9.2500  19.0000 Du        
   8213 ****        12.7500   9.2500  19.2500 Du        
   8214 ****        12.7500   9.2500  19.5000 Du        
   8215 ****        12.7500   9.2500  19.7500 Du        
   8216 ****        12.7500   9.2500  20.0000 Du        
   8217 ****        12.7500   9.5000  19.0000 Du        
   8218 ****        12.7500   9.5000  19.2500 Du        
   8219 ****        12.7500   9.5000  19.5000 Du        
   8220 ****        12.7500   9.5000  19.7500 Du        
   8221 ****        12.7500   9.5000  20.0000 Du        
   8222 ****        12.7500   9.7500  19.0000 Du        
   8223 ****        12.7500   9.7500  19.2500 Du        
   8224 ****        12.7500   9.7500  19.5000 Du        
   8225 ****        12.7500   9.7500  19.7500 Du        
   8226 ****        12.7500   9.7500  20.0000 Du        
   8227 ****        12.7500  10.0000  19.0000 Du        
   8228 ****        12.7500  10.0000  19.2500 Du        
   8229 ****        12.7500  10.0000  19.5000 Du        
   8230 ****        12.7500  16.2500  38.0000 Du        
   8231 ****        12.7500  16.2500  38.2500 Du        
   8232 ****        12.7500  16.5000  37.7500 Du        
   8233 ****        12.7500  16.5000  38.0000 Du        
   8234 ****        12.7500  16.5000  38.2500 Du        
   8235 ****        12.7500  16.7500  37.7500 Du        
   8236 ****        12.7500  16.7500  38.0000 Du        
   8237 ****        12.7500  16.7500  38.2500 Du        
   8238 ****        12.7500  17.0000  38.0000 Du        
   8239 ****        12.7500  17.0000  38.2500 Du        
   8240 ****        12.7500  19.5000  36.0000 Du        
   8241 ****        12.7500  19.5000  36.2500 Du        
   8242 ****        12.7500  19.5000  36.5000 Du        
   8243 ****        12.7500  19.7500  35.7500 Du        
   8244 ****        12.7500  19.7500  36.0000 Du        
   8245 ****        12.7500  19.7500  36.2500 Du        
   8246 ****        12.7500  19.7500  36.5000 Du        
   8247 ****        12.7500  19.7500  36.7500 Du        
   8248 ****        12.7500  19.7500  37.0000 Du        
   8249 ****        12.7500  20.0000  35.2500 Du        
   8250 ****        12.7500  20.0000  35.5000 Du        
   8251 ****        12.7500  20.0000  35.7500 Du        
   8252 ****        12.7500  20.0000  36.0000 Du        
   8253 ****        12.7500  20.0000  36.2500 Du        
   8254 ****        12.7500  20.0000  36.5000 Du        
   8255 ****        12.7500  20.0000  36.7500 Du        
   8256 ****        12.7500  20.0000  37.0000 Du        
   8257 ****        12.7500  20.2500  35.7500 Du        
   8258 ****        12.7500  20.2500  36.0000 Du        
   8259 ****        12.7500  20.2500  36.2500 Du        
   8260 ****        12.7500  20.2500  36.5000 Du        
   8261 ****        12.7500  20.2500  36.7500 Du        
   8262 ****        12.7500  20.2500  37.0000 Du        
   8263 ****        12.7500  20.5000  36.2500 Du        
   8264 ****        13.0000 -16.2500  33.5000 Du        
   8265 ****        13.0000 -16.2500  33.7500 Du        
   8266 ****        13.0000 -16.2500  34.0000 Du        
   8267 ****        13.0000 -16.2500  34.2500 Du        
   8268 ****        13.0000 -16.0000  32.7500 Du        
   8269 ****        13.0000 -16.0000  33.0000 Du        
   8270 ****        13.0000 -16.0000  33.2500 Du        
   8271 ****        13.0000 -16.0000  33.5000 Du        
   8272 ****        13.0000 -16.0000  33.7500 Du        
   8273 ****        13.0000 -16.0000  34.0000 Du        
   8274 ****        13.0000 -16.0000  34.2500 Du        
   8275 ****        13.0000 -15.7500  32.5000 Du        
   8276 ****        13.0000 -15.7500  32.7500 Du        
   8277 ****        13.0000 -15.7500  33.0000 Du        
   8278 ****        13.0000 -15.7500  33.2500 Du        
   8279 ****        13.0000 -15.7500  33.5000 Du        
   8280 ****        13.0000 -15.7500  33.7500 Du        
   8281 ****        13.0000 -15.7500  34.0000 Du        
   8282 ****        13.0000 -15.7500  34.2500 Du        
   8283 ****        13.0000 -15.7500  34.5000 Du        
   8284 ****        13.0000 -15.5000  32.5000 Du        
   8285 ****        13.0000 -15.5000  32.7500 Du        
   8286 ****        13.0000 -15.5000  33.0000 Du        
   8287 ****        13.0000 -15.5000  33.2500 Du        
   8288 ****        13.0000 -15.5000  33.5000 Du        
   8289 ****        13.0000 -15.5000  33.7500 Du        
   8290 ****        13.0000 -15.5000  34.0000 Du        
   8291 ****        13.0000 -15.5000  34.2500 Du        
   8292 ****        13.0000 -15.5000  34.5000 Du        
   8293 ****        13.0000 -15.2500  32.7500 Du        
   8294 ****        13.0000 -15.2500  33.0000 Du        
   8295 ****        13.0000 -15.2500  33.2500 Du        
   8296 ****        13.0000 -15.2500  33.5000 Du        
   8297 ****        13.0000 -15.2500  33.7500 Du        
   8298 ****        13.0000 -15.2500  34.0000 Du        
   8299 ****        13.0000 -15.2500  34.2500 Du        
   8300 ****        13.0000 -15.2500  34.5000 Du        
   8301 ****        13.0000 -15.0000  32.7500 Du        
   8302 ****        13.0000 -15.0000  33.0000 Du        
   8303 ****        13.0000 -15.0000  33.2500 Du        
   8304 ****        13.0000 -15.0000  33.5000 Du        
   8305 ****        13.0000 -15.0000  33.7500 Du        
   8306 ****        13.0000 -15.0000  34.0000 Du        
   8307 ****        13.0000 -15.0000  34.2500 Du        
   8308 ****        13.0000 -15.0000  34.5000 Du        
   8309 ****        13.0000 -15.0000  34.7500 Du        
   8310 ****        13.0000 -14.7500  32.7500 Du        
   8311 ****        13.0000 -14.7500  33.0000 Du        
   8312 ****        13.0000 -14.7500  33.2500 Du        
   8313 ****        13.0000 -14.7500  33.5000 Du        
   8314 ****        13.0000 -14.7500  33.7500 Du        
   8315 ****        13.0000 -14.7500  34.0000 Du        
   8316 ****        13.0000 -14.7500  34.2500 Du        
   8317 ****        13.0000 -14.7500  34.5000 Du        
   8318 ****        13.0000 -14.7500  34.7500 Du        
   8319 ****        13.0000 -14.5000  32.7500 Du        
   8320 ****        13.0000 -14.5000  33.0000 Du        
   8321 ****        13.0000 -14.5000  33.2500 Du        
   8322 ****        13.0000 -14.5000  33.5000 Du        
   8323 ****        13.0000 -14.5000  33.7500 Du        
   8324 ****        13.0000 -14.5000  34.0000 Du        
   8325 ****        13.0000 -14.5000  34.2500 Du        
   8326 ****        13.0000 -14.5000  34.5000 Du        
   8327 ****        13.0000 -14.5000  34.7500 Du        
   8328 ****        13.0000 -14.5000  35.0000 Du        
   8329 ****        13.0000 -14.2500  33.0000 Du        
   8330 ****        13.0000 -14.2500  33.2500 Du        
   8331 ****        13.0000 -14.2500  33.5000 Du        
   8332 ****        13.0000 -14.2500  33.7500 Du        
   8333 ****        13.0000 -14.2500  34.0000 Du        
   8334 ****        13.0000 -14.2500  34.2500 Du        
   8335 ****        13.0000 -14.2500  34.5000 Du        
   8336 ****        13.0000 -14.2500  34.7500 Du        
   8337 ****        13.0000 -14.2500  35.0000 Du        
   8338 ****        13.0000 -14.0000  33.0000 Du        
   8339 ****        13.0000 -14.0000  33.2500 Du        
   8340 ****        13.0000 -14.0000  33.5000 Du        
   8341 ****        13.0000 -14.0000  33.7500 Du        
   8342 ****        13.0000 -14.0000  34.0000 Du        
   8343 ****        13.0000 -14.0000  34.2500 Du        
   8344 ****        13.0000 -14.0000  34.5000 Du        
   8345 ****        13.0000 -14.0000  34.7500 Du        
   8346 ****        13.0000 -14.0000  35.0000 Du        
   8347 ****        13.0000 -13.7500  33.2500 Du        
   8348 ****        13.0000 -13.7500  33.5000 Du        
   8349 ****        13.0000 -13.7500  33.7500 Du        
   8350 ****        13.0000 -13.7500  34.0000 Du        
   8351 ****        13.0000 -13.7500  34.2500 Du        
   8352 ****        13.0000 -13.7500  34.5000 Du        
   8353 ****        13.0000 -13.7500  34.7500 Du        
   8354 ****        13.0000 -13.7500  35.0000 Du        
   8355 ****        13.0000 -13.7500  35.2500 Du        
   8356 ****        13.0000 -13.5000  33.5000 Du        
   8357 ****        13.0000 -13.5000  33.7500 Du        
   8358 ****        13.0000 -13.5000  34.0000 Du        
   8359 ****        13.0000 -13.5000  34.2500 Du        
   8360 ****        13.0000 -13.5000  34.5000 Du        
   8361 ****        13.0000 -13.5000  34.7500 Du        
   8362 ****        13.0000 -13.5000  35.0000 Du        
   8363 ****        13.0000 -13.2500  33.5000 Du        
   8364 ****        13.0000 -13.2500  33.7500 Du        
   8365 ****        13.0000 -13.2500  34.0000 Du        
   8366 ****        13.0000 -13.2500  34.2500 Du        
   8367 ****        13.0000 -13.2500  34.5000 Du        
   8368 ****        13.0000 -13.2500  34.7500 Du        
   8369 ****        13.0000 -13.2500  35.0000 Du        
   8370 ****        13.0000 -13.0000  33.5000 Du        
   8371 ****        13.0000 -13.0000  33.7500 Du        
   8372 ****        13.0000 -13.0000  34.0000 Du        
   8373 ****        13.0000 -13.0000  34.2500 Du        
   8374 ****        13.0000 -13.0000  34.5000 Du        
   8375 ****        13.0000 -13.0000  34.7500 Du        
   8376 ****        13.0000 -12.7500  33.2500 Du        
   8377 ****        13.0000 -12.7500  33.5000 Du        
   8378 ****        13.0000 -12.7500  33.7500 Du        
   8379 ****        13.0000 -12.7500  34.0000 Du        
   8380 ****        13.0000 -12.7500  34.2500 Du        
   8381 ****        13.0000 -12.7500  34.5000 Du        
   8382 ****        13.0000 -12.5000  33.5000 Du        
   8383 ****        13.0000 -12.5000  33.7500 Du        
   8384 ****        13.0000 -12.5000  34.0000 Du        
   8385 ****        13.0000 -12.5000  34.2500 Du        
   8386 ****        13.0000 -12.2500  33.2500 Du        
   8387 ****        13.0000 -12.2500  33.5000 Du        
   8388 ****        13.0000 -12.2500  33.7500 Du        
   8389 ****        13.0000 -12.2500  34.0000 Du        
   8390 ****        13.0000 -12.2500  34.2500 Du        
   8391 ****        13.0000 -12.0000  33.2500 Du        
   8392 ****        13.0000 -12.0000  33.5000 Du        
   8393 ****        13.0000 -12.0000  33.7500 Du        
   8394 ****        13.0000 -12.0000  34.0000 Du        
   8395 ****        13.0000 -12.0000  34.2500 Du        
   8396 ****        13.0000 -11.7500  33.2500 Du        
   8397 ****        13.0000 -11.7500  33.5000 Du        
   8398 ****        13.0000 -11.7500  33.7500 Du        
   8399 ****        13.0000 -11.7500  34.0000 Du        
   8400 ****        13.0000 -11.7500  34.2500 Du        
   8401 ****        13.0000 -11.5000  33.2500 Du        
   8402 ****        13.0000 -11.5000  33.5000 Du        
   8403 ****        13.0000 -11.5000  33.7500 Du        
   8404 ****        13.0000 -11.5000  34.0000 Du        
   8405 ****        13.0000 -11.5000  34.2500 Du        
   8406 ****        13.0000 -11.2500  33.0000 Du        
   8407 ****        13.0000 -11.2500  33.2500 Du        
   8408 ****        13.0000 -11.2500  33.5000 Du        
   8409 ****        13.0000 -11.2500  33.7500 Du        
   8410 ****        13.0000 -11.2500  34.0000 Du        
   8411 ****        13.0000 -11.2500  34.2500 Du        
   8412 ****        13.0000 -11.0000  32.7500 Du        
   8413 ****        13.0000 -11.0000  33.0000 Du        
   8414 ****        13.0000 -11.0000  33.2500 Du        
   8415 ****        13.0000 -11.0000  33.5000 Du        
   8416 ****        13.0000 -11.0000  33.7500 Du        
   8417 ****        13.0000 -11.0000  34.0000 Du        
   8418 ****        13.0000 -11.0000  34.2500 Du        
   8419 ****        13.0000 -10.7500  32.7500 Du        
   8420 ****        13.0000 -10.7500  33.0000 Du        
   8421 ****        13.0000 -10.7500  33.2500 Du        
   8422 ****        13.0000 -10.7500  33.5000 Du        
   8423 ****        13.0000 -10.7500  33.7500 Du        
   8424 ****        13.0000 -10.7500  34.0000 Du        
   8425 ****        13.0000 -10.7500  34.2500 Du        
   8426 ****        13.0000 -10.7500  34.5000 Du        
   8427 ****        13.0000 -10.5000  32.5000 Du        
   8428 ****        13.0000 -10.5000  32.7500 Du        
   8429 ****        13.0000 -10.5000  33.0000 Du        
   8430 ****        13.0000 -10.5000  33.2500 Du        
   8431 ****        13.0000 -10.5000  33.5000 Du        
   8432 ****        13.0000 -10.5000  33.7500 Du        
   8433 ****        13.0000 -10.5000  34.0000 Du        
   8434 ****        13.0000 -10.5000  34.2500 Du        
   8435 ****        13.0000 -10.5000  34.5000 Du        
   8436 ****        13.0000 -10.2500  32.5000 Du        
   8437 ****        13.0000 -10.2500  32.7500 Du        
   8438 ****        13.0000 -10.2500  33.0000 Du        
   8439 ****        13.0000 -10.2500  33.2500 Du        
   8440 ****        13.0000 -10.2500  33.5000 Du        
   8441 ****        13.0000 -10.2500  33.7500 Du        
   8442 ****        13.0000 -10.2500  34.0000 Du        
   8443 ****        13.0000 -10.2500  34.2500 Du        
   8444 ****        13.0000 -10.2500  34.5000 Du        
   8445 ****        13.0000 -10.2500  34.7500 Du        
   8446 ****        13.0000 -10.0000  32.5000 Du        
   8447 ****        13.0000 -10.0000  32.7500 Du        
   8448 ****        13.0000 -10.0000  33.0000 Du        
   8449 ****        13.0000 -10.0000  33.2500 Du        
   8450 ****        13.0000 -10.0000  33.5000 Du        
   8451 ****        13.0000 -10.0000  33.7500 Du        
   8452 ****        13.0000 -10.0000  34.0000 Du        
   8453 ****        13.0000 -10.0000  34.2500 Du        
   8454 ****        13.0000 -10.0000  34.5000 Du        
   8455 ****        13.0000 -10.0000  34.7500 Du        
   8456 ****        13.0000 -10.0000  35.0000 Du        
   8457 ****        13.0000  -9.7500  32.5000 Du        
   8458 ****        13.0000  -9.7500  32.7500 Du        
   8459 ****        13.0000  -9.7500  33.0000 Du        
   8460 ****        13.0000  -9.7500  33.2500 Du        
   8461 ****        13.0000  -9.7500  33.5000 Du        
   8462 ****        13.0000  -9.7500  33.7500 Du        
   8463 ****        13.0000  -9.7500  34.0000 Du        
   8464 ****        13.0000  -9.7500  34.2500 Du        
   8465 ****        13.0000  -9.7500  34.5000 Du        
   8466 ****        13.0000  -9.7500  34.7500 Du        
   8467 ****        13.0000  -9.7500  35.0000 Du        
   8468 ****        13.0000  -9.5000  32.5000 Du        
   8469 ****        13.0000  -9.5000  32.7500 Du        
   8470 ****        13.0000  -9.5000  33.0000 Du        
   8471 ****        13.0000  -9.5000  33.2500 Du        
   8472 ****        13.0000  -9.5000  33.5000 Du        
   8473 ****        13.0000  -9.5000  33.7500 Du        
   8474 ****        13.0000  -9.5000  34.0000 Du        
   8475 ****        13.0000  -9.5000  34.2500 Du        
   8476 ****        13.0000  -9.5000  34.5000 Du        
   8477 ****        13.0000  -9.5000  34.7500 Du        
   8478 ****        13.0000  -9.5000  35.0000 Du        
   8479 ****        13.0000  -9.2500  32.2500 Du        
   8480 ****        13.0000  -9.2500  32.5000 Du        
   8481 ****        13.0000  -9.2500  32.7500 Du        
   8482 ****        13.0000  -9.2500  33.0000 Du        
   8483 ****        13.0000  -9.2500  33.2500 Du        
   8484 ****        13.0000  -9.2500  33.5000 Du        
   8485 ****        13.0000  -9.2500  33.7500 Du        
   8486 ****        13.0000  -9.2500  34.0000 Du        
   8487 ****        13.0000  -9.2500  34.2500 Du        
   8488 ****        13.0000  -9.2500  34.5000 Du        
   8489 ****        13.0000  -9.2500  34.7500 Du        
   8490 ****        13.0000  -9.2500  35.0000 Du        
   8491 ****        13.0000  -9.2500  35.2500 Du        
   8492 ****        13.0000  -9.0000  32.2500 Du        
   8493 ****        13.0000  -9.0000  32.5000 Du        
   8494 ****        13.0000  -9.0000  32.7500 Du        
   8495 ****        13.0000  -9.0000  33.0000 Du        
   8496 ****        13.0000  -9.0000  33.2500 Du        
   8497 ****        13.0000  -9.0000  33.5000 Du        
   8498 ****        13.0000  -9.0000  33.7500 Du        
   8499 ****        13.0000  -9.0000  34.0000 Du        
   8500 ****        13.0000  -9.0000  34.2500 Du        
   8501 ****        13.0000  -9.0000  34.5000 Du        
   8502 ****        13.0000  -9.0000  34.7500 Du        
   8503 ****        13.0000  -9.0000  35.0000 Du        
   8504 ****        13.0000  -9.0000  35.2500 Du        
   8505 ****        13.0000  -8.7500  32.2500 Du        
   8506 ****        13.0000  -8.7500  32.5000 Du        
   8507 ****        13.0000  -8.7500  32.7500 Du        
   8508 ****        13.0000  -8.7500  33.0000 Du        
   8509 ****        13.0000  -8.7500  33.2500 Du        
   8510 ****        13.0000  -8.7500  33.5000 Du        
   8511 ****        13.0000  -8.7500  33.7500 Du        
   8512 ****        13.0000  -8.7500  34.0000 Du        
   8513 ****        13.0000  -8.7500  34.2500 Du        
   8514 ****        13.0000  -8.7500  34.5000 Du        
   8515 ****        13.0000  -8.7500  34.7500 Du        
   8516 ****        13.0000  -8.7500  35.0000 Du        
   8517 ****        13.0000  -8.5000  32.5000 Du        
   8518 ****        13.0000  -8.5000  32.7500 Du        
   8519 ****        13.0000  -8.5000  33.0000 Du        
   8520 ****        13.0000  -8.5000  33.2500 Du        
   8521 ****        13.0000  -8.5000  33.5000 Du        
   8522 ****        13.0000  -8.5000  33.7500 Du        
   8523 ****        13.0000  -8.5000  34.0000 Du        
   8524 ****        13.0000  -8.5000  34.2500 Du        
   8525 ****        13.0000  -8.5000  34.5000 Du        
   8526 ****        13.0000  -8.2500  32.5000 Du        
   8527 ****        13.0000  -8.2500  32.7500 Du        
   8528 ****        13.0000  -8.2500  33.0000 Du        
   8529 ****        13.0000  -8.2500  33.2500 Du        
   8530 ****        13.0000  -8.2500  33.5000 Du        
   8531 ****        13.0000  -8.2500  33.7500 Du        
   8532 ****        13.0000  -8.2500  34.0000 Du        
   8533 ****        13.0000  -8.2500  34.2500 Du        
   8534 ****        13.0000  -8.2500  34.5000 Du        
   8535 ****        13.0000  -8.0000  32.7500 Du        
   8536 ****        13.0000  -8.0000  33.0000 Du        
   8537 ****        13.0000  -8.0000  33.2500 Du        
   8538 ****        13.0000  -8.0000  33.5000 Du        
   8539 ****        13.0000  -8.0000  33.7500 Du        
   8540 ****        13.0000  -8.0000  34.0000 Du        
   8541 ****        13.0000  -8.0000  34.2500 Du        
   8542 ****        13.0000  -7.7500  32.7500 Du        
   8543 ****        13.0000  -7.7500  33.0000 Du        
   8544 ****        13.0000  -7.7500  33.2500 Du        
   8545 ****        13.0000  -7.7500  33.5000 Du        
   8546 ****        13.0000  -7.7500  33.7500 Du        
   8547 ****        13.0000  -7.7500  34.0000 Du        
   8548 ****        13.0000  -7.5000  32.7500 Du        
   8549 ****        13.0000  -7.5000  33.0000 Du        
   8550 ****        13.0000  -7.5000  33.2500 Du        
   8551 ****        13.0000  -7.5000  33.5000 Du        
   8552 ****        13.0000  -7.5000  33.7500 Du        
   8553 ****        13.0000  -7.2500  33.0000 Du        
   8554 ****        13.0000  -7.2500  33.2500 Du        
   8555 ****        13.0000  -7.2500  33.5000 Du        
   8556 ****        13.0000   7.7500  20.0000 Du        
   8557 ****        13.0000   7.7500  20.2500 Du        
   8558 ****        13.0000   7.7500  20.5000 Du        
   8559 ****        13.0000   8.0000  20.2500 Du        
   8560 ****        13.0000   8.0000  20.5000 Du        
   8561 ****        13.0000   8.0000  25.5000 Du        
   8562 ****        13.0000   8.0000  25.7500 Du        
   8563 ****        13.0000   8.0000  26.0000 Du        
   8564 ****        13.0000   8.0000  26.2500 Du        
   8565 ****        13.0000   8.2500  19.7500 Du        
   8566 ****        13.0000   8.2500  20.0000 Du        
   8567 ****        13.0000   8.2500  20.2500 Du        
   8568 ****        13.0000   8.2500  20.5000 Du        
   8569 ****        13.0000   8.2500  24.7500 Du        
   8570 ****        13.0000   8.2500  25.0000 Du        
   8571 ****        13.0000   8.2500  25.2500 Du        
   8572 ****        13.0000   8.2500  25.5000 Du        
   8573 ****        13.0000   8.2500  25.7500 Du        
   8574 ****        13.0000   8.2500  26.0000 Du        
   8575 ****        13.0000   8.2500  26.2500 Du        
   8576 ****        13.0000   8.2500  26.5000 Du        
   8577 ****        13.0000   8.5000  19.7500 Du        
   8578 ****        13.0000   8.5000  20.0000 Du        
   8579 ****        13.0000   8.5000  20.2500 Du        
   8580 ****        13.0000   8.5000  20.5000 Du        
   8581 ****        13.0000   8.5000  25.0000 Du        
   8582 ****        13.0000   8.5000  25.2500 Du        
   8583 ****        13.0000   8.5000  25.5000 Du        
   8584 ****        13.0000   8.5000  25.7500 Du        
   8585 ****        13.0000   8.5000  26.0000 Du        
   8586 ****        13.0000   8.5000  26.2500 Du        
   8587 ****        13.0000   8.5000  26.5000 Du        
   8588 ****        13.0000   8.7500  19.7500 Du        
   8589 ****        13.0000   8.7500  20.0000 Du        
   8590 ****        13.0000   8.7500  20.2500 Du        
   8591 ****        13.0000   8.7500  20.5000 Du        
   8592 ****        13.0000   8.7500  25.7500 Du        
   8593 ****        13.0000   8.7500  26.0000 Du        
   8594 ****        13.0000   9.0000  19.5000 Du        
   8595 ****        13.0000   9.0000  19.7500 Du        
   8596 ****        13.0000   9.0000  20.0000 Du        
   8597 ****        13.0000   9.0000  20.2500 Du        
   8598 ****        13.0000   9.0000  20.5000 Du        
   8599 ****        13.0000   9.2500  19.2500 Du        
   8600 ****        13.0000   9.2500  19.5000 Du        
   8601 ****        13.0000   9.2500  19.7500 Du        
   8602 ****        13.0000   9.2500  20.0000 Du        
   8603 ****        13.0000   9.2500  20.2500 Du        
   8604 ****        13.0000   9.5000  19.0000 Du        
   8605 ****        13.0000   9.5000  19.2500 Du        
   8606 ****        13.0000   9.5000  19.5000 Du        
   8607 ****        13.0000   9.5000  19.7500 Du        
   8608 ****        13.0000   9.5000  20.0000 Du        
   8609 ****        13.0000   9.5000  20.2500 Du        
   8610 ****        13.0000   9.7500  19.0000 Du        
   8611 ****        13.0000   9.7500  19.2500 Du        
   8612 ****        13.0000   9.7500  19.5000 Du        
   8613 ****        13.0000   9.7500  19.7500 Du        
   8614 ****        13.0000   9.7500  20.0000 Du        
   8615 ****        13.0000  16.2500  38.0000 Du        
   8616 ****        13.0000  16.2500  38.2500 Du        
   8617 ****        13.0000  16.2500  38.5000 Du        
   8618 ****        13.0000  16.5000  37.7500 Du        
   8619 ****        13.0000  16.5000  38.0000 Du        
   8620 ****        13.0000  16.5000  38.2500 Du        
   8621 ****        13.0000  16.5000  38.5000 Du        
   8622 ****        13.0000  16.7500  37.7500 Du        
   8623 ****        13.0000  16.7500  38.0000 Du        
   8624 ****        13.0000  16.7500  38.5000 Du        
   8625 ****        13.0000  16.7500  38.7500 Du        
   8626 ****        13.0000  16.7500  39.0000 Du        
   8627 ****        13.0000  17.0000  38.0000 Du        
   8628 ****        13.0000  19.5000  36.0000 Du        
   8629 ****        13.0000  19.5000  36.2500 Du        
   8630 ****        13.0000  19.7500  35.5000 Du        
   8631 ****        13.0000  19.7500  35.7500 Du        
   8632 ****        13.0000  19.7500  36.0000 Du        
   8633 ****        13.0000  19.7500  36.2500 Du        
   8634 ****        13.0000  19.7500  36.5000 Du        
   8635 ****        13.0000  20.0000  35.2500 Du        
   8636 ****        13.0000  20.0000  35.5000 Du        
   8637 ****        13.0000  20.0000  35.7500 Du        
   8638 ****        13.0000  20.0000  36.0000 Du        
   8639 ****        13.0000  20.0000  36.2500 Du        
   8640 ****        13.0000  20.0000  36.5000 Du        
   8641 ****        13.0000  20.0000  36.7500 Du        
   8642 ****        13.0000  20.2500  35.7500 Du        
   8643 ****        13.0000  20.2500  36.0000 Du        
   8644 ****        13.0000  20.2500  36.2500 Du        
   8645 ****        13.0000  20.2500  36.5000 Du        
   8646 ****        13.2500 -16.2500  33.7500 Du        
   8647 ****        13.2500 -16.2500  34.0000 Du        
   8648 ****        13.2500 -16.0000  33.0000 Du        
   8649 ****        13.2500 -16.0000  33.2500 Du        
   8650 ****        13.2500 -16.0000  33.5000 Du        
   8651 ****        13.2500 -16.0000  33.7500 Du        
   8652 ****        13.2500 -16.0000  34.0000 Du        
   8653 ****        13.2500 -16.0000  34.2500 Du        
   8654 ****        13.2500 -15.7500  32.7500 Du        
   8655 ****        13.2500 -15.7500  33.0000 Du        
   8656 ****        13.2500 -15.7500  33.2500 Du        
   8657 ****        13.2500 -15.7500  33.5000 Du        
   8658 ****        13.2500 -15.7500  33.7500 Du        
   8659 ****        13.2500 -15.7500  34.0000 Du        
   8660 ****        13.2500 -15.7500  34.2500 Du        
   8661 ****        13.2500 -15.5000  32.7500 Du        
   8662 ****        13.2500 -15.5000  33.0000 Du        
   8663 ****        13.2500 -15.5000  33.2500 Du        
   8664 ****        13.2500 -15.5000  33.5000 Du        
   8665 ****        13.2500 -15.5000  33.7500 Du        
   8666 ****        13.2500 -15.5000  34.0000 Du        
   8667 ****        13.2500 -15.5000  34.2500 Du        
   8668 ****        13.2500 -15.2500  32.7500 Du        
   8669 ****        13.2500 -15.2500  33.0000 Du        
   8670 ****        13.2500 -15.2500  33.2500 Du        
   8671 ****        13.2500 -15.2500  33.5000 Du        
   8672 ****        13.2500 -15.2500  33.7500 Du        
   8673 ****        13.2500 -15.2500  34.0000 Du        
   8674 ****        13.2500 -15.2500  34.2500 Du        
   8675 ****        13.2500 -15.2500  34.5000 Du        
   8676 ****        13.2500 -15.0000  32.7500 Du        
   8677 ****        13.2500 -15.0000  33.0000 Du        
   8678 ****        13.2500 -15.0000  33.2500 Du        
   8679 ****        13.2500 -15.0000  33.5000 Du        
   8680 ****        13.2500 -15.0000  33.7500 Du        
   8681 ****        13.2500 -15.0000  34.0000 Du        
   8682 ****        13.2500 -15.0000  34.2500 Du        
   8683 ****        13.2500 -15.0000  34.5000 Du        
   8684 ****        13.2500 -14.7500  32.7500 Du        
   8685 ****        13.2500 -14.7500  33.0000 Du        
   8686 ****        13.2500 -14.7500  33.2500 Du        
   8687 ****        13.2500 -14.7500  33.5000 Du        
   8688 ****        13.2500 -14.7500  33.7500 Du        
   8689 ****        13.2500 -14.7500  34.0000 Du        
   8690 ****        13.2500 -14.7500  34.2500 Du        
   8691 ****        13.2500 -14.7500  34.5000 Du        
   8692 ****        13.2500 -14.7500  34.7500 Du        
   8693 ****        13.2500 -14.5000  33.0000 Du        
   8694 ****        13.2500 -14.5000  33.2500 Du        
   8695 ****        13.2500 -14.5000  33.5000 Du        
   8696 ****        13.2500 -14.5000  33.7500 Du        
   8697 ****        13.2500 -14.5000  34.0000 Du        
   8698 ****        13.2500 -14.5000  34.2500 Du        
   8699 ****        13.2500 -14.5000  34.5000 Du        
   8700 ****        13.2500 -14.5000  34.7500 Du        
   8701 ****        13.2500 -14.2500  33.0000 Du        
   8702 ****        13.2500 -14.2500  33.2500 Du        
   8703 ****        13.2500 -14.2500  33.5000 Du        
   8704 ****        13.2500 -14.2500  33.7500 Du        
   8705 ****        13.2500 -14.2500  34.0000 Du        
   8706 ****        13.2500 -14.2500  34.2500 Du        
   8707 ****        13.2500 -14.2500  34.5000 Du        
   8708 ****        13.2500 -14.2500  34.7500 Du        
   8709 ****        13.2500 -14.2500  35.0000 Du        
   8710 ****        13.2500 -14.0000  33.5000 Du        
   8711 ****        13.2500 -14.0000  33.7500 Du        
   8712 ****        13.2500 -14.0000  34.0000 Du        
   8713 ****        13.2500 -14.0000  34.2500 Du        
   8714 ****        13.2500 -14.0000  34.5000 Du        
   8715 ****        13.2500 -14.0000  34.7500 Du        
   8716 ****        13.2500 -14.0000  35.0000 Du        
   8717 ****        13.2500 -13.7500  33.7500 Du        
   8718 ****        13.2500 -13.7500  34.0000 Du        
   8719 ****        13.2500 -13.7500  34.2500 Du        
   8720 ****        13.2500 -13.7500  34.5000 Du        
   8721 ****        13.2500 -13.7500  34.7500 Du        
   8722 ****        13.2500 -13.7500  35.0000 Du        
   8723 ****        13.2500 -13.7500  35.2500 Du        
   8724 ****        13.2500 -13.5000  34.2500 Du        
   8725 ****        13.2500 -13.5000  34.5000 Du        
   8726 ****        13.2500 -13.5000  34.7500 Du        
   8727 ****        13.2500 -13.5000  35.0000 Du        
   8728 ****        13.2500 -13.5000  35.2500 Du        
   8729 ****        13.2500 -13.2500  34.2500 Du        
   8730 ****        13.2500 -13.2500  34.5000 Du        
   8731 ****        13.2500 -13.2500  34.7500 Du        
   8732 ****        13.2500 -13.2500  35.0000 Du        
   8733 ****        13.2500 -13.0000  34.5000 Du        
   8734 ****        13.2500 -13.0000  34.7500 Du        
   8735 ****        13.2500 -13.0000  35.0000 Du        
   8736 ****        13.2500 -12.7500  34.5000 Du        
   8737 ****        13.2500 -12.5000  34.0000 Du        
   8738 ****        13.2500 -12.5000  34.2500 Du        
   8739 ****        13.2500 -12.5000  34.5000 Du        
   8740 ****        13.2500 -12.2500  33.5000 Du        
   8741 ****        13.2500 -12.2500  33.7500 Du        
   8742 ****        13.2500 -12.2500  34.0000 Du        
   8743 ****        13.2500 -12.0000  33.5000 Du        
   8744 ****        13.2500 -12.0000  33.7500 Du        
   8745 ****        13.2500 -12.0000  34.0000 Du        
   8746 ****        13.2500 -11.7500  33.5000 Du        
   8747 ****        13.2500 -11.7500  33.7500 Du        
   8748 ****        13.2500 -11.7500  34.0000 Du        
   8749 ****        13.2500 -11.5000  33.5000 Du        
   8750 ****        13.2500 -11.5000  33.7500 Du        
   8751 ****        13.2500 -11.5000  34.0000 Du        
   8752 ****        13.2500 -11.2500  33.0000 Du        
   8753 ****        13.2500 -11.2500  33.2500 Du        
   8754 ****        13.2500 -11.2500  33.5000 Du        
   8755 ****        13.2500 -11.2500  33.7500 Du        
   8756 ****        13.2500 -11.2500  34.0000 Du        
   8757 ****        13.2500 -11.0000  32.7500 Du        
   8758 ****        13.2500 -11.0000  33.0000 Du        
   8759 ****        13.2500 -11.0000  33.2500 Du        
   8760 ****        13.2500 -11.0000  33.5000 Du        
   8761 ****        13.2500 -11.0000  33.7500 Du        
   8762 ****        13.2500 -11.0000  34.0000 Du        
   8763 ****        13.2500 -10.7500  32.7500 Du        
   8764 ****        13.2500 -10.7500  33.0000 Du        
   8765 ****        13.2500 -10.7500  33.2500 Du        
   8766 ****        13.2500 -10.7500  33.5000 Du        
   8767 ****        13.2500 -10.7500  33.7500 Du        
   8768 ****        13.2500 -10.7500  34.0000 Du        
   8769 ****        13.2500 -10.5000  32.5000 Du        
   8770 ****        13.2500 -10.5000  32.7500 Du        
   8771 ****        13.2500 -10.5000  33.0000 Du        
   8772 ****        13.2500 -10.5000  33.2500 Du        
   8773 ****        13.2500 -10.5000  33.5000 Du        
   8774 ****        13.2500 -10.5000  33.7500 Du        
   8775 ****        13.2500 -10.5000  34.0000 Du        
   8776 ****        13.2500 -10.2500  32.5000 Du        
   8777 ****        13.2500 -10.2500  32.7500 Du        
   8778 ****        13.2500 -10.2500  33.0000 Du        
   8779 ****        13.2500 -10.2500  33.2500 Du        
   8780 ****        13.2500 -10.2500  33.5000 Du        
   8781 ****        13.2500 -10.2500  33.7500 Du        
   8782 ****        13.2500 -10.2500  34.0000 Du        
   8783 ****        13.2500 -10.2500  34.2500 Du        
   8784 ****        13.2500 -10.0000  32.5000 Du        
   8785 ****        13.2500 -10.0000  32.7500 Du        
   8786 ****        13.2500 -10.0000  33.0000 Du        
   8787 ****        13.2500 -10.0000  33.2500 Du        
   8788 ****        13.2500 -10.0000  33.5000 Du        
   8789 ****        13.2500 -10.0000  33.7500 Du        
   8790 ****        13.2500 -10.0000  34.0000 Du        
   8791 ****        13.2500 -10.0000  34.2500 Du        
   8792 ****        13.2500 -10.0000  34.5000 Du        
   8793 ****        13.2500  -9.7500  32.7500 Du        
   8794 ****        13.2500  -9.7500  33.0000 Du        
   8795 ****        13.2500  -9.7500  33.2500 Du        
   8796 ****        13.2500  -9.7500  33.5000 Du        
   8797 ****        13.2500  -9.7500  33.7500 Du        
   8798 ****        13.2500  -9.7500  34.0000 Du        
   8799 ****        13.2500  -9.7500  34.2500 Du        
   8800 ****        13.2500  -9.7500  34.5000 Du        
   8801 ****        13.2500  -9.7500  34.7500 Du        
   8802 ****        13.2500  -9.5000  32.7500 Du        
   8803 ****        13.2500  -9.5000  33.0000 Du        
   8804 ****        13.2500  -9.5000  33.2500 Du        
   8805 ****        13.2500  -9.5000  33.5000 Du        
   8806 ****        13.2500  -9.5000  33.7500 Du        
   8807 ****        13.2500  -9.5000  34.0000 Du        
   8808 ****        13.2500  -9.5000  34.2500 Du        
   8809 ****        13.2500  -9.5000  34.5000 Du        
   8810 ****        13.2500  -9.5000  34.7500 Du        
   8811 ****        13.2500  -9.5000  35.0000 Du        
   8812 ****        13.2500  -9.2500  32.7500 Du        
   8813 ****        13.2500  -9.2500  33.0000 Du        
   8814 ****        13.2500  -9.2500  33.2500 Du        
   8815 ****        13.2500  -9.2500  33.5000 Du        
   8816 ****        13.2500  -9.2500  33.7500 Du        
   8817 ****        13.2500  -9.2500  34.0000 Du        
   8818 ****        13.2500  -9.2500  34.2500 Du        
   8819 ****        13.2500  -9.2500  34.5000 Du        
   8820 ****        13.2500  -9.2500  34.7500 Du        
   8821 ****        13.2500  -9.2500  35.0000 Du        
   8822 ****        13.2500  -9.0000  32.7500 Du        
   8823 ****        13.2500  -9.0000  33.0000 Du        
   8824 ****        13.2500  -9.0000  33.2500 Du        
   8825 ****        13.2500  -9.0000  33.5000 Du        
   8826 ****        13.2500  -9.0000  33.7500 Du        
   8827 ****        13.2500  -9.0000  34.0000 Du        
   8828 ****        13.2500  -9.0000  34.2500 Du        
   8829 ****        13.2500  -9.0000  34.5000 Du        
   8830 ****        13.2500  -9.0000  34.7500 Du        
   8831 ****        13.2500  -9.0000  35.0000 Du        
   8832 ****        13.2500  -8.7500  33.0000 Du        
   8833 ****        13.2500  -8.7500  33.2500 Du        
   8834 ****        13.2500  -8.7500  33.5000 Du        
   8835 ****        13.2500  -8.7500  33.7500 Du        
   8836 ****        13.2500  -8.7500  34.0000 Du        
   8837 ****        13.2500  -8.7500  34.2500 Du        
   8838 ****        13.2500  -8.7500  34.5000 Du        
   8839 ****        13.2500  -8.7500  34.7500 Du        
   8840 ****        13.2500  -8.7500  35.0000 Du        
   8841 ****        13.2500  -8.5000  33.0000 Du        
   8842 ****        13.2500  -8.5000  33.2500 Du        
   8843 ****        13.2500  -8.5000  33.5000 Du        
   8844 ****        13.2500  -8.5000  33.7500 Du        
   8845 ****        13.2500  -8.5000  34.0000 Du        
   8846 ****        13.2500  -8.5000  34.2500 Du        
   8847 ****        13.2500  -8.5000  34.5000 Du        
   8848 ****        13.2500  -8.5000  34.7500 Du        
   8849 ****        13.2500  -8.2500  33.0000 Du        
   8850 ****        13.2500  -8.2500  33.2500 Du        
   8851 ****        13.2500  -8.2500  33.5000 Du        
   8852 ****        13.2500  -8.2500  33.7500 Du        
   8853 ****        13.2500  -8.2500  34.0000 Du        
   8854 ****        13.2500  -8.2500  34.2500 Du        
   8855 ****        13.2500  -8.2500  34.5000 Du        
   8856 ****        13.2500  -8.0000  33.2500 Du        
   8857 ****        13.2500  -8.0000  33.5000 Du        
   8858 ****        13.2500  -8.0000  33.7500 Du        
   8859 ****        13.2500  -8.0000  34.0000 Du        
   8860 ****        13.2500  -8.0000  34.2500 Du        
   8861 ****        13.2500  -7.7500  33.2500 Du        
   8862 ****        13.2500  -7.7500  33.5000 Du        
   8863 ****        13.2500  -7.7500  33.7500 Du        
   8864 ****        13.2500  -7.7500  34.0000 Du        
   8865 ****        13.2500  -7.5000  33.5000 Du        
   8866 ****        13.2500  -7.5000  33.7500 Du        
   8867 ****        13.2500   8.0000  20.2500 Du        
   8868 ****        13.2500   8.0000  20.5000 Du        
   8869 ****        13.2500   8.0000  20.7500 Du        
   8870 ****        13.2500   8.2500  20.0000 Du        
   8871 ****        13.2500   8.2500  20.2500 Du        
   8872 ****        13.2500   8.2500  20.5000 Du        
   8873 ****        13.2500   8.2500  20.7500 Du        
   8874 ****        13.2500   8.2500  24.7500 Du        
   8875 ****        13.2500   8.2500  25.0000 Du        
   8876 ****        13.2500   8.2500  25.2500 Du        
   8877 ****        13.2500   8.2500  25.5000 Du        
   8878 ****        13.2500   8.2500  25.7500 Du        
   8879 ****        13.2500   8.2500  26.0000 Du        
   8880 ****        13.2500   8.2500  26.2500 Du        
   8881 ****        13.2500   8.2500  26.5000 Du        
   8882 ****        13.2500   8.5000  20.0000 Du        
   8883 ****        13.2500   8.5000  20.2500 Du        
   8884 ****        13.2500   8.5000  20.5000 Du        
   8885 ****        13.2500   8.5000  20.7500 Du        
   8886 ****        13.2500   8.5000  24.7500 Du        
   8887 ****        13.2500   8.5000  25.0000 Du        
   8888 ****        13.2500   8.5000  25.2500 Du        
   8889 ****        13.2500   8.5000  25.5000 Du        
   8890 ****        13.2500   8.5000  25.7500 Du        
   8891 ****        13.2500   8.5000  26.0000 Du        
   8892 ****        13.2500   8.5000  26.2500 Du        
   8893 ****        13.2500   8.5000  26.5000 Du        
   8894 ****        13.2500   8.5000  26.7500 Du        
   8895 ****        13.2500   8.7500  19.7500 Du        
   8896 ****        13.2500   8.7500  20.0000 Du        
   8897 ****        13.2500   8.7500  20.2500 Du        
   8898 ****        13.2500   8.7500  20.5000 Du        
   8899 ****        13.2500   8.7500  20.7500 Du        
   8900 ****        13.2500   8.7500  26.0000 Du        
   8901 ****        13.2500   8.7500  26.2500 Du        
   8902 ****        13.2500   8.7500  26.5000 Du        
   8903 ****        13.2500   9.0000  19.7500 Du        
   8904 ****        13.2500   9.0000  20.0000 Du        
   8905 ****        13.2500   9.0000  20.2500 Du        
   8906 ****        13.2500   9.0000  20.5000 Du        
   8907 ****        13.2500   9.0000  20.7500 Du        
   8908 ****        13.2500   9.2500  19.7500 Du        
   8909 ****        13.2500   9.2500  20.0000 Du        
   8910 ****        13.2500   9.2500  20.2500 Du        
   8911 ****        13.2500   9.2500  20.5000 Du        
   8912 ****        13.2500   9.5000  19.5000 Du        
   8913 ****        13.2500   9.5000  19.7500 Du        
   8914 ****        13.2500   9.5000  20.0000 Du        
   8915 ****        13.2500   9.5000  20.2500 Du        
   8916 ****        13.2500   9.7500  20.0000 Du        
   8917 ****        13.2500  16.0000  38.0000 Du        
   8918 ****        13.2500  16.2500  37.7500 Du        
   8919 ****        13.2500  16.2500  38.0000 Du        
   8920 ****        13.2500  16.2500  38.2500 Du        
   8921 ****        13.2500  16.2500  38.5000 Du        
   8922 ****        13.2500  16.2500  38.7500 Du        
   8923 ****        13.2500  16.5000  37.7500 Du        
   8924 ****        13.2500  16.5000  38.0000 Du        
   8925 ****        13.2500  16.5000  38.2500 Du        
   8926 ****        13.2500  16.5000  38.5000 Du        
   8927 ****        13.2500  16.5000  38.7500 Du        
   8928 ****        13.2500  16.7500  37.7500 Du        
   8929 ****        13.2500  16.7500  38.7500 Du        
   8930 ****        13.2500  16.7500  39.0000 Du        
   8931 ****        13.2500  17.0000  39.0000 Du        
   8932 ****        13.2500  19.5000  36.0000 Du        
   8933 ****        13.2500  19.5000  36.2500 Du        
   8934 ****        13.2500  19.7500  35.5000 Du        
   8935 ****        13.2500  19.7500  35.7500 Du        
   8936 ****        13.2500  19.7500  36.0000 Du        
   8937 ****        13.2500  19.7500  36.2500 Du        
   8938 ****        13.2500  20.0000  35.5000 Du        
   8939 ****        13.2500  20.0000  35.7500 Du        
   8940 ****        13.2500  20.0000  36.0000 Du        
   8941 ****        13.2500  20.0000  36.2500 Du        
   8942 ****        13.2500  20.2500  36.0000 Du        
   8943 ****        13.2500  20.2500  36.2500 Du        
   8944 ****        13.5000 -16.0000  33.5000 Du        
   8945 ****        13.5000 -16.0000  33.7500 Du        
   8946 ****        13.5000 -15.7500  33.2500 Du        
   8947 ****        13.5000 -15.7500  33.5000 Du        
   8948 ****        13.5000 -15.7500  33.7500 Du        
   8949 ****        13.5000 -15.7500  34.0000 Du        
   8950 ****        13.5000 -15.5000  33.0000 Du        
   8951 ****        13.5000 -15.5000  33.2500 Du        
   8952 ****        13.5000 -15.5000  33.5000 Du        
   8953 ****        13.5000 -15.5000  33.7500 Du        
   8954 ****        13.5000 -15.5000  34.0000 Du        
   8955 ****        13.5000 -15.2500  33.0000 Du        
   8956 ****        13.5000 -15.2500  33.2500 Du        
   8957 ****        13.5000 -15.2500  33.5000 Du        
   8958 ****        13.5000 -15.2500  33.7500 Du        
   8959 ****        13.5000 -15.2500  34.0000 Du        
   8960 ****        13.5000 -15.2500  34.2500 Du        
   8961 ****        13.5000 -15.0000  33.2500 Du        
   8962 ****        13.5000 -15.0000  33.5000 Du        
   8963 ****        13.5000 -15.0000  33.7500 Du        
   8964 ****        13.5000 -15.0000  34.0000 Du        
   8965 ****        13.5000 -15.0000  34.2500 Du        
   8966 ****        13.5000 -14.7500  33.5000 Du        
   8967 ****        13.5000 -14.7500  33.7500 Du        
   8968 ****        13.5000 -14.7500  34.0000 Du        
   8969 ****        13.5000 -14.7500  34.2500 Du        
   8970 ****        13.5000 -14.7500  34.5000 Du        
   8971 ****        13.5000 -14.5000  34.0000 Du        
   8972 ****        13.5000 -14.5000  34.2500 Du        
   8973 ****        13.5000 -14.5000  34.5000 Du        
   8974 ****        13.5000 -14.2500  34.5000 Du        
   8975 ****        13.5000 -14.2500  34.7500 Du        
   8976 ****        13.5000 -14.0000  34.7500 Du        
   8977 ****        13.5000 -14.0000  35.0000 Du        
   8978 ****        13.5000 -13.7500  35.0000 Du        
   8979 ****        13.5000 -10.2500  33.0000 Du        
   8980 ****        13.5000 -10.2500  33.2500 Du        
   8981 ****        13.5000 -10.2500  33.5000 Du        
   8982 ****        13.5000 -10.0000  33.0000 Du        
   8983 ****        13.5000 -10.0000  33.2500 Du        
   8984 ****        13.5000 -10.0000  33.5000 Du        
   8985 ****        13.5000 -10.0000  33.7500 Du        
   8986 ****        13.5000 -10.0000  34.0000 Du        
   8987 ****        13.5000  -9.7500  33.2500 Du        
   8988 ****        13.5000  -9.7500  33.5000 Du        
   8989 ****        13.5000  -9.7500  33.7500 Du        
   8990 ****        13.5000  -9.7500  34.0000 Du        
   8991 ****        13.5000  -9.7500  34.2500 Du        
   8992 ****        13.5000  -9.5000  33.2500 Du        
   8993 ****        13.5000  -9.5000  33.5000 Du        
   8994 ****        13.5000  -9.5000  33.7500 Du        
   8995 ****        13.5000  -9.5000  34.0000 Du        
   8996 ****        13.5000  -9.5000  34.2500 Du        
   8997 ****        13.5000  -9.5000  34.5000 Du        
   8998 ****        13.5000  -9.5000  34.7500 Du        
   8999 ****        13.5000  -9.2500  33.2500 Du        
   9000 ****        13.5000  -9.2500  33.5000 Du        
   9001 ****        13.5000  -9.2500  33.7500 Du        
   9002 ****        13.5000  -9.2500  34.0000 Du        
   9003 ****        13.5000  -9.2500  34.2500 Du        
   9004 ****        13.5000  -9.2500  34.5000 Du        
   9005 ****        13.5000  -9.2500  34.7500 Du        
   9006 ****        13.5000  -9.2500  35.0000 Du        
   9007 ****        13.5000  -9.0000  33.2500 Du        
   9008 ****        13.5000  -9.0000  33.5000 Du        
   9009 ****        13.5000  -9.0000  33.7500 Du        
   9010 ****        13.5000  -9.0000  34.0000 Du        
   9011 ****        13.5000  -9.0000  34.2500 Du        
   9012 ****        13.5000  -9.0000  34.5000 Du        
   9013 ****        13.5000  -9.0000  34.7500 Du        
   9014 ****        13.5000  -9.0000  35.0000 Du        
   9015 ****        13.5000  -8.7500  33.5000 Du        
   9016 ****        13.5000  -8.7500  33.7500 Du        
   9017 ****        13.5000  -8.7500  34.0000 Du        
   9018 ****        13.5000  -8.7500  34.2500 Du        
   9019 ****        13.5000  -8.7500  34.5000 Du        
   9020 ****        13.5000  -8.7500  34.7500 Du        
   9021 ****        13.5000  -8.7500  35.0000 Du        
   9022 ****        13.5000  -8.5000  33.5000 Du        
   9023 ****        13.5000  -8.5000  33.7500 Du        
   9024 ****        13.5000  -8.5000  34.0000 Du        
   9025 ****        13.5000  -8.5000  34.2500 Du        
   9026 ****        13.5000  -8.5000  34.5000 Du        
   9027 ****        13.5000  -8.5000  34.7500 Du        
   9028 ****        13.5000  -8.2500  33.5000 Du        
   9029 ****        13.5000  -8.2500  33.7500 Du        
   9030 ****        13.5000  -8.2500  34.0000 Du        
   9031 ****        13.5000  -8.2500  34.2500 Du        
   9032 ****        13.5000  -8.2500  34.5000 Du        
   9033 ****        13.5000  -8.0000  33.7500 Du        
   9034 ****        13.5000  -8.0000  34.0000 Du        
   9035 ****        13.5000  -8.0000  34.2500 Du        
   9036 ****        13.5000  -7.7500  33.7500 Du        
   9037 ****        13.5000  -7.7500  34.0000 Du        
   9038 ****        13.5000  -7.5000  34.0000 Du        
   9039 ****        13.5000   8.2500  25.7500 Du        
   9040 ****        13.5000   8.2500  26.0000 Du        
   9041 ****        13.5000   8.2500  26.2500 Du        
   9042 ****        13.5000   8.5000  20.2500 Du        
   9043 ****        13.5000   8.5000  20.5000 Du        
   9044 ****        13.5000   8.5000  20.7500 Du        
   9045 ****        13.5000   8.5000  24.7500 Du        
   9046 ****        13.5000   8.5000  25.0000 Du        
   9047 ****        13.5000   8.5000  25.2500 Du        
   9048 ****        13.5000   8.5000  25.5000 Du        
   9049 ****        13.5000   8.5000  25.7500 Du        
   9050 ****        13.5000   8.5000  26.0000 Du        
   9051 ****        13.5000   8.5000  26.2500 Du        
   9052 ****        13.5000   8.5000  26.5000 Du        
   9053 ****        13.5000   8.5000  26.7500 Du        
   9054 ****        13.5000   8.7500  20.0000 Du        
   9055 ****        13.5000   8.7500  20.2500 Du        
   9056 ****        13.5000   8.7500  20.5000 Du        
   9057 ****        13.5000   8.7500  20.7500 Du        
   9058 ****        13.5000   8.7500  21.0000 Du        
   9059 ****        13.5000   8.7500  26.5000 Du        
   9060 ****        13.5000   8.7500  26.7500 Du        
   9061 ****        13.5000   8.7500  27.0000 Du        
   9062 ****        13.5000   9.0000  20.0000 Du        
   9063 ****        13.5000   9.0000  20.2500 Du        
   9064 ****        13.5000   9.0000  20.5000 Du        
   9065 ****        13.5000   9.0000  20.7500 Du        
   9066 ****        13.5000   9.0000  21.0000 Du        
   9067 ****        13.5000   9.2500  20.0000 Du        
   9068 ****        13.5000   9.2500  20.2500 Du        
   9069 ****        13.5000   9.2500  20.5000 Du        
   9070 ****        13.5000   9.2500  20.7500 Du        
   9071 ****        13.5000   9.5000  19.7500 Du        
   9072 ****        13.5000   9.5000  20.0000 Du        
   9073 ****        13.5000   9.5000  20.2500 Du        
   9074 ****        13.5000   9.5000  20.5000 Du        
   9075 ****        13.5000  16.0000  38.0000 Du        
   9076 ****        13.5000  16.0000  38.2500 Du        
   9077 ****        13.5000  16.2500  37.7500 Du        
   9078 ****        13.5000  16.2500  38.0000 Du        
   9079 ****        13.5000  16.2500  38.2500 Du        
   9080 ****        13.5000  16.2500  38.5000 Du        
   9081 ****        13.5000  16.2500  38.7500 Du        
   9082 ****        13.5000  16.5000  38.0000 Du        
   9083 ****        13.5000  16.5000  38.2500 Du        
   9084 ****        13.5000  16.5000  38.5000 Du        
   9085 ****        13.5000  16.5000  38.7500 Du        
   9086 ****        13.5000  16.7500  38.7500 Du        
   9087 ****        13.5000  16.7500  39.0000 Du        
   9088 ****        13.5000  19.7500  35.7500 Du        
   9089 ****        13.5000  19.7500  36.0000 Du        
   9090 ****        13.5000  19.7500  36.2500 Du        
   9091 ****        13.5000  20.0000  35.7500 Du        
   9092 ****        13.5000  20.0000  36.0000 Du        
   9093 ****        13.5000  20.0000  36.2500 Du        
   9094 ****        13.7500 -16.0000  33.5000 Du        
   9095 ****        13.7500 -16.0000  33.7500 Du        
   9096 ****        13.7500 -15.7500  33.2500 Du        
   9097 ****        13.7500 -15.7500  33.5000 Du        
   9098 ****        13.7500 -15.7500  33.7500 Du        
   9099 ****        13.7500 -15.5000  33.0000 Du        
   9100 ****        13.7500 -15.5000  33.2500 Du        
   9101 ****        13.7500 -15.5000  33.5000 Du        
   9102 ****        13.7500 -15.5000  33.7500 Du        
   9103 ****        13.7500 -15.5000  34.0000 Du        
   9104 ****        13.7500 -15.2500  33.2500 Du        
   9105 ****        13.7500 -15.2500  33.5000 Du        
   9106 ****        13.7500 -15.2500  33.7500 Du        
   9107 ****        13.7500 -15.2500  34.0000 Du        
   9108 ****        13.7500 -15.0000  33.5000 Du        
   9109 ****        13.7500 -15.0000  33.7500 Du        
   9110 ****        13.7500 -15.0000  34.0000 Du        
   9111 ****        13.7500  -9.2500  33.7500 Du        
   9112 ****        13.7500  -9.2500  34.0000 Du        
   9113 ****        13.7500  -9.2500  34.2500 Du        
   9114 ****        13.7500  -9.2500  34.5000 Du        
   9115 ****        13.7500  -9.2500  34.7500 Du        
   9116 ****        13.7500  -9.0000  33.7500 Du        
   9117 ****        13.7500  -9.0000  34.0000 Du        
   9118 ****        13.7500  -9.0000  34.2500 Du        
   9119 ****        13.7500  -9.0000  34.5000 Du        
   9120 ****        13.7500  -9.0000  34.7500 Du        
   9121 ****        13.7500  -9.0000  35.0000 Du        
   9122 ****        13.7500  -8.7500  33.7500 Du        
   9123 ****        13.7500  -8.7500  34.0000 Du        
   9124 ****        13.7500  -8.7500  34.2500 Du        
   9125 ****        13.7500  -8.7500  34.5000 Du        
   9126 ****        13.7500  -8.7500  34.7500 Du        
   9127 ****        13.7500  -8.7500  35.0000 Du        
   9128 ****        13.7500  -8.5000  34.0000 Du        
   9129 ****        13.7500  -8.5000  34.2500 Du        
   9130 ****        13.7500  -8.5000  34.5000 Du        
   9131 ****        13.7500  -8.5000  34.7500 Du        
   9132 ****        13.7500  -8.2500  34.0000 Du        
   9133 ****        13.7500  -8.2500  34.2500 Du        
   9134 ****        13.7500  -8.2500  34.5000 Du        
   9135 ****        13.7500  -8.0000  34.0000 Du        
   9136 ****        13.7500  -8.0000  34.2500 Du        
   9137 ****        13.7500   8.5000  20.5000 Du        
   9138 ****        13.7500   8.5000  20.7500 Du        
   9139 ****        13.7500   8.5000  25.7500 Du        
   9140 ****        13.7500   8.5000  26.0000 Du        
   9141 ****        13.7500   8.5000  26.2500 Du        
   9142 ****        13.7500   8.5000  26.5000 Du        
   9143 ****        13.7500   8.5000  26.7500 Du        
   9144 ****        13.7500   8.7500  20.2500 Du        
   9145 ****        13.7500   8.7500  20.5000 Du        
   9146 ****        13.7500   8.7500  20.7500 Du        
   9147 ****        13.7500   8.7500  21.0000 Du        
   9148 ****        13.7500   8.7500  26.5000 Du        
   9149 ****        13.7500   8.7500  26.7500 Du        
   9150 ****        13.7500   8.7500  27.0000 Du        
   9151 ****        13.7500   8.7500  27.2500 Du        
   9152 ****        13.7500   9.0000  20.2500 Du        
   9153 ****        13.7500   9.0000  20.5000 Du        
   9154 ****        13.7500   9.0000  20.7500 Du        
   9155 ****        13.7500   9.0000  21.0000 Du        
   9156 ****        13.7500   9.0000  27.2500 Du        
   9157 ****        13.7500   9.2500  20.0000 Du        
   9158 ****        13.7500   9.2500  20.2500 Du        
   9159 ****        13.7500   9.2500  20.5000 Du        
   9160 ****        13.7500   9.2500  20.7500 Du        
   9161 ****        13.7500   9.2500  21.0000 Du        
   9162 ****        13.7500   9.5000  20.0000 Du        
   9163 ****        13.7500   9.5000  20.2500 Du        
   9164 ****        13.7500   9.5000  20.5000 Du        
   9165 ****        13.7500   9.5000  20.7500 Du        
   9166 ****        13.7500   9.7500  20.5000 Du        
   9167 ****        13.7500  16.0000  37.7500 Du        
   9168 ****        13.7500  16.0000  38.0000 Du        
   9169 ****        13.7500  16.0000  38.2500 Du        
   9170 ****        13.7500  16.0000  38.5000 Du        
   9171 ****        13.7500  16.2500  37.7500 Du        
   9172 ****        13.7500  16.2500  38.0000 Du        
   9173 ****        13.7500  16.2500  38.2500 Du        
   9174 ****        13.7500  16.2500  38.5000 Du        
   9175 ****        13.7500  16.2500  38.7500 Du        
   9176 ****        13.7500  16.5000  38.0000 Du        
   9177 ****        13.7500  16.5000  38.2500 Du        
   9178 ****        13.7500  16.5000  38.7500 Du        
   9179 ****        13.7500  16.7500  38.7500 Du        
   9180 ****        13.7500  19.7500  35.5000 Du        
   9181 ****        13.7500  19.7500  35.7500 Du        
   9182 ****        13.7500  19.7500  36.0000 Du        
   9183 ****        13.7500  20.0000  35.7500 Du        
   9184 ****        13.7500  20.0000  36.0000 Du        
   9185 ****        14.0000 -16.0000  33.5000 Du        
   9186 ****        14.0000 -15.7500  33.5000 Du        
   9187 ****        14.0000 -15.7500  33.7500 Du        
   9188 ****        14.0000  -9.0000  34.5000 Du        
   9189 ****        14.0000  -8.7500  34.2500 Du        
   9190 ****        14.0000  -8.7500  34.5000 Du        
   9191 ****        14.0000  -8.7500  34.7500 Du        
   9192 ****        14.0000  -8.5000  34.2500 Du        
   9193 ****        14.0000  -8.5000  34.5000 Du        
   9194 ****        14.0000  -8.5000  34.7500 Du        
   9195 ****        14.0000  -8.2500  34.2500 Du        
   9196 ****        14.0000  -8.2500  34.5000 Du        
   9197 ****        14.0000   8.5000  26.0000 Du        
   9198 ****        14.0000   8.5000  26.2500 Du        
   9199 ****        14.0000   8.5000  26.5000 Du        
   9200 ****        14.0000   8.5000  26.7500 Du        
   9201 ****        14.0000   8.7500  20.5000 Du        
   9202 ****        14.0000   8.7500  26.5000 Du        
   9203 ****        14.0000   8.7500  26.7500 Du        
   9204 ****        14.0000   8.7500  27.0000 Du        
   9205 ****        14.0000   8.7500  27.2500 Du        
   9206 ****        14.0000   9.0000  20.2500 Du        
   9207 ****        14.0000   9.0000  20.5000 Du        
   9208 ****        14.0000   9.0000  20.7500 Du        
   9209 ****        14.0000   9.0000  21.0000 Du        
   9210 ****        14.0000   9.0000  27.0000 Du        
   9211 ****        14.0000   9.0000  27.2500 Du        
   9212 ****        14.0000   9.2500  20.2500 Du        
   9213 ****        14.0000   9.2500  20.5000 Du        
   9214 ****        14.0000   9.2500  20.7500 Du        
   9215 ****        14.0000   9.2500  21.0000 Du        
   9216 ****        14.0000   9.5000  20.2500 Du        
   9217 ****        14.0000   9.5000  20.5000 Du        
   9218 ****        14.0000   9.5000  20.7500 Du        
   9219 ****        14.0000   9.5000  21.0000 Du        
   9220 ****        14.0000   9.7500  20.2500 Du        
   9221 ****        14.0000   9.7500  20.5000 Du        
   9222 ****        14.0000   9.7500  20.7500 Du        
   9223 ****        14.0000  15.7500  38.0000 Du        
   9224 ****        14.0000  16.0000  37.7500 Du        
   9225 ****        14.0000  16.0000  38.0000 Du        
   9226 ****        14.0000  16.0000  38.2500 Du        
   9227 ****        14.0000  16.2500  37.7500 Du        
   9228 ****        14.0000  16.2500  38.0000 Du        
   9229 ****        14.0000  16.2500  38.2500 Du        
   9230 ****        14.0000  16.2500  38.5000 Du        
   9231 ****        14.0000  16.2500  38.7500 Du        
   9232 ****        14.0000  16.5000  38.0000 Du        
   9233 ****        14.0000  16.5000  38.7500 Du        
   9234 ****        14.0000  19.7500  35.0000 Du        
   9235 ****        14.0000  19.7500  35.2500 Du        
   9236 ****        14.0000  19.7500  35.5000 Du        
   9237 ****        14.0000  19.7500  35.7500 Du        
   9238 ****        14.0000  19.7500  36.0000 Du        
   9239 ****        14.0000  20.5000  32.0000 Du        
   9240 ****        14.0000  20.5000  32.2500 Du        
   9241 ****        14.0000  20.7500  31.5000 Du        
   9242 ****        14.0000  20.7500  31.7500 Du        
   9243 ****        14.0000  20.7500  32.0000 Du        
   9244 ****        14.0000  21.0000  31.5000 Du        
   9245 ****        14.0000  21.0000  31.7500 Du        
   9246 ****        14.0000  21.0000  32.0000 Du        
   9247 ****        14.2500 -16.0000  33.5000 Du        
   9248 ****        14.2500   8.5000  26.5000 Du        
   9249 ****        14.2500   8.5000  26.7500 Du        
   9250 ****        14.2500   8.7500  26.7500 Du        
   9251 ****        14.2500   8.7500  27.0000 Du        
   9252 ****        14.2500   9.0000  20.5000 Du        
   9253 ****        14.2500   9.0000  27.2500 Du        
   9254 ****        14.2500   9.2500  20.5000 Du        
   9255 ****        14.2500   9.2500  20.7500 Du        
   9256 ****        14.2500   9.2500  21.0000 Du        
   9257 ****        14.2500   9.5000  20.2500 Du        
   9258 ****        14.2500   9.5000  20.5000 Du        
   9259 ****        14.2500   9.5000  20.7500 Du        
   9260 ****        14.2500   9.5000  21.0000 Du        
   9261 ****        14.2500   9.5000  21.2500 Du        
   9262 ****        14.2500   9.7500  20.5000 Du        
   9263 ****        14.2500   9.7500  20.7500 Du        
   9264 ****        14.2500   9.7500  21.0000 Du        
   9265 ****        14.2500  15.7500  37.7500 Du        
   9266 ****        14.2500  15.7500  38.0000 Du        
   9267 ****        14.2500  15.7500  38.2500 Du        
   9268 ****        14.2500  16.0000  37.7500 Du        
   9269 ****        14.2500  16.0000  38.0000 Du        
   9270 ****        14.2500  16.0000  38.2500 Du        
   9271 ****        14.2500  16.2500  37.7500 Du        
   9272 ****        14.2500  16.2500  38.0000 Du        
   9273 ****        14.2500  16.2500  38.2500 Du        
   9274 ****        14.2500  16.2500  38.5000 Du        
   9275 ****        14.2500  16.2500  38.7500 Du        
   9276 ****        14.2500  19.7500  34.7500 Du        
   9277 ****        14.2500  19.7500  35.0000 Du        
   9278 ****        14.2500  19.7500  35.2500 Du        
   9279 ****        14.2500  19.7500  35.7500 Du        
   9280 ****        14.2500  20.0000  32.2500 Du        
   9281 ****        14.2500  20.0000  32.5000 Du        
   9282 ****        14.2500  20.0000  32.7500 Du        
   9283 ****        14.2500  20.0000  33.0000 Du        
   9284 ****        14.2500  20.0000  33.2500 Du        
   9285 ****        14.2500  20.0000  35.2500 Du        
   9286 ****        14.2500  20.2500  31.7500 Du        
   9287 ****        14.2500  20.2500  32.0000 Du        
   9288 ****        14.2500  20.2500  32.2500 Du        
   9289 ****        14.2500  20.2500  32.5000 Du        
   9290 ****        14.2500  20.2500  32.7500 Du        
   9291 ****        14.2500  20.2500  33.0000 Du        
   9292 ****        14.2500  20.5000  31.5000 Du        
   9293 ****        14.2500  20.5000  31.7500 Du        
   9294 ****        14.2500  20.5000  32.0000 Du        
   9295 ****        14.2500  20.5000  32.2500 Du        
   9296 ****        14.2500  20.5000  32.5000 Du        
   9297 ****        14.2500  20.7500  31.2500 Du        
   9298 ****        14.2500  20.7500  31.5000 Du        
   9299 ****        14.2500  20.7500  31.7500 Du        
   9300 ****        14.2500  20.7500  32.0000 Du        
   9301 ****        14.2500  20.7500  32.2500 Du        
   9302 ****        14.2500  21.0000  31.2500 Du        
   9303 ****        14.2500  21.0000  31.5000 Du        
   9304 ****        14.2500  21.0000  31.7500 Du        
   9305 ****        14.2500  21.0000  32.0000 Du        
   9306 ****        14.2500  21.2500  31.5000 Du        
   9307 ****        14.2500  21.2500  31.7500 Du        
   9308 ****        14.5000   4.2500  19.5000 Du        
   9309 ****        14.5000   4.5000  19.5000 Du        
   9310 ****        14.5000   4.5000  19.7500 Du        
   9311 ****        14.5000   4.7500  19.5000 Du        
   9312 ****        14.5000   4.7500  19.7500 Du        
   9313 ****        14.5000   5.0000  19.5000 Du        
   9314 ****        14.5000   5.0000  19.7500 Du        
   9315 ****        14.5000   5.2500  19.7500 Du        
   9316 ****        14.5000   8.7500  27.0000 Du        
   9317 ****        14.5000   9.2500  20.5000 Du        
   9318 ****        14.5000   9.2500  36.5000 Du        
   9319 ****        14.5000   9.2500  36.7500 Du        
   9320 ****        14.5000   9.5000  20.5000 Du        
   9321 ****        14.5000   9.5000  20.7500 Du        
   9322 ****        14.5000   9.5000  21.0000 Du        
   9323 ****        14.5000   9.5000  36.2500 Du        
   9324 ****        14.5000   9.5000  36.5000 Du        
   9325 ****        14.5000   9.5000  36.7500 Du        
   9326 ****        14.5000   9.5000  37.0000 Du        
   9327 ****        14.5000   9.7500  20.5000 Du        
   9328 ****        14.5000   9.7500  20.7500 Du        
   9329 ****        14.5000   9.7500  21.0000 Du        
   9330 ****        14.5000   9.7500  21.2500 Du        
   9331 ****        14.5000   9.7500  36.0000 Du        
   9332 ****        14.5000   9.7500  36.2500 Du        
   9333 ****        14.5000   9.7500  36.5000 Du        
   9334 ****        14.5000   9.7500  36.7500 Du        
   9335 ****        14.5000  10.0000  21.0000 Du        
   9336 ****        14.5000  10.0000  36.0000 Du        
   9337 ****        14.5000  10.0000  36.2500 Du        
   9338 ****        14.5000  10.2500  36.0000 Du        
   9339 ****        14.5000  15.7500  38.0000 Du        
   9340 ****        14.5000  16.0000  37.7500 Du        
   9341 ****        14.5000  16.0000  38.0000 Du        
   9342 ****        14.5000  16.0000  38.2500 Du        
   9343 ****        14.5000  16.2500  38.0000 Du        
   9344 ****        14.5000  16.2500  38.2500 Du        
   9345 ****        14.5000  19.7500  32.2500 Du        
   9346 ****        14.5000  19.7500  32.5000 Du        
   9347 ****        14.5000  19.7500  32.7500 Du        
   9348 ****        14.5000  19.7500  33.0000 Du        
   9349 ****        14.5000  19.7500  33.2500 Du        
   9350 ****        14.5000  19.7500  33.5000 Du        
   9351 ****        14.5000  19.7500  33.7500 Du        
   9352 ****        14.5000  19.7500  34.0000 Du        
   9353 ****        14.5000  19.7500  34.2500 Du        
   9354 ****        14.5000  19.7500  35.2500 Du        
   9355 ****        14.5000  20.0000  31.7500 Du        
   9356 ****        14.5000  20.0000  32.0000 Du        
   9357 ****        14.5000  20.0000  32.2500 Du        
   9358 ****        14.5000  20.0000  32.5000 Du        
   9359 ****        14.5000  20.0000  32.7500 Du        
   9360 ****        14.5000  20.0000  33.0000 Du        
   9361 ****        14.5000  20.0000  33.2500 Du        
   9362 ****        14.5000  20.0000  33.5000 Du        
   9363 ****        14.5000  20.0000  33.7500 Du        
   9364 ****        14.5000  20.0000  34.0000 Du        
   9365 ****        14.5000  20.2500  31.2500 Du        
   9366 ****        14.5000  20.2500  31.5000 Du        
   9367 ****        14.5000  20.2500  31.7500 Du        
   9368 ****        14.5000  20.2500  32.0000 Du        
   9369 ****        14.5000  20.2500  32.2500 Du        
   9370 ****        14.5000  20.2500  32.5000 Du        
   9371 ****        14.5000  20.2500  32.7500 Du        
   9372 ****        14.5000  20.2500  33.0000 Du        
   9373 ****        14.5000  20.2500  33.2500 Du        
   9374 ****        14.5000  20.5000  31.2500 Du        
   9375 ****        14.5000  20.5000  31.5000 Du        
   9376 ****        14.5000  20.5000  31.7500 Du        
   9377 ****        14.5000  20.5000  32.0000 Du        
   9378 ****        14.5000  20.5000  32.2500 Du        
   9379 ****        14.5000  20.5000  32.5000 Du        
   9380 ****        14.5000  20.5000  32.7500 Du        
   9381 ****        14.5000  20.7500  31.2500 Du        
   9382 ****        14.5000  20.7500  31.5000 Du        
   9383 ****        14.5000  20.7500  31.7500 Du        
   9384 ****        14.5000  20.7500  32.0000 Du        
   9385 ****        14.5000  20.7500  32.2500 Du        
   9386 ****        14.5000  20.7500  32.5000 Du        
   9387 ****        14.5000  21.0000  31.2500 Du        
   9388 ****        14.5000  21.0000  31.5000 Du        
   9389 ****        14.5000  21.0000  31.7500 Du        
   9390 ****        14.5000  21.0000  32.0000 Du        
   9391 ****        14.7500   3.5000  19.5000 Du        
   9392 ****        14.7500   3.7500  19.2500 Du        
   9393 ****        14.7500   3.7500  19.5000 Du        
   9394 ****        14.7500   3.7500  19.7500 Du        
   9395 ****        14.7500   4.0000  19.0000 Du        
   9396 ****        14.7500   4.0000  19.2500 Du        
   9397 ****        14.7500   4.0000  19.5000 Du        
   9398 ****        14.7500   4.0000  19.7500 Du        
   9399 ****        14.7500   4.2500  19.0000 Du        
   9400 ****        14.7500   4.2500  19.2500 Du        
   9401 ****        14.7500   4.2500  19.5000 Du        
   9402 ****        14.7500   4.2500  19.7500 Du        
   9403 ****        14.7500   4.5000  19.2500 Du        
   9404 ****        14.7500   4.5000  19.5000 Du        
   9405 ****        14.7500   4.5000  19.7500 Du        
   9406 ****        14.7500   4.7500  19.5000 Du        
   9407 ****        14.7500   4.7500  19.7500 Du        
   9408 ****        14.7500   5.0000  19.5000 Du        
   9409 ****        14.7500   5.0000  19.7500 Du        
   9410 ****        14.7500   5.2500  19.7500 Du        
   9411 ****        14.7500   9.2500  36.5000 Du        
   9412 ****        14.7500   9.2500  36.7500 Du        
   9413 ****        14.7500   9.2500  37.0000 Du        
   9414 ****        14.7500   9.2500  37.2500 Du        
   9415 ****        14.7500   9.5000  20.5000 Du        
   9416 ****        14.7500   9.5000  20.7500 Du        
   9417 ****        14.7500   9.5000  36.0000 Du        
   9418 ****        14.7500   9.5000  36.2500 Du        
   9419 ****        14.7500   9.5000  36.5000 Du        
   9420 ****        14.7500   9.5000  36.7500 Du        
   9421 ****        14.7500   9.5000  37.0000 Du        
   9422 ****        14.7500   9.5000  37.2500 Du        
   9423 ****        14.7500   9.5000  37.5000 Du        
   9424 ****        14.7500   9.7500  20.5000 Du        
   9425 ****        14.7500   9.7500  20.7500 Du        
   9426 ****        14.7500   9.7500  21.0000 Du        
   9427 ****        14.7500   9.7500  21.2500 Du        
   9428 ****        14.7500   9.7500  35.7500 Du        
   9429 ****        14.7500   9.7500  36.0000 Du        
   9430 ****        14.7500   9.7500  36.2500 Du        
   9431 ****        14.7500   9.7500  36.5000 Du        
   9432 ****        14.7500   9.7500  36.7500 Du        
   9433 ****        14.7500   9.7500  37.0000 Du        
   9434 ****        14.7500   9.7500  37.2500 Du        
   9435 ****        14.7500  10.0000  20.7500 Du        
   9436 ****        14.7500  10.0000  21.0000 Du        
   9437 ****        14.7500  10.0000  21.2500 Du        
   9438 ****        14.7500  10.0000  35.7500 Du        
   9439 ****        14.7500  10.0000  36.0000 Du        
   9440 ****        14.7500  10.0000  36.2500 Du        
   9441 ****        14.7500  10.0000  36.5000 Du        
   9442 ****        14.7500  10.0000  36.7500 Du        
   9443 ****        14.7500  10.2500  35.7500 Du        
   9444 ****        14.7500  10.2500  36.0000 Du        
   9445 ****        14.7500  10.2500  36.2500 Du        
   9446 ****        14.7500  10.2500  36.5000 Du        
   9447 ****        14.7500  10.5000  35.7500 Du        
   9448 ****        14.7500  10.5000  36.0000 Du        
   9449 ****        14.7500  15.7500  38.0000 Du        
   9450 ****        14.7500  16.0000  37.7500 Du        
   9451 ****        14.7500  16.0000  38.0000 Du        
   9452 ****        14.7500  16.0000  38.2500 Du        
   9453 ****        14.7500  16.2500  38.0000 Du        
   9454 ****        14.7500  16.2500  38.2500 Du        
   9455 ****        14.7500  19.5000  32.0000 Du        
   9456 ****        14.7500  19.5000  32.2500 Du        
   9457 ****        14.7500  19.5000  32.5000 Du        
   9458 ****        14.7500  19.5000  32.7500 Du        
   9459 ****        14.7500  19.5000  33.0000 Du        
   9460 ****        14.7500  19.5000  33.2500 Du        
   9461 ****        14.7500  19.7500  31.5000 Du        
   9462 ****        14.7500  19.7500  31.7500 Du        
   9463 ****        14.7500  19.7500  32.0000 Du        
   9464 ****        14.7500  19.7500  32.2500 Du        
   9465 ****        14.7500  19.7500  32.5000 Du        
   9466 ****        14.7500  19.7500  32.7500 Du        
   9467 ****        14.7500  19.7500  33.0000 Du        
   9468 ****        14.7500  19.7500  33.2500 Du        
   9469 ****        14.7500  19.7500  33.5000 Du        
   9470 ****        14.7500  19.7500  33.7500 Du        
   9471 ****        14.7500  19.7500  34.0000 Du        
   9472 ****        14.7500  19.7500  34.2500 Du        
   9473 ****        14.7500  19.7500  34.5000 Du        
   9474 ****        14.7500  19.7500  34.7500 Du        
   9475 ****        14.7500  19.7500  35.0000 Du        
   9476 ****        14.7500  19.7500  35.2500 Du        
   9477 ****        14.7500  20.0000  31.2500 Du        
   9478 ****        14.7500  20.0000  31.5000 Du        
   9479 ****        14.7500  20.0000  31.7500 Du        
   9480 ****        14.7500  20.0000  32.0000 Du        
   9481 ****        14.7500  20.0000  32.2500 Du        
   9482 ****        14.7500  20.0000  32.5000 Du        
   9483 ****        14.7500  20.0000  32.7500 Du        
   9484 ****        14.7500  20.0000  33.0000 Du        
   9485 ****        14.7500  20.0000  33.2500 Du        
   9486 ****        14.7500  20.0000  33.5000 Du        
   9487 ****        14.7500  20.0000  33.7500 Du        
   9488 ****        14.7500  20.0000  34.0000 Du        
   9489 ****        14.7500  20.0000  34.2500 Du        
   9490 ****        14.7500  20.0000  34.5000 Du        
   9491 ****        14.7500  20.0000  34.7500 Du        
   9492 ****        14.7500  20.0000  35.0000 Du        
   9493 ****        14.7500  20.2500  31.2500 Du        
   9494 ****        14.7500  20.2500  31.5000 Du        
   9495 ****        14.7500  20.2500  31.7500 Du        
   9496 ****        14.7500  20.2500  32.0000 Du        
   9497 ****        14.7500  20.2500  32.2500 Du        
   9498 ****        14.7500  20.2500  32.5000 Du        
   9499 ****        14.7500  20.2500  32.7500 Du        
   9500 ****        14.7500  20.2500  33.0000 Du        
   9501 ****        14.7500  20.2500  33.2500 Du        
   9502 ****        14.7500  20.2500  33.5000 Du        
   9503 ****        14.7500  20.5000  31.2500 Du        
   9504 ****        14.7500  20.5000  31.5000 Du        
   9505 ****        14.7500  20.5000  31.7500 Du        
   9506 ****        14.7500  20.5000  32.0000 Du        
   9507 ****        14.7500  20.5000  32.2500 Du        
   9508 ****        14.7500  20.5000  32.5000 Du        
   9509 ****        14.7500  20.5000  32.7500 Du        
   9510 ****        14.7500  20.5000  33.0000 Du        
   9511 ****        14.7500  20.7500  31.5000 Du        
   9512 ****        14.7500  20.7500  31.7500 Du        
   9513 ****        14.7500  20.7500  32.0000 Du        
   9514 ****        14.7500  20.7500  32.2500 Du        
   9515 ****        14.7500  20.7500  32.5000 Du        
   9516 ****        14.7500  21.0000  31.7500 Du        
   9517 ****        14.7500  21.0000  32.0000 Du        
   9518 ****        14.7500  21.0000  32.2500 Du        
   9519 ****        15.0000  -4.5000  25.7500 Du        
   9520 ****        15.0000   3.2500  19.5000 Du        
   9521 ****        15.0000   3.2500  19.7500 Du        
   9522 ****        15.0000   3.5000  19.0000 Du        
   9523 ****        15.0000   3.5000  19.2500 Du        
   9524 ****        15.0000   3.5000  19.5000 Du        
   9525 ****        15.0000   3.5000  19.7500 Du        
   9526 ****        15.0000   3.7500  19.0000 Du        
   9527 ****        15.0000   3.7500  19.2500 Du        
   9528 ****        15.0000   3.7500  19.5000 Du        
   9529 ****        15.0000   3.7500  19.7500 Du        
   9530 ****        15.0000   3.7500  20.0000 Du        
   9531 ****        15.0000   4.0000  19.0000 Du        
   9532 ****        15.0000   4.0000  19.2500 Du        
   9533 ****        15.0000   4.0000  19.5000 Du        
   9534 ****        15.0000   4.0000  19.7500 Du        
   9535 ****        15.0000   4.0000  20.0000 Du        
   9536 ****        15.0000   4.2500  19.0000 Du        
   9537 ****        15.0000   4.2500  19.2500 Du        
   9538 ****        15.0000   4.2500  19.5000 Du        
   9539 ****        15.0000   4.2500  19.7500 Du        
   9540 ****        15.0000   4.2500  20.0000 Du        
   9541 ****        15.0000   4.5000  19.2500 Du        
   9542 ****        15.0000   4.5000  19.5000 Du        
   9543 ****        15.0000   4.5000  19.7500 Du        
   9544 ****        15.0000   4.5000  20.0000 Du        
   9545 ****        15.0000   4.7500  19.5000 Du        
   9546 ****        15.0000   4.7500  19.7500 Du        
   9547 ****        15.0000   4.7500  20.0000 Du        
   9548 ****        15.0000   5.0000  19.5000 Du        
   9549 ****        15.0000   5.0000  19.7500 Du        
   9550 ****        15.0000   5.0000  20.0000 Du        
   9551 ****        15.0000   5.2500  19.7500 Du        
   9552 ****        15.0000   9.2500  36.5000 Du        
   9553 ****        15.0000   9.2500  36.7500 Du        
   9554 ****        15.0000   9.2500  37.0000 Du        
   9555 ****        15.0000   9.2500  37.2500 Du        
   9556 ****        15.0000   9.2500  37.5000 Du        
   9557 ****        15.0000   9.5000  36.0000 Du        
   9558 ****        15.0000   9.5000  36.2500 Du        
   9559 ****        15.0000   9.5000  36.5000 Du        
   9560 ****        15.0000   9.5000  36.7500 Du        
   9561 ****        15.0000   9.5000  37.0000 Du        
   9562 ****        15.0000   9.5000  37.2500 Du        
   9563 ****        15.0000   9.5000  37.5000 Du        
   9564 ****        15.0000   9.5000  37.7500 Du        
   9565 ****        15.0000   9.7500  20.5000 Du        
   9566 ****        15.0000   9.7500  20.7500 Du        
   9567 ****        15.0000   9.7500  21.0000 Du        
   9568 ****        15.0000   9.7500  21.2500 Du        
   9569 ****        15.0000   9.7500  35.7500 Du        
   9570 ****        15.0000   9.7500  36.0000 Du        
   9571 ****        15.0000   9.7500  36.2500 Du        
   9572 ****        15.0000   9.7500  36.5000 Du        
   9573 ****        15.0000   9.7500  36.7500 Du        
   9574 ****        15.0000   9.7500  37.0000 Du        
   9575 ****        15.0000   9.7500  37.2500 Du        
   9576 ****        15.0000   9.7500  37.5000 Du        
   9577 ****        15.0000   9.7500  37.7500 Du        
   9578 ****        15.0000  10.0000  20.7500 Du        
   9579 ****        15.0000  10.0000  21.0000 Du        
   9580 ****        15.0000  10.0000  21.2500 Du        
   9581 ****        15.0000  10.0000  35.7500 Du        
   9582 ****        15.0000  10.0000  36.0000 Du        
   9583 ****        15.0000  10.0000  36.2500 Du        
   9584 ****        15.0000  10.0000  36.5000 Du        
   9585 ****        15.0000  10.0000  36.7500 Du        
   9586 ****        15.0000  10.0000  37.0000 Du        
   9587 ****        15.0000  10.0000  37.2500 Du        
   9588 ****        15.0000  10.0000  37.5000 Du        
   9589 ****        15.0000  10.2500  21.2500 Du        
   9590 ****        15.0000  10.2500  35.7500 Du        
   9591 ****        15.0000  10.2500  36.0000 Du        
   9592 ****        15.0000  10.2500  36.2500 Du        
   9593 ****        15.0000  10.2500  36.5000 Du        
   9594 ****        15.0000  10.2500  36.7500 Du        
   9595 ****        15.0000  10.2500  37.0000 Du        
   9596 ****        15.0000  10.5000  35.7500 Du        
   9597 ****        15.0000  10.5000  36.0000 Du        
   9598 ****        15.0000  10.5000  36.2500 Du        
   9599 ****        15.0000  10.5000  36.5000 Du        
   9600 ****        15.0000  10.5000  36.7500 Du        
   9601 ****        15.0000  10.7500  35.7500 Du        
   9602 ****        15.0000  10.7500  36.0000 Du        
   9603 ****        15.0000  10.7500  36.2500 Du        
   9604 ****        15.0000  10.7500  36.5000 Du        
   9605 ****        15.0000  15.7500  38.0000 Du        
   9606 ****        15.0000  16.0000  38.0000 Du        
   9607 ****        15.0000  19.2500  31.7500 Du        
   9608 ****        15.0000  19.2500  32.0000 Du        
   9609 ****        15.0000  19.2500  32.2500 Du        
   9610 ****        15.0000  19.2500  32.5000 Du        
   9611 ****        15.0000  19.2500  32.7500 Du        
   9612 ****        15.0000  19.2500  33.0000 Du        
   9613 ****        15.0000  19.5000  31.5000 Du        
   9614 ****        15.0000  19.5000  31.7500 Du        
   9615 ****        15.0000  19.5000  32.0000 Du        
   9616 ****        15.0000  19.5000  32.2500 Du        
   9617 ****        15.0000  19.5000  32.5000 Du        
   9618 ****        15.0000  19.5000  32.7500 Du        
   9619 ****        15.0000  19.5000  33.0000 Du        
   9620 ****        15.0000  19.5000  33.2500 Du        
   9621 ****        15.0000  19.5000  33.5000 Du        
   9622 ****        15.0000  19.5000  33.7500 Du        
   9623 ****        15.0000  19.5000  34.0000 Du        
   9624 ****        15.0000  19.5000  34.2500 Du        
   9625 ****        15.0000  19.5000  34.5000 Du        
   9626 ****        15.0000  19.5000  34.7500 Du        
   9627 ****        15.0000  19.5000  35.0000 Du        
   9628 ****        15.0000  19.7500  31.5000 Du        
   9629 ****        15.0000  19.7500  31.7500 Du        
   9630 ****        15.0000  19.7500  32.0000 Du        
   9631 ****        15.0000  19.7500  32.2500 Du        
   9632 ****        15.0000  19.7500  32.5000 Du        
   9633 ****        15.0000  19.7500  32.7500 Du        
   9634 ****        15.0000  19.7500  33.0000 Du        
   9635 ****        15.0000  19.7500  33.2500 Du        
   9636 ****        15.0000  19.7500  33.5000 Du        
   9637 ****        15.0000  19.7500  33.7500 Du        
   9638 ****        15.0000  19.7500  34.0000 Du        
   9639 ****        15.0000  19.7500  34.2500 Du        
   9640 ****        15.0000  19.7500  34.5000 Du        
   9641 ****        15.0000  19.7500  34.7500 Du        
   9642 ****        15.0000  19.7500  35.0000 Du        
   9643 ****        15.0000  19.7500  35.2500 Du        
   9644 ****        15.0000  20.0000  31.5000 Du        
   9645 ****        15.0000  20.0000  31.7500 Du        
   9646 ****        15.0000  20.0000  32.0000 Du        
   9647 ****        15.0000  20.0000  32.2500 Du        
   9648 ****        15.0000  20.0000  32.5000 Du        
   9649 ****        15.0000  20.0000  32.7500 Du        
   9650 ****        15.0000  20.0000  33.0000 Du        
   9651 ****        15.0000  20.0000  33.2500 Du        
   9652 ****        15.0000  20.0000  33.5000 Du        
   9653 ****        15.0000  20.0000  33.7500 Du        
   9654 ****        15.0000  20.0000  34.0000 Du        
   9655 ****        15.0000  20.0000  34.2500 Du        
   9656 ****        15.0000  20.0000  34.5000 Du        
   9657 ****        15.0000  20.0000  34.7500 Du        
   9658 ****        15.0000  20.0000  35.0000 Du        
   9659 ****        15.0000  20.0000  35.2500 Du        
   9660 ****        15.0000  20.2500  31.7500 Du        
   9661 ****        15.0000  20.2500  32.0000 Du        
   9662 ****        15.0000  20.2500  32.2500 Du        
   9663 ****        15.0000  20.2500  32.5000 Du        
   9664 ****        15.0000  20.2500  32.7500 Du        
   9665 ****        15.0000  20.2500  33.0000 Du        
   9666 ****        15.0000  20.2500  33.2500 Du        
   9667 ****        15.0000  20.2500  33.5000 Du        
   9668 ****        15.0000  20.2500  33.7500 Du        
   9669 ****        15.0000  20.2500  34.0000 Du        
   9670 ****        15.0000  20.2500  34.2500 Du        
   9671 ****        15.0000  20.5000  31.7500 Du        
   9672 ****        15.0000  20.5000  32.0000 Du        
   9673 ****        15.0000  20.5000  32.2500 Du        
   9674 ****        15.0000  20.5000  32.5000 Du        
   9675 ****        15.0000  20.5000  32.7500 Du        
   9676 ****        15.0000  20.5000  33.0000 Du        
   9677 ****        15.0000  20.5000  33.2500 Du        
   9678 ****        15.0000  20.7500  32.0000 Du        
   9679 ****        15.0000  20.7500  32.2500 Du        
   9680 ****        15.0000  20.7500  32.5000 Du        
   9681 ****        15.0000  20.7500  32.7500 Du        
   9682 ****        15.2500  -4.5000  26.0000 Du        
   9683 ****        15.2500   2.7500  20.0000 Du        
   9684 ****        15.2500   3.0000  19.2500 Du        
   9685 ****        15.2500   3.0000  19.5000 Du        
   9686 ****        15.2500   3.0000  19.7500 Du        
   9687 ****        15.2500   3.0000  20.0000 Du        
   9688 ****        15.2500   3.2500  19.0000 Du        
   9689 ****        15.2500   3.2500  19.2500 Du        
   9690 ****        15.2500   3.2500  19.5000 Du        
   9691 ****        15.2500   3.2500  19.7500 Du        
   9692 ****        15.2500   3.2500  20.0000 Du        
   9693 ****        15.2500   3.5000  19.0000 Du        
   9694 ****        15.2500   3.5000  19.2500 Du        
   9695 ****        15.2500   3.5000  19.5000 Du        
   9696 ****        15.2500   3.5000  19.7500 Du        
   9697 ****        15.2500   3.5000  20.0000 Du        
   9698 ****        15.2500   3.7500  19.0000 Du        
   9699 ****        15.2500   3.7500  19.2500 Du        
   9700 ****        15.2500   3.7500  19.5000 Du        
   9701 ****        15.2500   3.7500  19.7500 Du        
   9702 ****        15.2500   3.7500  20.0000 Du        
   9703 ****        15.2500   4.0000  19.0000 Du        
   9704 ****        15.2500   4.0000  19.2500 Du        
   9705 ****        15.2500   4.0000  19.5000 Du        
   9706 ****        15.2500   4.0000  19.7500 Du        
   9707 ****        15.2500   4.0000  20.0000 Du        
   9708 ****        15.2500   4.2500  19.0000 Du        
   9709 ****        15.2500   4.2500  19.2500 Du        
   9710 ****        15.2500   4.2500  19.5000 Du        
   9711 ****        15.2500   4.2500  19.7500 Du        
   9712 ****        15.2500   4.2500  20.0000 Du        
   9713 ****        15.2500   4.5000  19.2500 Du        
   9714 ****        15.2500   4.5000  19.5000 Du        
   9715 ****        15.2500   4.5000  19.7500 Du        
   9716 ****        15.2500   4.5000  20.0000 Du        
   9717 ****        15.2500   4.7500  19.5000 Du        
   9718 ****        15.2500   4.7500  19.7500 Du        
   9719 ****        15.2500   4.7500  20.0000 Du        
   9720 ****        15.2500   5.0000  19.5000 Du        
   9721 ****        15.2500   5.0000  19.7500 Du        
   9722 ****        15.2500   9.2500  36.7500 Du        
   9723 ****        15.2500   9.2500  37.0000 Du        
   9724 ****        15.2500   9.2500  37.2500 Du        
   9725 ****        15.2500   9.5000  36.0000 Du        
   9726 ****        15.2500   9.5000  36.2500 Du        
   9727 ****        15.2500   9.5000  36.5000 Du        
   9728 ****        15.2500   9.5000  36.7500 Du        
   9729 ****        15.2500   9.5000  37.0000 Du        
   9730 ****        15.2500   9.5000  37.2500 Du        
   9731 ****        15.2500   9.5000  37.5000 Du        
   9732 ****        15.2500   9.7500  20.5000 Du        
   9733 ****        15.2500   9.7500  20.7500 Du        
   9734 ****        15.2500   9.7500  21.0000 Du        
   9735 ****        15.2500   9.7500  35.7500 Du        
   9736 ****        15.2500   9.7500  36.0000 Du        
   9737 ****        15.2500   9.7500  36.2500 Du        
   9738 ****        15.2500   9.7500  36.5000 Du        
   9739 ****        15.2500   9.7500  36.7500 Du        
   9740 ****        15.2500   9.7500  37.0000 Du        
   9741 ****        15.2500   9.7500  37.2500 Du        
   9742 ****        15.2500   9.7500  37.5000 Du        
   9743 ****        15.2500   9.7500  37.7500 Du        
   9744 ****        15.2500  10.0000  20.5000 Du        
   9745 ****        15.2500  10.0000  20.7500 Du        
   9746 ****        15.2500  10.0000  21.0000 Du        
   9747 ****        15.2500  10.0000  21.2500 Du        
   9748 ****        15.2500  10.0000  35.7500 Du        
   9749 ****        15.2500  10.0000  36.0000 Du        
   9750 ****        15.2500  10.0000  36.2500 Du        
   9751 ****        15.2500  10.0000  36.5000 Du        
   9752 ****        15.2500  10.0000  36.7500 Du        
   9753 ****        15.2500  10.0000  37.0000 Du        
   9754 ****        15.2500  10.0000  37.2500 Du        
   9755 ****        15.2500  10.0000  37.5000 Du        
   9756 ****        15.2500  10.0000  37.7500 Du        
   9757 ****        15.2500  10.2500  21.0000 Du        
   9758 ****        15.2500  10.2500  21.2500 Du        
   9759 ****        15.2500  10.2500  35.7500 Du        
   9760 ****        15.2500  10.2500  36.0000 Du        
   9761 ****        15.2500  10.2500  36.2500 Du        
   9762 ****        15.2500  10.2500  36.5000 Du        
   9763 ****        15.2500  10.2500  36.7500 Du        
   9764 ****        15.2500  10.2500  37.0000 Du        
   9765 ****        15.2500  10.2500  37.2500 Du        
   9766 ****        15.2500  10.2500  37.5000 Du        
   9767 ****        15.2500  10.5000  35.7500 Du        
   9768 ****        15.2500  10.5000  36.0000 Du        
   9769 ****        15.2500  10.5000  36.2500 Du        
   9770 ****        15.2500  10.5000  36.5000 Du        
   9771 ****        15.2500  10.5000  36.7500 Du        
   9772 ****        15.2500  10.5000  37.0000 Du        
   9773 ****        15.2500  10.5000  37.2500 Du        
   9774 ****        15.2500  10.7500  35.7500 Du        
   9775 ****        15.2500  10.7500  36.0000 Du        
   9776 ****        15.2500  10.7500  36.2500 Du        
   9777 ****        15.2500  10.7500  36.5000 Du        
   9778 ****        15.2500  10.7500  36.7500 Du        
   9779 ****        15.2500  10.7500  37.0000 Du        
   9780 ****        15.2500  11.0000  36.0000 Du        
   9781 ****        15.2500  11.0000  36.2500 Du        
   9782 ****        15.2500  11.0000  36.5000 Du        
   9783 ****        15.2500  11.0000  36.7500 Du        
   9784 ****        15.2500  15.2500  38.0000 Du        
   9785 ****        15.2500  18.7500  31.7500 Du        
   9786 ****        15.2500  18.7500  32.0000 Du        
   9787 ****        15.2500  19.0000  31.5000 Du        
   9788 ****        15.2500  19.0000  31.7500 Du        
   9789 ****        15.2500  19.0000  32.0000 Du        
   9790 ****        15.2500  19.0000  32.2500 Du        
   9791 ****        15.2500  19.0000  32.5000 Du        
   9792 ****        15.2500  19.0000  32.7500 Du        
   9793 ****        15.2500  19.2500  31.5000 Du        
   9794 ****        15.2500  19.2500  31.7500 Du        
   9795 ****        15.2500  19.2500  32.0000 Du        
   9796 ****        15.2500  19.2500  32.2500 Du        
   9797 ****        15.2500  19.2500  32.5000 Du        
   9798 ****        15.2500  19.2500  32.7500 Du        
   9799 ****        15.2500  19.2500  33.0000 Du        
   9800 ****        15.2500  19.2500  33.2500 Du        
   9801 ****        15.2500  19.2500  33.5000 Du        
   9802 ****        15.2500  19.5000  31.7500 Du        
   9803 ****        15.2500  19.5000  32.0000 Du        
   9804 ****        15.2500  19.5000  32.2500 Du        
   9805 ****        15.2500  19.5000  32.5000 Du        
   9806 ****        15.2500  19.5000  32.7500 Du        
   9807 ****        15.2500  19.5000  33.0000 Du        
   9808 ****        15.2500  19.5000  33.2500 Du        
   9809 ****        15.2500  19.5000  33.5000 Du        
   9810 ****        15.2500  19.5000  33.7500 Du        
   9811 ****        15.2500  19.5000  34.0000 Du        
   9812 ****        15.2500  19.5000  34.2500 Du        
   9813 ****        15.2500  19.5000  34.5000 Du        
   9814 ****        15.2500  19.5000  34.7500 Du        
   9815 ****        15.2500  19.5000  35.0000 Du        
   9816 ****        15.2500  19.7500  31.7500 Du        
   9817 ****        15.2500  19.7500  32.0000 Du        
   9818 ****        15.2500  19.7500  32.2500 Du        
   9819 ****        15.2500  19.7500  32.5000 Du        
   9820 ****        15.2500  19.7500  32.7500 Du        
   9821 ****        15.2500  19.7500  33.0000 Du        
   9822 ****        15.2500  19.7500  33.2500 Du        
   9823 ****        15.2500  19.7500  33.5000 Du        
   9824 ****        15.2500  19.7500  33.7500 Du        
   9825 ****        15.2500  19.7500  34.0000 Du        
   9826 ****        15.2500  19.7500  34.2500 Du        
   9827 ****        15.2500  19.7500  34.5000 Du        
   9828 ****        15.2500  19.7500  34.7500 Du        
   9829 ****        15.2500  19.7500  35.0000 Du        
   9830 ****        15.2500  19.7500  35.2500 Du        
   9831 ****        15.2500  20.0000  32.0000 Du        
   9832 ****        15.2500  20.0000  32.2500 Du        
   9833 ****        15.2500  20.0000  32.5000 Du        
   9834 ****        15.2500  20.0000  32.7500 Du        
   9835 ****        15.2500  20.0000  33.0000 Du        
   9836 ****        15.2500  20.0000  33.2500 Du        
   9837 ****        15.2500  20.0000  33.5000 Du        
   9838 ****        15.2500  20.0000  33.7500 Du        
   9839 ****        15.2500  20.0000  34.0000 Du        
   9840 ****        15.2500  20.0000  34.2500 Du        
   9841 ****        15.2500  20.0000  34.5000 Du        
   9842 ****        15.2500  20.0000  34.7500 Du        
   9843 ****        15.2500  20.0000  35.0000 Du        
   9844 ****        15.2500  20.0000  35.2500 Du        
   9845 ****        15.2500  20.2500  32.2500 Du        
   9846 ****        15.2500  20.2500  32.5000 Du        
   9847 ****        15.2500  20.2500  32.7500 Du        
   9848 ****        15.2500  20.2500  33.0000 Du        
   9849 ****        15.2500  20.2500  33.2500 Du        
   9850 ****        15.2500  20.2500  33.5000 Du        
   9851 ****        15.2500  20.2500  33.7500 Du        
   9852 ****        15.2500  20.2500  34.0000 Du        
   9853 ****        15.2500  20.2500  34.2500 Du        
   9854 ****        15.2500  20.2500  34.5000 Du        
   9855 ****        15.2500  20.2500  34.7500 Du        
   9856 ****        15.2500  20.5000  32.2500 Du        
   9857 ****        15.2500  20.5000  32.5000 Du        
   9858 ****        15.2500  20.5000  32.7500 Du        
   9859 ****        15.2500  20.5000  33.0000 Du        
   9860 ****        15.2500  20.5000  33.2500 Du        
   9861 ****        15.2500  20.5000  33.5000 Du        
   9862 ****        15.2500  20.5000  33.7500 Du        
   9863 ****        15.2500  20.7500  32.5000 Du        
   9864 ****        15.2500  20.7500  32.7500 Du        
   9865 ****        15.2500  20.7500  33.0000 Du        
   9866 ****        15.5000   2.5000  19.5000 Du        
   9867 ****        15.5000   2.5000  19.7500 Du        
   9868 ****        15.5000   2.5000  20.0000 Du        
   9869 ****        15.5000   2.7500  19.0000 Du        
   9870 ****        15.5000   2.7500  19.2500 Du        
   9871 ****        15.5000   2.7500  19.5000 Du        
   9872 ****        15.5000   2.7500  19.7500 Du        
   9873 ****        15.5000   2.7500  20.0000 Du        
   9874 ****        15.5000   2.7500  20.2500 Du        
   9875 ****        15.5000   2.7500  20.5000 Du        
   9876 ****        15.5000   3.0000  19.0000 Du        
   9877 ****        15.5000   3.0000  19.2500 Du        
   9878 ****        15.5000   3.0000  19.5000 Du        
   9879 ****        15.5000   3.0000  19.7500 Du        
   9880 ****        15.5000   3.0000  20.0000 Du        
   9881 ****        15.5000   3.0000  20.2500 Du        
   9882 ****        15.5000   3.2500  19.0000 Du        
   9883 ****        15.5000   3.2500  19.2500 Du        
   9884 ****        15.5000   3.2500  19.5000 Du        
   9885 ****        15.5000   3.2500  19.7500 Du        
   9886 ****        15.5000   3.2500  20.0000 Du        
   9887 ****        15.5000   3.2500  20.2500 Du        
   9888 ****        15.5000   3.5000  19.0000 Du        
   9889 ****        15.5000   3.5000  19.2500 Du        
   9890 ****        15.5000   3.5000  19.5000 Du        
   9891 ****        15.5000   3.5000  19.7500 Du        
   9892 ****        15.5000   3.5000  20.0000 Du        
   9893 ****        15.5000   3.5000  20.2500 Du        
   9894 ****        15.5000   3.7500  19.0000 Du        
   9895 ****        15.5000   3.7500  19.2500 Du        
   9896 ****        15.5000   3.7500  19.5000 Du        
   9897 ****        15.5000   3.7500  19.7500 Du        
   9898 ****        15.5000   3.7500  20.0000 Du        
   9899 ****        15.5000   3.7500  20.2500 Du        
   9900 ****        15.5000   4.0000  19.0000 Du        
   9901 ****        15.5000   4.0000  19.2500 Du        
   9902 ****        15.5000   4.0000  19.5000 Du        
   9903 ****        15.5000   4.0000  19.7500 Du        
   9904 ****        15.5000   4.0000  20.0000 Du        
   9905 ****        15.5000   4.2500  19.0000 Du        
   9906 ****        15.5000   4.2500  19.2500 Du        
   9907 ****        15.5000   4.2500  19.5000 Du        
   9908 ****        15.5000   4.2500  19.7500 Du        
   9909 ****        15.5000   4.2500  20.0000 Du        
   9910 ****        15.5000   4.5000  19.2500 Du        
   9911 ****        15.5000   4.5000  19.5000 Du        
   9912 ****        15.5000   4.5000  19.7500 Du        
   9913 ****        15.5000   4.5000  20.0000 Du        
   9914 ****        15.5000   4.7500  19.5000 Du        
   9915 ****        15.5000   4.7500  19.7500 Du        
   9916 ****        15.5000   9.5000  36.2500 Du        
   9917 ****        15.5000   9.5000  36.5000 Du        
   9918 ****        15.5000   9.5000  36.7500 Du        
   9919 ****        15.5000   9.5000  37.0000 Du        
   9920 ****        15.5000   9.5000  37.2500 Du        
   9921 ****        15.5000   9.7500  20.5000 Du        
   9922 ****        15.5000   9.7500  20.7500 Du        
   9923 ****        15.5000   9.7500  35.7500 Du        
   9924 ****        15.5000   9.7500  36.0000 Du        
   9925 ****        15.5000   9.7500  36.2500 Du        
   9926 ****        15.5000   9.7500  36.5000 Du        
   9927 ****        15.5000   9.7500  36.7500 Du        
   9928 ****        15.5000   9.7500  37.0000 Du        
   9929 ****        15.5000   9.7500  37.2500 Du        
   9930 ****        15.5000   9.7500  37.5000 Du        
   9931 ****        15.5000  10.0000  20.5000 Du        
   9932 ****        15.5000  10.0000  20.7500 Du        
   9933 ****        15.5000  10.0000  21.0000 Du        
   9934 ****        15.5000  10.0000  21.2500 Du        
   9935 ****        15.5000  10.0000  35.7500 Du        
   9936 ****        15.5000  10.0000  36.0000 Du        
   9937 ****        15.5000  10.0000  36.2500 Du        
   9938 ****        15.5000  10.0000  36.5000 Du        
   9939 ****        15.5000  10.0000  36.7500 Du        
   9940 ****        15.5000  10.0000  37.0000 Du        
   9941 ****        15.5000  10.0000  37.2500 Du        
   9942 ****        15.5000  10.0000  37.5000 Du        
   9943 ****        15.5000  10.2500  20.5000 Du        
   9944 ****        15.5000  10.2500  20.7500 Du        
   9945 ****        15.5000  10.2500  21.0000 Du        
   9946 ****        15.5000  10.2500  21.2500 Du        
   9947 ****        15.5000  10.2500  21.5000 Du        
   9948 ****        15.5000  10.2500  35.7500 Du        
   9949 ****        15.5000  10.2500  36.0000 Du        
   9950 ****        15.5000  10.2500  36.2500 Du        
   9951 ****        15.5000  10.2500  36.5000 Du        
   9952 ****        15.5000  10.2500  36.7500 Du        
   9953 ****        15.5000  10.2500  37.0000 Du        
   9954 ****        15.5000  10.2500  37.2500 Du        
   9955 ****        15.5000  10.2500  37.5000 Du        
   9956 ****        15.5000  10.2500  37.7500 Du        
   9957 ****        15.5000  10.5000  21.0000 Du        
   9958 ****        15.5000  10.5000  21.2500 Du        
   9959 ****        15.5000  10.5000  35.7500 Du        
   9960 ****        15.5000  10.5000  36.0000 Du        
   9961 ****        15.5000  10.5000  36.2500 Du        
   9962 ****        15.5000  10.5000  36.5000 Du        
   9963 ****        15.5000  10.5000  36.7500 Du        
   9964 ****        15.5000  10.5000  37.0000 Du        
   9965 ****        15.5000  10.5000  37.2500 Du        
   9966 ****        15.5000  10.5000  37.5000 Du        
   9967 ****        15.5000  10.7500  35.7500 Du        
   9968 ****        15.5000  10.7500  36.0000 Du        
   9969 ****        15.5000  10.7500  36.2500 Du        
   9970 ****        15.5000  10.7500  36.5000 Du        
   9971 ****        15.5000  10.7500  36.7500 Du        
   9972 ****        15.5000  10.7500  37.0000 Du        
   9973 ****        15.5000  10.7500  37.2500 Du        
   9974 ****        15.5000  10.7500  37.5000 Du        
   9975 ****        15.5000  11.0000  36.0000 Du        
   9976 ****        15.5000  11.0000  36.2500 Du        
   9977 ****        15.5000  11.0000  36.5000 Du        
   9978 ****        15.5000  11.0000  36.7500 Du        
   9979 ****        15.5000  11.0000  37.0000 Du        
   9980 ****        15.5000  11.0000  37.2500 Du        
   9981 ****        15.5000  11.2500  36.2500 Du        
   9982 ****        15.5000  11.2500  36.5000 Du        
   9983 ****        15.5000  11.2500  36.7500 Du        
   9984 ****        15.5000  11.2500  37.0000 Du        
   9985 ****        15.5000  15.2500  38.2500 Du        
   9986 ****        15.5000  18.5000  31.5000 Du        
   9987 ****        15.5000  18.5000  31.7500 Du        
   9988 ****        15.5000  18.5000  32.0000 Du        
   9989 ****        15.5000  18.7500  31.5000 Du        
   9990 ****        15.5000  18.7500  31.7500 Du        
   9991 ****        15.5000  18.7500  32.0000 Du        
   9992 ****        15.5000  18.7500  32.2500 Du        
   9993 ****        15.5000  18.7500  32.5000 Du        
   9994 ****        15.5000  19.0000  31.7500 Du        
   9995 ****        15.5000  19.0000  32.0000 Du        
   9996 ****        15.5000  19.0000  32.2500 Du        
   9997 ****        15.5000  19.0000  32.5000 Du        
   9998 ****        15.5000  19.0000  32.7500 Du        
   9999 ****        15.5000  19.0000  33.0000 Du        
  10000 ****        15.5000  19.2500  31.7500 Du        
  10001 ****        15.5000  19.2500  32.0000 Du        
  10002 ****        15.5000  19.2500  32.2500 Du        
  10003 ****        15.5000  19.2500  32.5000 Du        
  10004 ****        15.5000  19.2500  32.7500 Du        
  10005 ****        15.5000  19.2500  33.0000 Du        
  10006 ****        15.5000  19.2500  33.2500 Du        
  10007 ****        15.5000  19.2500  33.5000 Du        
  10008 ****        15.5000  19.2500  33.7500 Du        
  10009 ****        15.5000  19.2500  34.0000 Du        
  10010 ****        15.5000  19.2500  34.2500 Du        
  10011 ****        15.5000  19.5000  32.0000 Du        
  10012 ****        15.5000  19.5000  32.2500 Du        
  10013 ****        15.5000  19.5000  32.5000 Du        
  10014 ****        15.5000  19.5000  32.7500 Du        
  10015 ****        15.5000  19.5000  33.0000 Du        
  10016 ****        15.5000  19.5000  33.2500 Du        
  10017 ****        15.5000  19.5000  33.5000 Du        
  10018 ****        15.5000  19.5000  33.7500 Du        
  10019 ****        15.5000  19.5000  34.0000 Du        
  10020 ****        15.5000  19.5000  34.2500 Du        
  10021 ****        15.5000  19.5000  34.5000 Du        
  10022 ****        15.5000  19.5000  34.7500 Du        
  10023 ****        15.5000  19.5000  35.0000 Du        
  10024 ****        15.5000  19.7500  32.2500 Du        
  10025 ****        15.5000  19.7500  32.5000 Du        
  10026 ****        15.5000  19.7500  32.7500 Du        
  10027 ****        15.5000  19.7500  33.0000 Du        
  10028 ****        15.5000  19.7500  33.2500 Du        
  10029 ****        15.5000  19.7500  33.5000 Du        
  10030 ****        15.5000  19.7500  33.7500 Du        
  10031 ****        15.5000  19.7500  34.0000 Du        
  10032 ****        15.5000  19.7500  34.2500 Du        
  10033 ****        15.5000  19.7500  34.5000 Du        
  10034 ****        15.5000  19.7500  34.7500 Du        
  10035 ****        15.5000  19.7500  35.0000 Du        
  10036 ****        15.5000  20.0000  32.5000 Du        
  10037 ****        15.5000  20.0000  32.7500 Du        
  10038 ****        15.5000  20.0000  33.0000 Du        
  10039 ****        15.5000  20.0000  33.2500 Du        
  10040 ****        15.5000  20.0000  33.5000 Du        
  10041 ****        15.5000  20.0000  33.7500 Du        
  10042 ****        15.5000  20.0000  34.0000 Du        
  10043 ****        15.5000  20.0000  34.2500 Du        
  10044 ****        15.5000  20.0000  34.5000 Du        
  10045 ****        15.5000  20.0000  34.7500 Du        
  10046 ****        15.5000  20.0000  35.0000 Du        
  10047 ****        15.5000  20.2500  32.7500 Du        
  10048 ****        15.5000  20.2500  33.0000 Du        
  10049 ****        15.5000  20.2500  33.2500 Du        
  10050 ****        15.5000  20.2500  33.5000 Du        
  10051 ****        15.5000  20.2500  33.7500 Du        
  10052 ****        15.5000  20.2500  34.0000 Du        
  10053 ****        15.5000  20.2500  34.2500 Du        
  10054 ****        15.5000  20.2500  34.5000 Du        
  10055 ****        15.5000  20.5000  33.0000 Du        
  10056 ****        15.5000  20.5000  33.2500 Du        
  10057 ****        15.5000  20.5000  33.5000 Du        
  10058 ****        15.5000  20.5000  33.7500 Du        
  10059 ****        15.5000  20.5000  34.0000 Du        
  10060 ****        15.7500  -4.2500  25.7500 Du        
  10061 ****        15.7500  -4.2500  26.0000 Du        
  10062 ****        15.7500   2.2500  19.5000 Du        
  10063 ****        15.7500   2.2500  19.7500 Du        
  10064 ****        15.7500   2.2500  20.0000 Du        
  10065 ****        15.7500   2.2500  20.2500 Du        
  10066 ****        15.7500   2.5000  19.0000 Du        
  10067 ****        15.7500   2.5000  19.2500 Du        
  10068 ****        15.7500   2.5000  19.5000 Du        
  10069 ****        15.7500   2.5000  19.7500 Du        
  10070 ****        15.7500   2.5000  20.0000 Du        
  10071 ****        15.7500   2.5000  20.2500 Du        
  10072 ****        15.7500   2.5000  20.5000 Du        
  10073 ****        15.7500   2.5000  20.7500 Du        
  10074 ****        15.7500   2.7500  19.0000 Du        
  10075 ****        15.7500   2.7500  19.2500 Du        
  10076 ****        15.7500   2.7500  19.5000 Du        
  10077 ****        15.7500   2.7500  19.7500 Du        
  10078 ****        15.7500   2.7500  20.0000 Du        
  10079 ****        15.7500   2.7500  20.2500 Du        
  10080 ****        15.7500   2.7500  20.5000 Du        
  10081 ****        15.7500   3.0000  19.0000 Du        
  10082 ****        15.7500   3.0000  19.2500 Du        
  10083 ****        15.7500   3.0000  19.5000 Du        
  10084 ****        15.7500   3.0000  19.7500 Du        
  10085 ****        15.7500   3.0000  20.0000 Du        
  10086 ****        15.7500   3.0000  20.2500 Du        
  10087 ****        15.7500   3.0000  20.5000 Du        
  10088 ****        15.7500   3.2500  19.0000 Du        
  10089 ****        15.7500   3.2500  19.2500 Du        
  10090 ****        15.7500   3.2500  19.5000 Du        
  10091 ****        15.7500   3.2500  19.7500 Du        
  10092 ****        15.7500   3.2500  20.0000 Du        
  10093 ****        15.7500   3.2500  20.2500 Du        
  10094 ****        15.7500   3.2500  20.5000 Du        
  10095 ****        15.7500   3.5000  19.0000 Du        
  10096 ****        15.7500   3.5000  19.2500 Du        
  10097 ****        15.7500   3.5000  19.5000 Du        
  10098 ****        15.7500   3.5000  19.7500 Du        
  10099 ****        15.7500   3.5000  20.0000 Du        
  10100 ****        15.7500   3.5000  20.2500 Du        
  10101 ****        15.7500   3.7500  19.0000 Du        
  10102 ****        15.7500   3.7500  19.2500 Du        
  10103 ****        15.7500   3.7500  19.5000 Du        
  10104 ****        15.7500   3.7500  19.7500 Du        
  10105 ****        15.7500   3.7500  20.0000 Du        
  10106 ****        15.7500   3.7500  20.2500 Du        
  10107 ****        15.7500   4.0000  19.0000 Du        
  10108 ****        15.7500   4.0000  19.2500 Du        
  10109 ****        15.7500   4.0000  19.5000 Du        
  10110 ****        15.7500   4.0000  19.7500 Du        
  10111 ****        15.7500   4.0000  20.0000 Du        
  10112 ****        15.7500   4.0000  20.2500 Du        
  10113 ****        15.7500   4.2500  19.0000 Du        
  10114 ****        15.7500   4.2500  19.2500 Du        
  10115 ****        15.7500   4.2500  19.5000 Du        
  10116 ****        15.7500   4.2500  19.7500 Du        
  10117 ****        15.7500   4.2500  20.0000 Du        
  10118 ****        15.7500   4.5000  19.2500 Du        
  10119 ****        15.7500   4.5000  19.5000 Du        
  10120 ****        15.7500   4.5000  19.7500 Du        
  10121 ****        15.7500   4.7500  19.5000 Du        
  10122 ****        15.7500   9.7500  20.5000 Du        
  10123 ****        15.7500   9.7500  20.7500 Du        
  10124 ****        15.7500   9.7500  35.7500 Du        
  10125 ****        15.7500   9.7500  36.0000 Du        
  10126 ****        15.7500   9.7500  36.2500 Du        
  10127 ****        15.7500   9.7500  36.5000 Du        
  10128 ****        15.7500   9.7500  36.7500 Du        
  10129 ****        15.7500   9.7500  37.0000 Du        
  10130 ****        15.7500  10.0000  20.5000 Du        
  10131 ****        15.7500  10.0000  20.7500 Du        
  10132 ****        15.7500  10.0000  21.0000 Du        
  10133 ****        15.7500  10.0000  21.2500 Du        
  10134 ****        15.7500  10.0000  35.7500 Du        
  10135 ****        15.7500  10.0000  36.0000 Du        
  10136 ****        15.7500  10.0000  36.2500 Du        
  10137 ****        15.7500  10.0000  36.5000 Du        
  10138 ****        15.7500  10.0000  36.7500 Du        
  10139 ****        15.7500  10.0000  37.0000 Du        
  10140 ****        15.7500  10.0000  37.2500 Du        
  10141 ****        15.7500  10.2500  20.5000 Du        
  10142 ****        15.7500  10.2500  20.7500 Du        
  10143 ****        15.7500  10.2500  21.0000 Du        
  10144 ****        15.7500  10.2500  21.2500 Du        
  10145 ****        15.7500  10.2500  21.5000 Du        
  10146 ****        15.7500  10.2500  35.7500 Du        
  10147 ****        15.7500  10.2500  36.0000 Du        
  10148 ****        15.7500  10.2500  36.2500 Du        
  10149 ****        15.7500  10.2500  36.5000 Du        
  10150 ****        15.7500  10.2500  36.7500 Du        
  10151 ****        15.7500  10.2500  37.0000 Du        
  10152 ****        15.7500  10.2500  37.2500 Du        
  10153 ****        15.7500  10.2500  37.5000 Du        
  10154 ****        15.7500  10.5000  20.7500 Du        
  10155 ****        15.7500  10.5000  21.0000 Du        
  10156 ****        15.7500  10.5000  21.2500 Du        
  10157 ****        15.7500  10.5000  21.5000 Du        
  10158 ****        15.7500  10.5000  35.7500 Du        
  10159 ****        15.7500  10.5000  36.0000 Du        
  10160 ****        15.7500  10.5000  36.2500 Du        
  10161 ****        15.7500  10.5000  36.5000 Du        
  10162 ****        15.7500  10.5000  36.7500 Du        
  10163 ****        15.7500  10.5000  37.0000 Du        
  10164 ****        15.7500  10.5000  37.2500 Du        
  10165 ****        15.7500  10.5000  37.5000 Du        
  10166 ****        15.7500  10.7500  21.0000 Du        
  10167 ****        15.7500  10.7500  21.2500 Du        
  10168 ****        15.7500  10.7500  21.5000 Du        
  10169 ****        15.7500  10.7500  35.7500 Du        
  10170 ****        15.7500  10.7500  36.0000 Du        
  10171 ****        15.7500  10.7500  36.2500 Du        
  10172 ****        15.7500  10.7500  36.5000 Du        
  10173 ****        15.7500  10.7500  36.7500 Du        
  10174 ****        15.7500  10.7500  37.0000 Du        
  10175 ****        15.7500  10.7500  37.2500 Du        
  10176 ****        15.7500  10.7500  37.5000 Du        
  10177 ****        15.7500  10.7500  37.7500 Du        
  10178 ****        15.7500  11.0000  35.7500 Du        
  10179 ****        15.7500  11.0000  36.0000 Du        
  10180 ****        15.7500  11.0000  36.2500 Du        
  10181 ****        15.7500  11.0000  36.5000 Du        
  10182 ****        15.7500  11.0000  36.7500 Du        
  10183 ****        15.7500  11.0000  37.0000 Du        
  10184 ****        15.7500  11.0000  37.2500 Du        
  10185 ****        15.7500  11.0000  37.5000 Du        
  10186 ****        15.7500  11.2500  36.0000 Du        
  10187 ****        15.7500  11.2500  36.2500 Du        
  10188 ****        15.7500  11.2500  36.5000 Du        
  10189 ****        15.7500  11.2500  36.7500 Du        
  10190 ****        15.7500  11.2500  37.0000 Du        
  10191 ****        15.7500  11.2500  37.2500 Du        
  10192 ****        15.7500  11.2500  37.5000 Du        
  10193 ****        15.7500  11.5000  36.5000 Du        
  10194 ****        15.7500  11.5000  36.7500 Du        
  10195 ****        15.7500  11.5000  37.0000 Du        
  10196 ****        15.7500  11.5000  37.2500 Du        
  10197 ****        15.7500  11.7500  36.7500 Du        
  10198 ****        15.7500  11.7500  37.0000 Du        
  10199 ****        15.7500  14.5000  38.0000 Du        
  10200 ****        15.7500  14.7500  38.0000 Du        
  10201 ****        15.7500  14.7500  38.2500 Du        
  10202 ****        15.7500  15.0000  38.0000 Du        
  10203 ****        15.7500  15.0000  38.2500 Du        
  10204 ****        15.7500  15.2500  38.2500 Du        
  10205 ****        15.7500  18.0000  31.5000 Du        
  10206 ****        15.7500  18.0000  31.7500 Du        
  10207 ****        15.7500  18.0000  32.0000 Du        
  10208 ****        15.7500  18.2500  31.5000 Du        
  10209 ****        15.7500  18.2500  31.7500 Du        
  10210 ****        15.7500  18.2500  32.0000 Du        
  10211 ****        15.7500  18.2500  32.2500 Du        
  10212 ****        15.7500  18.5000  31.5000 Du        
  10213 ****        15.7500  18.5000  31.7500 Du        
  10214 ****        15.7500  18.5000  32.0000 Du        
  10215 ****        15.7500  18.5000  32.2500 Du        
  10216 ****        15.7500  18.5000  32.5000 Du        
  10217 ****        15.7500  18.7500  31.7500 Du        
  10218 ****        15.7500  18.7500  32.0000 Du        
  10219 ****        15.7500  18.7500  32.2500 Du        
  10220 ****        15.7500  18.7500  32.5000 Du        
  10221 ****        15.7500  18.7500  32.7500 Du        
  10222 ****        15.7500  18.7500  33.0000 Du        
  10223 ****        15.7500  19.0000  32.0000 Du        
  10224 ****        15.7500  19.0000  32.2500 Du        
  10225 ****        15.7500  19.0000  32.5000 Du        
  10226 ****        15.7500  19.0000  32.7500 Du        
  10227 ****        15.7500  19.0000  33.0000 Du        
  10228 ****        15.7500  19.0000  33.2500 Du        
  10229 ****        15.7500  19.0000  33.5000 Du        
  10230 ****        15.7500  19.0000  33.7500 Du        
  10231 ****        15.7500  19.0000  34.0000 Du        
  10232 ****        15.7500  19.2500  32.2500 Du        
  10233 ****        15.7500  19.2500  32.5000 Du        
  10234 ****        15.7500  19.2500  32.7500 Du        
  10235 ****        15.7500  19.2500  33.0000 Du        
  10236 ****        15.7500  19.2500  33.2500 Du        
  10237 ****        15.7500  19.2500  33.5000 Du        
  10238 ****        15.7500  19.2500  33.7500 Du        
  10239 ****        15.7500  19.2500  34.0000 Du        
  10240 ****        15.7500  19.2500  34.2500 Du        
  10241 ****        15.7500  19.2500  34.5000 Du        
  10242 ****        15.7500  19.5000  32.5000 Du        
  10243 ****        15.7500  19.5000  32.7500 Du        
  10244 ****        15.7500  19.5000  33.0000 Du        
  10245 ****        15.7500  19.5000  33.2500 Du        
  10246 ****        15.7500  19.5000  33.5000 Du        
  10247 ****        15.7500  19.5000  33.7500 Du        
  10248 ****        15.7500  19.5000  34.0000 Du        
  10249 ****        15.7500  19.5000  34.2500 Du        
  10250 ****        15.7500  19.5000  34.5000 Du        
  10251 ****        15.7500  19.5000  34.7500 Du        
  10252 ****        15.7500  19.5000  35.0000 Du        
  10253 ****        15.7500  19.7500  32.7500 Du        
  10254 ****        15.7500  19.7500  33.0000 Du        
  10255 ****        15.7500  19.7500  33.2500 Du        
  10256 ****        15.7500  19.7500  33.5000 Du        
  10257 ****        15.7500  19.7500  33.7500 Du        
  10258 ****        15.7500  19.7500  34.0000 Du        
  10259 ****        15.7500  19.7500  34.2500 Du        
  10260 ****        15.7500  19.7500  34.5000 Du        
  10261 ****        15.7500  19.7500  34.7500 Du        
  10262 ****        15.7500  19.7500  35.0000 Du        
  10263 ****        15.7500  19.7500  35.2500 Du        
  10264 ****        15.7500  20.0000  33.0000 Du        
  10265 ****        15.7500  20.0000  33.2500 Du        
  10266 ****        15.7500  20.0000  33.5000 Du        
  10267 ****        15.7500  20.0000  33.7500 Du        
  10268 ****        15.7500  20.0000  34.0000 Du        
  10269 ****        15.7500  20.0000  34.2500 Du        
  10270 ****        15.7500  20.0000  34.5000 Du        
  10271 ****        15.7500  20.0000  34.7500 Du        
  10272 ****        15.7500  20.0000  35.0000 Du        
  10273 ****        15.7500  20.0000  35.2500 Du        
  10274 ****        15.7500  20.2500  33.5000 Du        
  10275 ****        15.7500  20.2500  33.7500 Du        
  10276 ****        15.7500  20.2500  34.0000 Du        
  10277 ****        15.7500  20.2500  34.2500 Du        
  10278 ****        15.7500  20.2500  34.5000 Du        
  10279 ****        15.7500  20.2500  34.7500 Du        
  10280 ****        16.0000 -17.7500  33.5000 Du        
  10281 ****        16.0000 -17.5000  33.5000 Du        
  10282 ****        16.0000  -4.2500  26.0000 Du        
  10283 ****        16.0000  -4.0000  26.0000 Du        
  10284 ****        16.0000   2.0000  19.7500 Du        
  10285 ****        16.0000   2.0000  20.0000 Du        
  10286 ****        16.0000   2.0000  20.2500 Du        
  10287 ****        16.0000   2.0000  20.5000 Du        
  10288 ****        16.0000   2.2500  19.5000 Du        
  10289 ****        16.0000   2.2500  19.7500 Du        
  10290 ****        16.0000   2.2500  20.0000 Du        
  10291 ****        16.0000   2.2500  20.2500 Du        
  10292 ****        16.0000   2.2500  20.5000 Du        
  10293 ****        16.0000   2.2500  20.7500 Du        
  10294 ****        16.0000   2.5000  19.0000 Du        
  10295 ****        16.0000   2.5000  19.2500 Du        
  10296 ****        16.0000   2.5000  19.5000 Du        
  10297 ****        16.0000   2.5000  19.7500 Du        
  10298 ****        16.0000   2.5000  20.0000 Du        
  10299 ****        16.0000   2.5000  20.2500 Du        
  10300 ****        16.0000   2.5000  20.5000 Du        
  10301 ****        16.0000   2.5000  20.7500 Du        
  10302 ****        16.0000   2.7500  19.0000 Du        
  10303 ****        16.0000   2.7500  19.2500 Du        
  10304 ****        16.0000   2.7500  19.5000 Du        
  10305 ****        16.0000   2.7500  19.7500 Du        
  10306 ****        16.0000   2.7500  20.0000 Du        
  10307 ****        16.0000   2.7500  20.2500 Du        
  10308 ****        16.0000   2.7500  20.5000 Du        
  10309 ****        16.0000   2.7500  20.7500 Du        
  10310 ****        16.0000   3.0000  19.0000 Du        
  10311 ****        16.0000   3.0000  19.2500 Du        
  10312 ****        16.0000   3.0000  19.5000 Du        
  10313 ****        16.0000   3.0000  19.7500 Du        
  10314 ****        16.0000   3.0000  20.0000 Du        
  10315 ****        16.0000   3.0000  20.2500 Du        
  10316 ****        16.0000   3.0000  20.5000 Du        
  10317 ****        16.0000   3.0000  20.7500 Du        
  10318 ****        16.0000   3.2500  19.0000 Du        
  10319 ****        16.0000   3.2500  19.2500 Du        
  10320 ****        16.0000   3.2500  19.5000 Du        
  10321 ****        16.0000   3.2500  19.7500 Du        
  10322 ****        16.0000   3.2500  20.0000 Du        
  10323 ****        16.0000   3.2500  20.2500 Du        
  10324 ****        16.0000   3.2500  20.5000 Du        
  10325 ****        16.0000   3.5000  19.0000 Du        
  10326 ****        16.0000   3.5000  19.2500 Du        
  10327 ****        16.0000   3.5000  19.5000 Du        
  10328 ****        16.0000   3.5000  19.7500 Du        
  10329 ****        16.0000   3.5000  20.0000 Du        
  10330 ****        16.0000   3.5000  20.2500 Du        
  10331 ****        16.0000   3.5000  20.5000 Du        
  10332 ****        16.0000   3.7500  19.0000 Du        
  10333 ****        16.0000   3.7500  19.2500 Du        
  10334 ****        16.0000   3.7500  19.5000 Du        
  10335 ****        16.0000   3.7500  19.7500 Du        
  10336 ****        16.0000   3.7500  20.0000 Du        
  10337 ****        16.0000   3.7500  20.2500 Du        
  10338 ****        16.0000   4.0000  19.0000 Du        
  10339 ****        16.0000   4.0000  19.2500 Du        
  10340 ****        16.0000   4.0000  19.5000 Du        
  10341 ****        16.0000   4.0000  19.7500 Du        
  10342 ****        16.0000   4.0000  20.0000 Du        
  10343 ****        16.0000   4.2500  19.2500 Du        
  10344 ****        16.0000   4.2500  19.5000 Du        
  10345 ****        16.0000   4.2500  19.7500 Du        
  10346 ****        16.0000   4.5000  19.2500 Du        
  10347 ****        16.0000   4.5000  19.5000 Du        
  10348 ****        16.0000   9.7500  35.7500 Du        
  10349 ****        16.0000   9.7500  36.0000 Du        
  10350 ****        16.0000   9.7500  36.2500 Du        
  10351 ****        16.0000   9.7500  36.5000 Du        
  10352 ****        16.0000   9.7500  36.7500 Du        
  10353 ****        16.0000  10.0000  20.2500 Du        
  10354 ****        16.0000  10.0000  20.5000 Du        
  10355 ****        16.0000  10.0000  20.7500 Du        
  10356 ****        16.0000  10.0000  21.0000 Du        
  10357 ****        16.0000  10.0000  35.7500 Du        
  10358 ****        16.0000  10.0000  36.0000 Du        
  10359 ****        16.0000  10.0000  36.2500 Du        
  10360 ****        16.0000  10.0000  36.5000 Du        
  10361 ****        16.0000  10.0000  36.7500 Du        
  10362 ****        16.0000  10.0000  37.0000 Du        
  10363 ****        16.0000  10.2500  20.2500 Du        
  10364 ****        16.0000  10.2500  20.5000 Du        
  10365 ****        16.0000  10.2500  20.7500 Du        
  10366 ****        16.0000  10.2500  21.0000 Du        
  10367 ****        16.0000  10.2500  21.2500 Du        
  10368 ****        16.0000  10.2500  21.5000 Du        
  10369 ****        16.0000  10.2500  35.7500 Du        
  10370 ****        16.0000  10.2500  36.0000 Du        
  10371 ****        16.0000  10.2500  36.2500 Du        
  10372 ****        16.0000  10.2500  36.5000 Du        
  10373 ****        16.0000  10.2500  36.7500 Du        
  10374 ****        16.0000  10.2500  37.0000 Du        
  10375 ****        16.0000  10.2500  37.2500 Du        
  10376 ****        16.0000  10.5000  20.5000 Du        
  10377 ****        16.0000  10.5000  20.7500 Du        
  10378 ****        16.0000  10.5000  21.0000 Du        
  10379 ****        16.0000  10.5000  21.2500 Du        
  10380 ****        16.0000  10.5000  21.5000 Du        
  10381 ****        16.0000  10.5000  35.7500 Du        
  10382 ****        16.0000  10.5000  36.0000 Du        
  10383 ****        16.0000  10.5000  36.2500 Du        
  10384 ****        16.0000  10.5000  36.5000 Du        
  10385 ****        16.0000  10.5000  36.7500 Du        
  10386 ****        16.0000  10.5000  37.0000 Du        
  10387 ****        16.0000  10.5000  37.2500 Du        
  10388 ****        16.0000  10.5000  37.5000 Du        
  10389 ****        16.0000  10.7500  20.7500 Du        
  10390 ****        16.0000  10.7500  21.0000 Du        
  10391 ****        16.0000  10.7500  21.2500 Du        
  10392 ****        16.0000  10.7500  21.5000 Du        
  10393 ****        16.0000  10.7500  35.7500 Du        
  10394 ****        16.0000  10.7500  36.0000 Du        
  10395 ****        16.0000  10.7500  36.2500 Du        
  10396 ****        16.0000  10.7500  36.5000 Du        
  10397 ****        16.0000  10.7500  36.7500 Du        
  10398 ****        16.0000  10.7500  37.0000 Du        
  10399 ****        16.0000  10.7500  37.2500 Du        
  10400 ****        16.0000  10.7500  37.5000 Du        
  10401 ****        16.0000  11.0000  21.0000 Du        
  10402 ****        16.0000  11.0000  21.2500 Du        
  10403 ****        16.0000  11.0000  21.5000 Du        
  10404 ****        16.0000  11.0000  35.7500 Du        
  10405 ****        16.0000  11.0000  36.0000 Du        
  10406 ****        16.0000  11.0000  36.2500 Du        
  10407 ****        16.0000  11.0000  36.5000 Du        
  10408 ****        16.0000  11.0000  36.7500 Du        
  10409 ****        16.0000  11.0000  37.0000 Du        
  10410 ****        16.0000  11.0000  37.2500 Du        
  10411 ****        16.0000  11.0000  37.5000 Du        
  10412 ****        16.0000  11.0000  37.7500 Du        
  10413 ****        16.0000  11.2500  36.0000 Du        
  10414 ****        16.0000  11.2500  36.2500 Du        
  10415 ****        16.0000  11.2500  36.5000 Du        
  10416 ****        16.0000  11.2500  36.7500 Du        
  10417 ****        16.0000  11.2500  37.0000 Du        
  10418 ****        16.0000  11.2500  37.2500 Du        
  10419 ****        16.0000  11.2500  37.5000 Du        
  10420 ****        16.0000  11.2500  37.7500 Du        
  10421 ****        16.0000  11.5000  36.2500 Du        
  10422 ****        16.0000  11.5000  36.5000 Du        
  10423 ****        16.0000  11.5000  36.7500 Du        
  10424 ****        16.0000  11.5000  37.0000 Du        
  10425 ****        16.0000  11.5000  37.2500 Du        
  10426 ****        16.0000  11.5000  37.5000 Du        
  10427 ****        16.0000  11.7500  36.5000 Du        
  10428 ****        16.0000  11.7500  36.7500 Du        
  10429 ****        16.0000  11.7500  37.0000 Du        
  10430 ****        16.0000  11.7500  37.2500 Du        
  10431 ****        16.0000  11.7500  37.5000 Du        
  10432 ****        16.0000  12.0000  36.7500 Du        
  10433 ****        16.0000  12.0000  37.0000 Du        
  10434 ****        16.0000  12.0000  37.2500 Du        
  10435 ****        16.0000  12.2500  37.2500 Du        
  10436 ****        16.0000  13.7500  37.7500 Du        
  10437 ****        16.0000  13.7500  38.0000 Du        
  10438 ****        16.0000  14.0000  37.7500 Du        
  10439 ****        16.0000  14.0000  38.0000 Du        
  10440 ****        16.0000  14.2500  38.0000 Du        
  10441 ****        16.0000  14.2500  38.2500 Du        
  10442 ****        16.0000  14.5000  38.0000 Du        
  10443 ****        16.0000  14.5000  38.2500 Du        
  10444 ****        16.0000  14.7500  38.0000 Du        
  10445 ****        16.0000  14.7500  38.2500 Du        
  10446 ****        16.0000  15.0000  38.0000 Du        
  10447 ****        16.0000  15.0000  38.2500 Du        
  10448 ****        16.0000  15.0000  38.5000 Du        
  10449 ****        16.0000  15.2500  38.2500 Du        
  10450 ****        16.0000  15.2500  38.5000 Du        
  10451 ****        16.0000  17.5000  31.7500 Du        
  10452 ****        16.0000  17.7500  31.5000 Du        
  10453 ****        16.0000  17.7500  31.7500 Du        
  10454 ****        16.0000  17.7500  32.0000 Du        
  10455 ****        16.0000  18.0000  31.5000 Du        
  10456 ****        16.0000  18.0000  31.7500 Du        
  10457 ****        16.0000  18.0000  32.0000 Du        
  10458 ****        16.0000  18.0000  32.2500 Du        
  10459 ****        16.0000  18.2500  31.5000 Du        
  10460 ****        16.0000  18.2500  31.7500 Du        
  10461 ****        16.0000  18.2500  32.0000 Du        
  10462 ****        16.0000  18.2500  32.2500 Du        
  10463 ****        16.0000  18.2500  32.5000 Du        
  10464 ****        16.0000  18.5000  31.7500 Du        
  10465 ****        16.0000  18.5000  32.0000 Du        
  10466 ****        16.0000  18.5000  32.2500 Du        
  10467 ****        16.0000  18.5000  32.5000 Du        
  10468 ****        16.0000  18.5000  32.7500 Du        
  10469 ****        16.0000  18.5000  33.0000 Du        
  10470 ****        16.0000  18.7500  32.0000 Du        
  10471 ****        16.0000  18.7500  32.2500 Du        
  10472 ****        16.0000  18.7500  32.5000 Du        
  10473 ****        16.0000  18.7500  32.7500 Du        
  10474 ****        16.0000  18.7500  33.0000 Du        
  10475 ****        16.0000  18.7500  33.2500 Du        
  10476 ****        16.0000  19.0000  32.2500 Du        
  10477 ****        16.0000  19.0000  32.5000 Du        
  10478 ****        16.0000  19.0000  32.7500 Du        
  10479 ****        16.0000  19.0000  33.0000 Du        
  10480 ****        16.0000  19.0000  33.2500 Du        
  10481 ****        16.0000  19.0000  33.5000 Du        
  10482 ****        16.0000  19.0000  33.7500 Du        
  10483 ****        16.0000  19.0000  34.0000 Du        
  10484 ****        16.0000  19.0000  34.2500 Du        
  10485 ****        16.0000  19.2500  32.7500 Du        
  10486 ****        16.0000  19.2500  33.0000 Du        
  10487 ****        16.0000  19.2500  33.2500 Du        
  10488 ****        16.0000  19.2500  33.5000 Du        
  10489 ****        16.0000  19.2500  33.7500 Du        
  10490 ****        16.0000  19.2500  34.0000 Du        
  10491 ****        16.0000  19.2500  34.2500 Du        
  10492 ****        16.0000  19.2500  34.5000 Du        
  10493 ****        16.0000  19.2500  34.7500 Du        
  10494 ****        16.0000  19.5000  33.0000 Du        
  10495 ****        16.0000  19.5000  33.2500 Du        
  10496 ****        16.0000  19.5000  33.5000 Du        
  10497 ****        16.0000  19.5000  33.7500 Du        
  10498 ****        16.0000  19.5000  34.0000 Du        
  10499 ****        16.0000  19.5000  34.2500 Du        
  10500 ****        16.0000  19.5000  34.5000 Du        
  10501 ****        16.0000  19.5000  34.7500 Du        
  10502 ****        16.0000  19.5000  35.0000 Du        
  10503 ****        16.0000  19.7500  33.2500 Du        
  10504 ****        16.0000  19.7500  33.5000 Du        
  10505 ****        16.0000  19.7500  33.7500 Du        
  10506 ****        16.0000  19.7500  34.0000 Du        
  10507 ****        16.0000  19.7500  34.2500 Du        
  10508 ****        16.0000  19.7500  34.5000 Du        
  10509 ****        16.0000  19.7500  34.7500 Du        
  10510 ****        16.0000  19.7500  35.0000 Du        
  10511 ****        16.0000  20.0000  34.0000 Du        
  10512 ****        16.0000  20.0000  34.2500 Du        
  10513 ****        16.0000  20.0000  34.5000 Du        
  10514 ****        16.0000  20.0000  34.7500 Du        
  10515 ****        16.0000  20.0000  35.0000 Du        
  10516 ****        16.0000  20.0000  35.2500 Du        
  10517 ****        16.0000  20.2500  34.7500 Du        
  10518 ****        16.2500 -18.0000  33.5000 Du        
  10519 ****        16.2500 -17.7500  33.5000 Du        
  10520 ****        16.2500 -17.5000  33.5000 Du        
  10521 ****        16.2500  -4.2500  26.0000 Du        
  10522 ****        16.2500  -4.2500  26.2500 Du        
  10523 ****        16.2500  -4.0000  26.0000 Du        
  10524 ****        16.2500  -4.0000  26.2500 Du        
  10525 ****        16.2500  -4.0000  26.5000 Du        
  10526 ****        16.2500  -3.7500  26.0000 Du        
  10527 ****        16.2500  -3.7500  26.2500 Du        
  10528 ****        16.2500   2.0000  19.7500 Du        
  10529 ****        16.2500   2.0000  20.0000 Du        
  10530 ****        16.2500   2.0000  20.2500 Du        
  10531 ****        16.2500   2.0000  20.5000 Du        
  10532 ****        16.2500   2.0000  20.7500 Du        
  10533 ****        16.2500   2.2500  19.7500 Du        
  10534 ****        16.2500   2.2500  20.0000 Du        
  10535 ****        16.2500   2.2500  20.2500 Du        
  10536 ****        16.2500   2.2500  20.5000 Du        
  10537 ****        16.2500   2.2500  20.7500 Du        
  10538 ****        16.2500   2.2500  21.0000 Du        
  10539 ****        16.2500   2.5000  19.7500 Du        
  10540 ****        16.2500   2.5000  20.0000 Du        
  10541 ****        16.2500   2.5000  20.2500 Du        
  10542 ****        16.2500   2.5000  20.5000 Du        
  10543 ****        16.2500   2.5000  20.7500 Du        
  10544 ****        16.2500   2.5000  21.0000 Du        
  10545 ****        16.2500   2.7500  19.7500 Du        
  10546 ****        16.2500   2.7500  20.0000 Du        
  10547 ****        16.2500   2.7500  20.2500 Du        
  10548 ****        16.2500   2.7500  20.5000 Du        
  10549 ****        16.2500   2.7500  20.7500 Du        
  10550 ****        16.2500   2.7500  21.0000 Du        
  10551 ****        16.2500   3.0000  20.0000 Du        
  10552 ****        16.2500   3.0000  20.2500 Du        
  10553 ****        16.2500   3.0000  20.5000 Du        
  10554 ****        16.2500   3.0000  20.7500 Du        
  10555 ****        16.2500   3.2500  20.0000 Du        
  10556 ****        16.2500   3.2500  20.2500 Du        
  10557 ****        16.2500   3.2500  20.5000 Du        
  10558 ****        16.2500   3.2500  20.7500 Du        
  10559 ****        16.2500   3.5000  19.7500 Du        
  10560 ****        16.2500   3.5000  20.0000 Du        
  10561 ****        16.2500   3.5000  20.2500 Du        
  10562 ****        16.2500   3.5000  20.5000 Du        
  10563 ****        16.2500  10.0000  20.2500 Du        
  10564 ****        16.2500  10.0000  20.5000 Du        
  10565 ****        16.2500  10.0000  20.7500 Du        
  10566 ****        16.2500  10.0000  21.0000 Du        
  10567 ****        16.2500  10.0000  35.7500 Du        
  10568 ****        16.2500  10.0000  36.0000 Du        
  10569 ****        16.2500  10.0000  36.2500 Du        
  10570 ****        16.2500  10.0000  36.5000 Du        
  10571 ****        16.2500  10.0000  36.7500 Du        
  10572 ****        16.2500  10.2500  20.2500 Du        
  10573 ****        16.2500  10.2500  20.5000 Du        
  10574 ****        16.2500  10.2500  20.7500 Du        
  10575 ****        16.2500  10.2500  21.0000 Du        
  10576 ****        16.2500  10.2500  21.2500 Du        
  10577 ****        16.2500  10.2500  21.5000 Du        
  10578 ****        16.2500  10.2500  35.7500 Du        
  10579 ****        16.2500  10.2500  36.0000 Du        
  10580 ****        16.2500  10.2500  36.2500 Du        
  10581 ****        16.2500  10.2500  36.5000 Du        
  10582 ****        16.2500  10.2500  36.7500 Du        
  10583 ****        16.2500  10.2500  37.0000 Du        
  10584 ****        16.2500  10.5000  20.2500 Du        
  10585 ****        16.2500  10.5000  20.5000 Du        
  10586 ****        16.2500  10.5000  20.7500 Du        
  10587 ****        16.2500  10.5000  21.0000 Du        
  10588 ****        16.2500  10.5000  21.2500 Du        
  10589 ****        16.2500  10.5000  21.5000 Du        
  10590 ****        16.2500  10.5000  35.7500 Du        
  10591 ****        16.2500  10.5000  36.0000 Du        
  10592 ****        16.2500  10.5000  36.2500 Du        
  10593 ****        16.2500  10.5000  36.5000 Du        
  10594 ****        16.2500  10.5000  36.7500 Du        
  10595 ****        16.2500  10.5000  37.0000 Du        
  10596 ****        16.2500  10.5000  37.2500 Du        
  10597 ****        16.2500  10.7500  20.5000 Du        
  10598 ****        16.2500  10.7500  20.7500 Du        
  10599 ****        16.2500  10.7500  21.0000 Du        
  10600 ****        16.2500  10.7500  21.2500 Du        
  10601 ****        16.2500  10.7500  21.5000 Du        
  10602 ****        16.2500  10.7500  21.7500 Du        
  10603 ****        16.2500  10.7500  35.7500 Du        
  10604 ****        16.2500  10.7500  36.0000 Du        
  10605 ****        16.2500  10.7500  36.2500 Du        
  10606 ****        16.2500  10.7500  36.5000 Du        
  10607 ****        16.2500  10.7500  36.7500 Du        
  10608 ****        16.2500  10.7500  37.0000 Du        
  10609 ****        16.2500  10.7500  37.2500 Du        
  10610 ****        16.2500  10.7500  37.5000 Du        
  10611 ****        16.2500  11.0000  20.7500 Du        
  10612 ****        16.2500  11.0000  21.0000 Du        
  10613 ****        16.2500  11.0000  21.2500 Du        
  10614 ****        16.2500  11.0000  21.5000 Du        
  10615 ****        16.2500  11.0000  21.7500 Du        
  10616 ****        16.2500  11.0000  35.7500 Du        
  10617 ****        16.2500  11.0000  36.0000 Du        
  10618 ****        16.2500  11.0000  36.2500 Du        
  10619 ****        16.2500  11.0000  36.5000 Du        
  10620 ****        16.2500  11.0000  36.7500 Du        
  10621 ****        16.2500  11.0000  37.0000 Du        
  10622 ****        16.2500  11.0000  37.2500 Du        
  10623 ****        16.2500  11.0000  37.5000 Du        
  10624 ****        16.2500  11.0000  37.7500 Du        
  10625 ****        16.2500  11.2500  21.2500 Du        
  10626 ****        16.2500  11.2500  21.5000 Du        
  10627 ****        16.2500  11.2500  36.0000 Du        
  10628 ****        16.2500  11.2500  36.2500 Du        
  10629 ****        16.2500  11.2500  36.5000 Du        
  10630 ****        16.2500  11.2500  36.7500 Du        
  10631 ****        16.2500  11.2500  37.0000 Du        
  10632 ****        16.2500  11.2500  37.2500 Du        
  10633 ****        16.2500  11.2500  37.5000 Du        
  10634 ****        16.2500  11.2500  37.7500 Du        
  10635 ****        16.2500  11.5000  36.0000 Du        
  10636 ****        16.2500  11.5000  36.2500 Du        
  10637 ****        16.2500  11.5000  36.5000 Du        
  10638 ****        16.2500  11.5000  36.7500 Du        
  10639 ****        16.2500  11.5000  37.0000 Du        
  10640 ****        16.2500  11.5000  37.2500 Du        
  10641 ****        16.2500  11.5000  37.5000 Du        
  10642 ****        16.2500  11.5000  37.7500 Du        
  10643 ****        16.2500  11.7500  36.2500 Du        
  10644 ****        16.2500  11.7500  36.5000 Du        
  10645 ****        16.2500  11.7500  36.7500 Du        
  10646 ****        16.2500  11.7500  37.0000 Du        
  10647 ****        16.2500  11.7500  37.2500 Du        
  10648 ****        16.2500  11.7500  37.5000 Du        
  10649 ****        16.2500  11.7500  37.7500 Du        
  10650 ****        16.2500  12.0000  36.7500 Du        
  10651 ****        16.2500  12.0000  37.0000 Du        
  10652 ****        16.2500  12.0000  37.2500 Du        
  10653 ****        16.2500  12.0000  37.5000 Du        
  10654 ****        16.2500  12.0000  37.7500 Du        
  10655 ****        16.2500  12.2500  37.0000 Du        
  10656 ****        16.2500  12.2500  37.2500 Du        
  10657 ****        16.2500  12.2500  37.5000 Du        
  10658 ****        16.2500  12.2500  37.7500 Du        
  10659 ****        16.2500  12.5000  37.2500 Du        
  10660 ****        16.2500  12.5000  37.5000 Du        
  10661 ****        16.2500  12.5000  37.7500 Du        
  10662 ****        16.2500  12.7500  37.2500 Du        
  10663 ****        16.2500  12.7500  37.5000 Du        
  10664 ****        16.2500  12.7500  37.7500 Du        
  10665 ****        16.2500  13.0000  37.5000 Du        
  10666 ****        16.2500  13.0000  37.7500 Du        
  10667 ****        16.2500  13.2500  37.7500 Du        
  10668 ****        16.2500  13.5000  37.7500 Du        
  10669 ****        16.2500  13.7500  37.7500 Du        
  10670 ****        16.2500  13.7500  38.0000 Du        
  10671 ****        16.2500  14.0000  37.7500 Du        
  10672 ****        16.2500  14.0000  38.0000 Du        
  10673 ****        16.2500  14.0000  38.2500 Du        
  10674 ****        16.2500  14.2500  37.7500 Du        
  10675 ****        16.2500  14.2500  38.0000 Du        
  10676 ****        16.2500  14.2500  38.2500 Du        
  10677 ****        16.2500  14.5000  38.0000 Du        
  10678 ****        16.2500  14.5000  38.2500 Du        
  10679 ****        16.2500  14.5000  38.5000 Du        
  10680 ****        16.2500  14.7500  38.0000 Du        
  10681 ****        16.2500  14.7500  38.2500 Du        
  10682 ****        16.2500  14.7500  38.5000 Du        
  10683 ****        16.2500  15.0000  38.2500 Du        
  10684 ****        16.2500  15.0000  38.5000 Du        
  10685 ****        16.2500  15.0000  38.7500 Du        
  10686 ****        16.2500  15.2500  38.2500 Du        
  10687 ****        16.2500  15.2500  38.5000 Du        
  10688 ****        16.2500  15.2500  38.7500 Du        
  10689 ****        16.2500  16.2500  32.0000 Du        
  10690 ****        16.2500  16.5000  32.0000 Du        
  10691 ****        16.2500  16.7500  32.0000 Du        
  10692 ****        16.2500  17.0000  31.7500 Du        
  10693 ****        16.2500  17.0000  32.0000 Du        
  10694 ****        16.2500  17.0000  32.2500 Du        
  10695 ****        16.2500  17.2500  31.7500 Du        
  10696 ****        16.2500  17.2500  32.0000 Du        
  10697 ****        16.2500  17.2500  32.2500 Du        
  10698 ****        16.2500  17.5000  31.7500 Du        
  10699 ****        16.2500  17.5000  32.0000 Du        
  10700 ****        16.2500  17.5000  32.2500 Du        
  10701 ****        16.2500  17.7500  31.5000 Du        
  10702 ****        16.2500  17.7500  31.7500 Du        
  10703 ****        16.2500  17.7500  32.0000 Du        
  10704 ****        16.2500  17.7500  32.2500 Du        
  10705 ****        16.2500  17.7500  32.5000 Du        
  10706 ****        16.2500  18.0000  31.7500 Du        
  10707 ****        16.2500  18.0000  32.0000 Du        
  10708 ****        16.2500  18.0000  32.2500 Du        
  10709 ****        16.2500  18.0000  32.5000 Du        
  10710 ****        16.2500  18.0000  32.7500 Du        
  10711 ****        16.2500  18.2500  31.7500 Du        
  10712 ****        16.2500  18.2500  32.0000 Du        
  10713 ****        16.2500  18.2500  32.2500 Du        
  10714 ****        16.2500  18.2500  32.5000 Du        
  10715 ****        16.2500  18.2500  32.7500 Du        
  10716 ****        16.2500  18.2500  33.0000 Du        
  10717 ****        16.2500  18.5000  32.0000 Du        
  10718 ****        16.2500  18.5000  32.2500 Du        
  10719 ****        16.2500  18.5000  32.5000 Du        
  10720 ****        16.2500  18.5000  32.7500 Du        
  10721 ****        16.2500  18.5000  33.0000 Du        
  10722 ****        16.2500  18.5000  33.2500 Du        
  10723 ****        16.2500  18.7500  32.2500 Du        
  10724 ****        16.2500  18.7500  32.5000 Du        
  10725 ****        16.2500  18.7500  32.7500 Du        
  10726 ****        16.2500  18.7500  33.0000 Du        
  10727 ****        16.2500  18.7500  33.2500 Du        
  10728 ****        16.2500  18.7500  33.5000 Du        
  10729 ****        16.2500  18.7500  33.7500 Du        
  10730 ****        16.2500  18.7500  34.0000 Du        
  10731 ****        16.2500  18.7500  34.2500 Du        
  10732 ****        16.2500  19.0000  32.7500 Du        
  10733 ****        16.2500  19.0000  33.0000 Du        
  10734 ****        16.2500  19.0000  33.2500 Du        
  10735 ****        16.2500  19.0000  33.5000 Du        
  10736 ****        16.2500  19.0000  33.7500 Du        
  10737 ****        16.2500  19.0000  34.0000 Du        
  10738 ****        16.2500  19.0000  34.2500 Du        
  10739 ****        16.2500  19.0000  34.5000 Du        
  10740 ****        16.2500  19.2500  33.0000 Du        
  10741 ****        16.2500  19.2500  33.2500 Du        
  10742 ****        16.2500  19.2500  33.5000 Du        
  10743 ****        16.2500  19.2500  33.7500 Du        
  10744 ****        16.2500  19.2500  34.0000 Du        
  10745 ****        16.2500  19.2500  34.2500 Du        
  10746 ****        16.2500  19.2500  34.5000 Du        
  10747 ****        16.2500  19.5000  33.7500 Du        
  10748 ****        16.2500  19.5000  34.0000 Du        
  10749 ****        16.2500  19.5000  34.2500 Du        
  10750 ****        16.2500  19.5000  34.5000 Du        
  10751 ****        16.2500  19.5000  34.7500 Du        
  10752 ****        16.2500  19.5000  35.0000 Du        
  10753 ****        16.2500  19.7500  34.2500 Du        
  10754 ****        16.2500  19.7500  34.5000 Du        
  10755 ****        16.2500  19.7500  34.7500 Du        
  10756 ****        16.2500  19.7500  35.0000 Du        
  10757 ****        16.2500  20.0000  34.7500 Du        
  10758 ****        16.2500  20.0000  35.0000 Du        
  10759 ****        16.5000  -4.2500  26.5000 Du        
  10760 ****        16.5000  -4.0000  26.0000 Du        
  10761 ****        16.5000  -4.0000  26.2500 Du        
  10762 ****        16.5000  -4.0000  26.5000 Du        
  10763 ****        16.5000  -3.7500  26.0000 Du        
  10764 ****        16.5000  -3.7500  26.2500 Du        
  10765 ****        16.5000  -3.7500  26.5000 Du        
  10766 ****        16.5000  -3.5000  26.5000 Du        
  10767 ****        16.5000   1.7500  20.5000 Du        
  10768 ****        16.5000   1.7500  20.7500 Du        
  10769 ****        16.5000   2.0000  20.0000 Du        
  10770 ****        16.5000   2.0000  20.2500 Du        
  10771 ****        16.5000   2.0000  20.5000 Du        
  10772 ****        16.5000   2.0000  20.7500 Du        
  10773 ****        16.5000   2.0000  21.0000 Du        
  10774 ****        16.5000   2.2500  20.2500 Du        
  10775 ****        16.5000   2.2500  20.5000 Du        
  10776 ****        16.5000   2.2500  20.7500 Du        
  10777 ****        16.5000   2.2500  21.0000 Du        
  10778 ****        16.5000   2.5000  20.5000 Du        
  10779 ****        16.5000   2.5000  20.7500 Du        
  10780 ****        16.5000   2.5000  21.0000 Du        
  10781 ****        16.5000   2.5000  21.2500 Du        
  10782 ****        16.5000   2.7500  20.5000 Du        
  10783 ****        16.5000   2.7500  20.7500 Du        
  10784 ****        16.5000   2.7500  21.0000 Du        
  10785 ****        16.5000   2.7500  21.2500 Du        
  10786 ****        16.5000   3.0000  20.5000 Du        
  10787 ****        16.5000   3.0000  20.7500 Du        
  10788 ****        16.5000   3.0000  21.0000 Du        
  10789 ****        16.5000   3.2500  20.5000 Du        
  10790 ****        16.5000  10.0000  20.5000 Du        
  10791 ****        16.5000  10.0000  35.7500 Du        
  10792 ****        16.5000  10.0000  36.0000 Du        
  10793 ****        16.5000  10.0000  36.2500 Du        
  10794 ****        16.5000  10.2500  20.2500 Du        
  10795 ****        16.5000  10.2500  20.5000 Du        
  10796 ****        16.5000  10.2500  20.7500 Du        
  10797 ****        16.5000  10.2500  21.0000 Du        
  10798 ****        16.5000  10.2500  21.2500 Du        
  10799 ****        16.5000  10.2500  35.7500 Du        
  10800 ****        16.5000  10.2500  36.0000 Du        
  10801 ****        16.5000  10.2500  36.2500 Du        
  10802 ****        16.5000  10.2500  36.5000 Du        
  10803 ****        16.5000  10.2500  36.7500 Du        
  10804 ****        16.5000  10.5000  20.0000 Du        
  10805 ****        16.5000  10.5000  20.2500 Du        
  10806 ****        16.5000  10.5000  20.5000 Du        
  10807 ****        16.5000  10.5000  20.7500 Du        
  10808 ****        16.5000  10.5000  21.0000 Du        
  10809 ****        16.5000  10.5000  21.2500 Du        
  10810 ****        16.5000  10.5000  21.5000 Du        
  10811 ****        16.5000  10.5000  35.7500 Du        
  10812 ****        16.5000  10.5000  36.0000 Du        
  10813 ****        16.5000  10.5000  36.2500 Du        
  10814 ****        16.5000  10.5000  36.5000 Du        
  10815 ****        16.5000  10.5000  36.7500 Du        
  10816 ****        16.5000  10.5000  37.0000 Du        
  10817 ****        16.5000  10.7500  20.2500 Du        
  10818 ****        16.5000  10.7500  20.5000 Du        
  10819 ****        16.5000  10.7500  20.7500 Du        
  10820 ****        16.5000  10.7500  21.0000 Du        
  10821 ****        16.5000  10.7500  21.2500 Du        
  10822 ****        16.5000  10.7500  21.5000 Du        
  10823 ****        16.5000  10.7500  21.7500 Du        
  10824 ****        16.5000  10.7500  35.7500 Du        
  10825 ****        16.5000  10.7500  36.0000 Du        
  10826 ****        16.5000  10.7500  36.2500 Du        
  10827 ****        16.5000  10.7500  36.5000 Du        
  10828 ****        16.5000  10.7500  36.7500 Du        
  10829 ****        16.5000  10.7500  37.0000 Du        
  10830 ****        16.5000  10.7500  37.2500 Du        
  10831 ****        16.5000  11.0000  20.5000 Du        
  10832 ****        16.5000  11.0000  20.7500 Du        
  10833 ****        16.5000  11.0000  21.0000 Du        
  10834 ****        16.5000  11.0000  21.2500 Du        
  10835 ****        16.5000  11.0000  21.5000 Du        
  10836 ****        16.5000  11.0000  21.7500 Du        
  10837 ****        16.5000  11.0000  35.7500 Du        
  10838 ****        16.5000  11.0000  36.0000 Du        
  10839 ****        16.5000  11.0000  36.2500 Du        
  10840 ****        16.5000  11.0000  36.5000 Du        
  10841 ****        16.5000  11.0000  36.7500 Du        
  10842 ****        16.5000  11.0000  37.0000 Du        
  10843 ****        16.5000  11.0000  37.2500 Du        
  10844 ****        16.5000  11.0000  37.5000 Du        
  10845 ****        16.5000  11.2500  21.0000 Du        
  10846 ****        16.5000  11.2500  21.2500 Du        
  10847 ****        16.5000  11.2500  21.5000 Du        
  10848 ****        16.5000  11.2500  21.7500 Du        
  10849 ****        16.5000  11.2500  36.0000 Du        
  10850 ****        16.5000  11.2500  36.2500 Du        
  10851 ****        16.5000  11.2500  36.5000 Du        
  10852 ****        16.5000  11.2500  36.7500 Du        
  10853 ****        16.5000  11.2500  37.0000 Du        
  10854 ****        16.5000  11.2500  37.2500 Du        
  10855 ****        16.5000  11.2500  37.5000 Du        
  10856 ****        16.5000  11.5000  21.2500 Du        
  10857 ****        16.5000  11.5000  21.5000 Du        
  10858 ****        16.5000  11.5000  21.7500 Du        
  10859 ****        16.5000  11.5000  36.0000 Du        
  10860 ****        16.5000  11.5000  36.2500 Du        
  10861 ****        16.5000  11.5000  36.5000 Du        
  10862 ****        16.5000  11.5000  36.7500 Du        
  10863 ****        16.5000  11.5000  37.0000 Du        
  10864 ****        16.5000  11.5000  37.2500 Du        
  10865 ****        16.5000  11.5000  37.5000 Du        
  10866 ****        16.5000  11.5000  37.7500 Du        
  10867 ****        16.5000  11.7500  36.2500 Du        
  10868 ****        16.5000  11.7500  36.5000 Du        
  10869 ****        16.5000  11.7500  36.7500 Du        
  10870 ****        16.5000  11.7500  37.0000 Du        
  10871 ****        16.5000  11.7500  37.2500 Du        
  10872 ****        16.5000  11.7500  37.5000 Du        
  10873 ****        16.5000  11.7500  37.7500 Du        
  10874 ****        16.5000  12.0000  36.5000 Du        
  10875 ****        16.5000  12.0000  36.7500 Du        
  10876 ****        16.5000  12.0000  37.0000 Du        
  10877 ****        16.5000  12.0000  37.2500 Du        
  10878 ****        16.5000  12.0000  37.5000 Du        
  10879 ****        16.5000  12.0000  37.7500 Du        
  10880 ****        16.5000  12.2500  36.7500 Du        
  10881 ****        16.5000  12.2500  37.0000 Du        
  10882 ****        16.5000  12.2500  37.2500 Du        
  10883 ****        16.5000  12.2500  37.5000 Du        
  10884 ****        16.5000  12.2500  37.7500 Du        
  10885 ****        16.5000  12.5000  37.2500 Du        
  10886 ****        16.5000  12.5000  37.5000 Du        
  10887 ****        16.5000  12.5000  37.7500 Du        
  10888 ****        16.5000  12.7500  37.2500 Du        
  10889 ****        16.5000  12.7500  37.5000 Du        
  10890 ****        16.5000  12.7500  37.7500 Du        
  10891 ****        16.5000  13.0000  37.5000 Du        
  10892 ****        16.5000  13.0000  37.7500 Du        
  10893 ****        16.5000  13.0000  38.0000 Du        
  10894 ****        16.5000  13.2500  37.5000 Du        
  10895 ****        16.5000  13.2500  37.7500 Du        
  10896 ****        16.5000  13.2500  38.0000 Du        
  10897 ****        16.5000  13.5000  37.7500 Du        
  10898 ****        16.5000  13.5000  38.0000 Du        
  10899 ****        16.5000  13.7500  37.7500 Du        
  10900 ****        16.5000  13.7500  38.0000 Du        
  10901 ****        16.5000  13.7500  38.2500 Du        
  10902 ****        16.5000  14.0000  37.7500 Du        
  10903 ****        16.5000  14.0000  38.0000 Du        
  10904 ****        16.5000  14.0000  38.2500 Du        
  10905 ****        16.5000  14.2500  38.0000 Du        
  10906 ****        16.5000  14.2500  38.2500 Du        
  10907 ****        16.5000  14.2500  38.5000 Du        
  10908 ****        16.5000  14.7500  38.5000 Du        
  10909 ****        16.5000  14.7500  38.7500 Du        
  10910 ****        16.5000  15.0000  38.7500 Du        
  10911 ****        16.5000  15.7500  32.0000 Du        
  10912 ****        16.5000  16.0000  32.0000 Du        
  10913 ****        16.5000  16.0000  32.2500 Du        
  10914 ****        16.5000  16.2500  31.7500 Du        
  10915 ****        16.5000  16.2500  32.0000 Du        
  10916 ****        16.5000  16.2500  32.2500 Du        
  10917 ****        16.5000  16.5000  31.7500 Du        
  10918 ****        16.5000  16.5000  32.0000 Du        
  10919 ****        16.5000  16.5000  32.2500 Du        
  10920 ****        16.5000  16.7500  31.7500 Du        
  10921 ****        16.5000  16.7500  32.0000 Du        
  10922 ****        16.5000  16.7500  32.2500 Du        
  10923 ****        16.5000  17.0000  31.7500 Du        
  10924 ****        16.5000  17.0000  32.0000 Du        
  10925 ****        16.5000  17.0000  32.2500 Du        
  10926 ****        16.5000  17.0000  32.5000 Du        
  10927 ****        16.5000  17.2500  31.7500 Du        
  10928 ****        16.5000  17.2500  32.0000 Du        
  10929 ****        16.5000  17.2500  32.2500 Du        
  10930 ****        16.5000  17.2500  32.5000 Du        
  10931 ****        16.5000  17.5000  31.7500 Du        
  10932 ****        16.5000  17.5000  32.0000 Du        
  10933 ****        16.5000  17.5000  32.2500 Du        
  10934 ****        16.5000  17.5000  32.5000 Du        
  10935 ****        16.5000  17.5000  32.7500 Du        
  10936 ****        16.5000  17.7500  31.7500 Du        
  10937 ****        16.5000  17.7500  32.0000 Du        
  10938 ****        16.5000  17.7500  32.2500 Du        
  10939 ****        16.5000  17.7500  32.5000 Du        
  10940 ****        16.5000  17.7500  32.7500 Du        
  10941 ****        16.5000  17.7500  33.0000 Du        
  10942 ****        16.5000  18.0000  31.7500 Du        
  10943 ****        16.5000  18.0000  32.0000 Du        
  10944 ****        16.5000  18.0000  32.2500 Du        
  10945 ****        16.5000  18.0000  32.5000 Du        
  10946 ****        16.5000  18.0000  32.7500 Du        
  10947 ****        16.5000  18.0000  33.0000 Du        
  10948 ****        16.5000  18.0000  33.2500 Du        
  10949 ****        16.5000  18.2500  32.2500 Du        
  10950 ****        16.5000  18.2500  32.5000 Du        
  10951 ****        16.5000  18.2500  32.7500 Du        
  10952 ****        16.5000  18.2500  33.0000 Du        
  10953 ****        16.5000  18.2500  33.2500 Du        
  10954 ****        16.5000  18.5000  32.5000 Du        
  10955 ****        16.5000  18.5000  32.7500 Du        
  10956 ****        16.5000  18.5000  33.0000 Du        
  10957 ****        16.5000  18.5000  33.2500 Du        
  10958 ****        16.5000  18.5000  33.5000 Du        
  10959 ****        16.5000  18.5000  33.7500 Du        
  10960 ****        16.5000  18.5000  34.0000 Du        
  10961 ****        16.5000  18.7500  32.7500 Du        
  10962 ****        16.5000  18.7500  33.0000 Du        
  10963 ****        16.5000  18.7500  33.2500 Du        
  10964 ****        16.5000  18.7500  33.5000 Du        
  10965 ****        16.5000  18.7500  33.7500 Du        
  10966 ****        16.5000  18.7500  34.0000 Du        
  10967 ****        16.5000  18.7500  34.2500 Du        
  10968 ****        16.5000  19.0000  33.2500 Du        
  10969 ****        16.5000  19.0000  33.5000 Du        
  10970 ****        16.5000  19.0000  33.7500 Du        
  10971 ****        16.5000  19.0000  34.0000 Du        
  10972 ****        16.5000  19.0000  34.2500 Du        
  10973 ****        16.5000  19.2500  34.0000 Du        
  10974 ****        16.5000  19.2500  34.2500 Du        
  10975 ****        16.7500 -18.0000  33.7500 Du        
  10976 ****        16.7500 -17.7500  33.7500 Du        
  10977 ****        16.7500  -4.2500  26.5000 Du        
  10978 ****        16.7500  -4.0000  26.0000 Du        
  10979 ****        16.7500  -4.0000  26.2500 Du        
  10980 ****        16.7500  -4.0000  26.5000 Du        
  10981 ****        16.7500  -3.7500  26.0000 Du        
  10982 ****        16.7500  -3.7500  26.2500 Du        
  10983 ****        16.7500  -3.7500  26.5000 Du        
  10984 ****        16.7500  -3.5000  26.5000 Du        
  10985 ****        16.7500  -3.5000  26.7500 Du        
  10986 ****        16.7500  -3.2500  26.5000 Du        
  10987 ****        16.7500   1.7500  20.7500 Du        
  10988 ****        16.7500   1.7500  21.0000 Du        
  10989 ****        16.7500   1.7500  21.2500 Du        
  10990 ****        16.7500   2.0000  20.2500 Du        
  10991 ****        16.7500   2.0000  20.7500 Du        
  10992 ****        16.7500   2.0000  21.0000 Du        
  10993 ****        16.7500   2.0000  21.2500 Du        
  10994 ****        16.7500   2.2500  20.7500 Du        
  10995 ****        16.7500   2.2500  21.0000 Du        
  10996 ****        16.7500   2.2500  21.2500 Du        
  10997 ****        16.7500   2.2500  21.5000 Du        
  10998 ****        16.7500   2.5000  20.5000 Du        
  10999 ****        16.7500   2.5000  20.7500 Du        
  11000 ****        16.7500   2.5000  21.0000 Du        
  11001 ****        16.7500   2.5000  21.2500 Du        
  11002 ****        16.7500   2.5000  21.5000 Du        
  11003 ****        16.7500   2.5000  29.2500 Du        
  11004 ****        16.7500   2.5000  29.5000 Du        
  11005 ****        16.7500   2.7500  20.5000 Du        
  11006 ****        16.7500   2.7500  20.7500 Du        
  11007 ****        16.7500   2.7500  21.0000 Du        
  11008 ****        16.7500   2.7500  21.2500 Du        
  11009 ****        16.7500   2.7500  29.2500 Du        
  11010 ****        16.7500   2.7500  29.5000 Du        
  11011 ****        16.7500   2.7500  29.7500 Du        
  11012 ****        16.7500   3.0000  20.7500 Du        
  11013 ****        16.7500   3.0000  21.0000 Du        
  11014 ****        16.7500   3.0000  21.2500 Du        
  11015 ****        16.7500   3.0000  29.2500 Du        
  11016 ****        16.7500   3.0000  29.5000 Du        
  11017 ****        16.7500   3.0000  29.7500 Du        
  11018 ****        16.7500   3.2500  29.5000 Du        
  11019 ****        16.7500   3.2500  29.7500 Du        
  11020 ****        16.7500   3.2500  30.0000 Du        
  11021 ****        16.7500   7.5000  26.5000 Du        
  11022 ****        16.7500   7.7500  26.5000 Du        
  11023 ****        16.7500  10.0000  35.7500 Du        
  11024 ****        16.7500  10.0000  36.0000 Du        
  11025 ****        16.7500  10.2500  20.0000 Du        
  11026 ****        16.7500  10.2500  20.2500 Du        
  11027 ****        16.7500  10.2500  20.5000 Du        
  11028 ****        16.7500  10.2500  35.7500 Du        
  11029 ****        16.7500  10.2500  36.0000 Du        
  11030 ****        16.7500  10.2500  36.2500 Du        
  11031 ****        16.7500  10.2500  36.5000 Du        
  11032 ****        16.7500  10.5000  20.0000 Du        
  11033 ****        16.7500  10.5000  20.2500 Du        
  11034 ****        16.7500  10.5000  20.5000 Du        
  11035 ****        16.7500  10.5000  20.7500 Du        
  11036 ****        16.7500  10.5000  21.0000 Du        
  11037 ****        16.7500  10.5000  21.2500 Du        
  11038 ****        16.7500  10.5000  35.7500 Du        
  11039 ****        16.7500  10.5000  36.0000 Du        
  11040 ****        16.7500  10.5000  36.2500 Du        
  11041 ****        16.7500  10.5000  36.5000 Du        
  11042 ****        16.7500  10.5000  36.7500 Du        
  11043 ****        16.7500  10.7500  20.0000 Du        
  11044 ****        16.7500  10.7500  20.2500 Du        
  11045 ****        16.7500  10.7500  20.5000 Du        
  11046 ****        16.7500  10.7500  20.7500 Du        
  11047 ****        16.7500  10.7500  21.0000 Du        
  11048 ****        16.7500  10.7500  21.2500 Du        
  11049 ****        16.7500  10.7500  21.5000 Du        
  11050 ****        16.7500  10.7500  21.7500 Du        
  11051 ****        16.7500  10.7500  35.7500 Du        
  11052 ****        16.7500  10.7500  36.0000 Du        
  11053 ****        16.7500  10.7500  36.2500 Du        
  11054 ****        16.7500  10.7500  36.5000 Du        
  11055 ****        16.7500  10.7500  36.7500 Du        
  11056 ****        16.7500  10.7500  37.0000 Du        
  11057 ****        16.7500  11.0000  20.2500 Du        
  11058 ****        16.7500  11.0000  20.5000 Du        
  11059 ****        16.7500  11.0000  20.7500 Du        
  11060 ****        16.7500  11.0000  21.0000 Du        
  11061 ****        16.7500  11.0000  21.2500 Du        
  11062 ****        16.7500  11.0000  21.5000 Du        
  11063 ****        16.7500  11.0000  21.7500 Du        
  11064 ****        16.7500  11.0000  35.7500 Du        
  11065 ****        16.7500  11.0000  36.0000 Du        
  11066 ****        16.7500  11.0000  36.2500 Du        
  11067 ****        16.7500  11.0000  36.5000 Du        
  11068 ****        16.7500  11.0000  36.7500 Du        
  11069 ****        16.7500  11.0000  37.0000 Du        
  11070 ****        16.7500  11.0000  37.2500 Du        
  11071 ****        16.7500  11.2500  20.7500 Du        
  11072 ****        16.7500  11.2500  21.0000 Du        
  11073 ****        16.7500  11.2500  21.2500 Du        
  11074 ****        16.7500  11.2500  21.5000 Du        
  11075 ****        16.7500  11.2500  21.7500 Du        
  11076 ****        16.7500  11.2500  22.0000 Du        
  11077 ****        16.7500  11.2500  35.7500 Du        
  11078 ****        16.7500  11.2500  36.0000 Du        
  11079 ****        16.7500  11.2500  36.2500 Du        
  11080 ****        16.7500  11.2500  36.5000 Du        
  11081 ****        16.7500  11.2500  36.7500 Du        
  11082 ****        16.7500  11.2500  37.0000 Du        
  11083 ****        16.7500  11.2500  37.2500 Du        
  11084 ****        16.7500  11.2500  37.5000 Du        
  11085 ****        16.7500  11.5000  21.0000 Du        
  11086 ****        16.7500  11.5000  21.2500 Du        
  11087 ****        16.7500  11.5000  21.5000 Du        
  11088 ****        16.7500  11.5000  21.7500 Du        
  11089 ****        16.7500  11.5000  36.0000 Du        
  11090 ****        16.7500  11.5000  36.2500 Du        
  11091 ****        16.7500  11.5000  36.5000 Du        
  11092 ****        16.7500  11.5000  36.7500 Du        
  11093 ****        16.7500  11.5000  37.0000 Du        
  11094 ****        16.7500  11.5000  37.2500 Du        
  11095 ****        16.7500  11.5000  37.5000 Du        
  11096 ****        16.7500  11.5000  37.7500 Du        
  11097 ****        16.7500  11.7500  21.5000 Du        
  11098 ****        16.7500  11.7500  21.7500 Du        
  11099 ****        16.7500  11.7500  36.0000 Du        
  11100 ****        16.7500  11.7500  36.2500 Du        
  11101 ****        16.7500  11.7500  36.5000 Du        
  11102 ****        16.7500  11.7500  36.7500 Du        
  11103 ****        16.7500  11.7500  37.0000 Du        
  11104 ****        16.7500  11.7500  37.2500 Du        
  11105 ****        16.7500  11.7500  37.5000 Du        
  11106 ****        16.7500  11.7500  37.7500 Du        
  11107 ****        16.7500  12.0000  36.2500 Du        
  11108 ****        16.7500  12.0000  36.5000 Du        
  11109 ****        16.7500  12.0000  36.7500 Du        
  11110 ****        16.7500  12.0000  37.0000 Du        
  11111 ****        16.7500  12.0000  37.2500 Du        
  11112 ****        16.7500  12.0000  37.5000 Du        
  11113 ****        16.7500  12.0000  37.7500 Du        
  11114 ****        16.7500  12.2500  36.7500 Du        
  11115 ****        16.7500  12.2500  37.0000 Du        
  11116 ****        16.7500  12.2500  37.2500 Du        
  11117 ****        16.7500  12.2500  37.5000 Du        
  11118 ****        16.7500  12.2500  37.7500 Du        
  11119 ****        16.7500  12.5000  37.0000 Du        
  11120 ****        16.7500  12.5000  37.2500 Du        
  11121 ****        16.7500  12.5000  37.5000 Du        
  11122 ****        16.7500  12.5000  37.7500 Du        
  11123 ****        16.7500  12.7500  37.2500 Du        
  11124 ****        16.7500  12.7500  37.5000 Du        
  11125 ****        16.7500  12.7500  37.7500 Du        
  11126 ****        16.7500  12.7500  38.0000 Du        
  11127 ****        16.7500  13.0000  37.2500 Du        
  11128 ****        16.7500  13.0000  37.5000 Du        
  11129 ****        16.7500  13.0000  37.7500 Du        
  11130 ****        16.7500  13.0000  38.0000 Du        
  11131 ****        16.7500  13.2500  37.2500 Du        
  11132 ****        16.7500  13.2500  37.5000 Du        
  11133 ****        16.7500  13.2500  37.7500 Du        
  11134 ****        16.7500  13.2500  38.0000 Du        
  11135 ****        16.7500  13.2500  38.2500 Du        
  11136 ****        16.7500  13.5000  37.5000 Du        
  11137 ****        16.7500  13.5000  37.7500 Du        
  11138 ****        16.7500  13.5000  38.0000 Du        
  11139 ****        16.7500  13.5000  38.2500 Du        
  11140 ****        16.7500  13.7500  37.7500 Du        
  11141 ****        16.7500  13.7500  38.0000 Du        
  11142 ****        16.7500  13.7500  38.2500 Du        
  11143 ****        16.7500  13.7500  38.5000 Du        
  11144 ****        16.7500  14.0000  37.7500 Du        
  11145 ****        16.7500  14.0000  38.0000 Du        
  11146 ****        16.7500  14.0000  38.2500 Du        
  11147 ****        16.7500  14.0000  38.5000 Du        
  11148 ****        16.7500  14.2500  38.0000 Du        
  11149 ****        16.7500  14.2500  38.2500 Du        
  11150 ****        16.7500  14.2500  38.5000 Du        
  11151 ****        16.7500  14.2500  38.7500 Du        
  11152 ****        16.7500  14.5000  38.5000 Du        
  11153 ****        16.7500  14.5000  38.7500 Du        
  11154 ****        16.7500  14.7500  38.7500 Du        
  11155 ****        16.7500  14.7500  39.0000 Du        
  11156 ****        16.7500  15.0000  32.0000 Du        
  11157 ****        16.7500  15.0000  38.7500 Du        
  11158 ****        16.7500  15.0000  39.0000 Du        
  11159 ****        16.7500  15.2500  32.0000 Du        
  11160 ****        16.7500  15.2500  39.0000 Du        
  11161 ****        16.7500  15.2500  39.2500 Du        
  11162 ****        16.7500  15.5000  32.0000 Du        
  11163 ****        16.7500  15.5000  32.2500 Du        
  11164 ****        16.7500  15.7500  31.7500 Du        
  11165 ****        16.7500  15.7500  32.0000 Du        
  11166 ****        16.7500  15.7500  32.2500 Du        
  11167 ****        16.7500  16.0000  31.7500 Du        
  11168 ****        16.7500  16.0000  32.0000 Du        
  11169 ****        16.7500  16.0000  32.2500 Du        
  11170 ****        16.7500  16.0000  32.5000 Du        
  11171 ****        16.7500  16.2500  31.7500 Du        
  11172 ****        16.7500  16.2500  32.0000 Du        
  11173 ****        16.7500  16.2500  32.2500 Du        
  11174 ****        16.7500  16.2500  32.5000 Du        
  11175 ****        16.7500  16.2500  40.2500 Du        
  11176 ****        16.7500  16.2500  40.5000 Du        
  11177 ****        16.7500  16.5000  31.7500 Du        
  11178 ****        16.7500  16.5000  32.0000 Du        
  11179 ****        16.7500  16.5000  32.2500 Du        
  11180 ****        16.7500  16.5000  32.5000 Du        
  11181 ****        16.7500  16.7500  31.7500 Du        
  11182 ****        16.7500  16.7500  32.0000 Du        
  11183 ****        16.7500  16.7500  32.2500 Du        
  11184 ****        16.7500  16.7500  32.5000 Du        
  11185 ****        16.7500  16.7500  32.7500 Du        
  11186 ****        16.7500  17.0000  31.7500 Du        
  11187 ****        16.7500  17.0000  32.0000 Du        
  11188 ****        16.7500  17.0000  32.2500 Du        
  11189 ****        16.7500  17.0000  32.5000 Du        
  11190 ****        16.7500  17.0000  32.7500 Du        
  11191 ****        16.7500  17.0000  33.0000 Du        
  11192 ****        16.7500  17.2500  31.5000 Du        
  11193 ****        16.7500  17.2500  31.7500 Du        
  11194 ****        16.7500  17.2500  32.0000 Du        
  11195 ****        16.7500  17.2500  32.2500 Du        
  11196 ****        16.7500  17.2500  32.5000 Du        
  11197 ****        16.7500  17.2500  32.7500 Du        
  11198 ****        16.7500  17.2500  33.0000 Du        
  11199 ****        16.7500  17.5000  31.7500 Du        
  11200 ****        16.7500  17.5000  32.0000 Du        
  11201 ****        16.7500  17.5000  32.2500 Du        
  11202 ****        16.7500  17.5000  32.5000 Du        
  11203 ****        16.7500  17.5000  32.7500 Du        
  11204 ****        16.7500  17.5000  33.0000 Du        
  11205 ****        16.7500  17.5000  33.2500 Du        
  11206 ****        16.7500  17.7500  31.7500 Du        
  11207 ****        16.7500  17.7500  32.0000 Du        
  11208 ****        16.7500  17.7500  32.2500 Du        
  11209 ****        16.7500  17.7500  32.5000 Du        
  11210 ****        16.7500  17.7500  32.7500 Du        
  11211 ****        16.7500  17.7500  33.0000 Du        
  11212 ****        16.7500  17.7500  33.2500 Du        
  11213 ****        16.7500  18.0000  32.0000 Du        
  11214 ****        16.7500  18.0000  32.2500 Du        
  11215 ****        16.7500  18.0000  32.5000 Du        
  11216 ****        16.7500  18.0000  32.7500 Du        
  11217 ****        16.7500  18.0000  33.0000 Du        
  11218 ****        16.7500  18.0000  33.2500 Du        
  11219 ****        16.7500  18.0000  33.5000 Du        
  11220 ****        16.7500  18.2500  32.5000 Du        
  11221 ****        16.7500  18.2500  32.7500 Du        
  11222 ****        16.7500  18.2500  33.0000 Du        
  11223 ****        16.7500  18.2500  33.2500 Du        
  11224 ****        16.7500  18.2500  33.5000 Du        
  11225 ****        16.7500  18.2500  33.7500 Du        
  11226 ****        16.7500  18.5000  33.0000 Du        
  11227 ****        16.7500  18.5000  33.2500 Du        
  11228 ****        16.7500  18.5000  33.5000 Du        
  11229 ****        16.7500  18.5000  33.7500 Du        
  11230 ****        16.7500  18.5000  34.0000 Du        
  11231 ****        16.7500  18.5000  34.2500 Du        
  11232 ****        16.7500  18.7500  33.2500 Du        
  11233 ****        16.7500  18.7500  33.5000 Du        
  11234 ****        16.7500  18.7500  33.7500 Du        
  11235 ****        16.7500  18.7500  34.0000 Du        
  11236 ****        16.7500  18.7500  34.2500 Du        
  11237 ****        16.7500  19.0000  34.0000 Du        
  11238 ****        16.7500  19.0000  34.2500 Du        
  11239 ****        17.0000 -18.0000  33.7500 Du        
  11240 ****        17.0000 -17.7500  33.7500 Du        
  11241 ****        17.0000 -17.5000  33.7500 Du        
  11242 ****        17.0000 -17.2500  33.7500 Du        
  11243 ****        17.0000  -4.0000  26.5000 Du        
  11244 ****        17.0000  -4.0000  26.7500 Du        
  11245 ****        17.0000  -3.7500  26.2500 Du        
  11246 ****        17.0000  -3.7500  26.5000 Du        
  11247 ****        17.0000  -3.7500  26.7500 Du        
  11248 ****        17.0000  -3.5000  26.5000 Du        
  11249 ****        17.0000  -3.5000  26.7500 Du        
  11250 ****        17.0000  -3.2500  26.5000 Du        
  11251 ****        17.0000  -3.2500  26.7500 Du        
  11252 ****        17.0000  -3.2500  27.0000 Du        
  11253 ****        17.0000   1.5000  21.2500 Du        
  11254 ****        17.0000   1.7500  20.7500 Du        
  11255 ****        17.0000   1.7500  21.0000 Du        
  11256 ****        17.0000   1.7500  21.2500 Du        
  11257 ****        17.0000   2.0000  20.7500 Du        
  11258 ****        17.0000   2.0000  21.0000 Du        
  11259 ****        17.0000   2.0000  21.2500 Du        
  11260 ****        17.0000   2.0000  21.5000 Du        
  11261 ****        17.0000   2.0000  21.7500 Du        
  11262 ****        17.0000   2.2500  20.7500 Du        
  11263 ****        17.0000   2.2500  21.0000 Du        
  11264 ****        17.0000   2.2500  21.2500 Du        
  11265 ****        17.0000   2.2500  21.5000 Du        
  11266 ****        17.0000   2.2500  21.7500 Du        
  11267 ****        17.0000   2.2500  29.2500 Du        
  11268 ****        17.0000   2.2500  29.5000 Du        
  11269 ****        17.0000   2.5000  20.7500 Du        
  11270 ****        17.0000   2.5000  21.0000 Du        
  11271 ****        17.0000   2.5000  21.2500 Du        
  11272 ****        17.0000   2.5000  21.5000 Du        
  11273 ****        17.0000   2.5000  21.7500 Du        
  11274 ****        17.0000   2.5000  22.0000 Du        
  11275 ****        17.0000   2.5000  29.2500 Du        
  11276 ****        17.0000   2.5000  29.5000 Du        
  11277 ****        17.0000   2.5000  29.7500 Du        
  11278 ****        17.0000   2.7500  20.7500 Du        
  11279 ****        17.0000   2.7500  21.0000 Du        
  11280 ****        17.0000   2.7500  21.2500 Du        
  11281 ****        17.0000   2.7500  21.5000 Du        
  11282 ****        17.0000   2.7500  21.7500 Du        
  11283 ****        17.0000   2.7500  29.0000 Du        
  11284 ****        17.0000   2.7500  29.2500 Du        
  11285 ****        17.0000   2.7500  29.5000 Du        
  11286 ****        17.0000   2.7500  29.7500 Du        
  11287 ****        17.0000   2.7500  30.0000 Du        
  11288 ****        17.0000   3.0000  21.2500 Du        
  11289 ****        17.0000   3.0000  29.0000 Du        
  11290 ****        17.0000   3.0000  29.2500 Du        
  11291 ****        17.0000   3.0000  29.5000 Du        
  11292 ****        17.0000   3.0000  29.7500 Du        
  11293 ****        17.0000   3.0000  30.0000 Du        
  11294 ****        17.0000   3.2500  29.2500 Du        
  11295 ****        17.0000   3.2500  29.5000 Du        
  11296 ****        17.0000   3.2500  29.7500 Du        
  11297 ****        17.0000   3.2500  30.0000 Du        
  11298 ****        17.0000   3.2500  30.2500 Du        
  11299 ****        17.0000   3.5000  29.7500 Du        
  11300 ****        17.0000   3.5000  30.0000 Du        
  11301 ****        17.0000   3.5000  30.2500 Du        
  11302 ****        17.0000   3.5000  30.5000 Du        
  11303 ****        17.0000   3.7500  30.2500 Du        
  11304 ****        17.0000   3.7500  30.5000 Du        
  11305 ****        17.0000   3.7500  30.7500 Du        
  11306 ****        17.0000   4.0000  30.7500 Du        
  11307 ****        17.0000   4.0000  31.0000 Du        
  11308 ****        17.0000   4.2500  31.2500 Du        
  11309 ****        17.0000   4.2500  31.5000 Du        
  11310 ****        17.0000   4.2500  31.7500 Du        
  11311 ****        17.0000   7.0000  26.7500 Du        
  11312 ****        17.0000   7.2500  26.5000 Du        
  11313 ****        17.0000   7.2500  26.7500 Du        
  11314 ****        17.0000   7.5000  26.5000 Du        
  11315 ****        17.0000  10.0000  35.7500 Du        
  11316 ****        17.0000  10.0000  36.0000 Du        
  11317 ****        17.0000  10.2500  35.7500 Du        
  11318 ****        17.0000  10.2500  36.0000 Du        
  11319 ****        17.0000  10.2500  36.2500 Du        
  11320 ****        17.0000  10.5000  19.7500 Du        
  11321 ****        17.0000  10.5000  20.0000 Du        
  11322 ****        17.0000  10.5000  20.2500 Du        
  11323 ****        17.0000  10.5000  20.5000 Du        
  11324 ****        17.0000  10.5000  35.7500 Du        
  11325 ****        17.0000  10.5000  36.0000 Du        
  11326 ****        17.0000  10.5000  36.2500 Du        
  11327 ****        17.0000  10.5000  36.5000 Du        
  11328 ****        17.0000  10.5000  36.7500 Du        
  11329 ****        17.0000  10.7500  19.7500 Du        
  11330 ****        17.0000  10.7500  20.0000 Du        
  11331 ****        17.0000  10.7500  20.2500 Du        
  11332 ****        17.0000  10.7500  20.5000 Du        
  11333 ****        17.0000  10.7500  20.7500 Du        
  11334 ****        17.0000  10.7500  21.0000 Du        
  11335 ****        17.0000  10.7500  21.2500 Du        
  11336 ****        17.0000  10.7500  35.7500 Du        
  11337 ****        17.0000  10.7500  36.0000 Du        
  11338 ****        17.0000  10.7500  36.2500 Du        
  11339 ****        17.0000  10.7500  36.5000 Du        
  11340 ****        17.0000  10.7500  36.7500 Du        
  11341 ****        17.0000  10.7500  37.0000 Du        
  11342 ****        17.0000  11.0000  20.0000 Du        
  11343 ****        17.0000  11.0000  20.2500 Du        
  11344 ****        17.0000  11.0000  20.5000 Du        
  11345 ****        17.0000  11.0000  20.7500 Du        
  11346 ****        17.0000  11.0000  21.0000 Du        
  11347 ****        17.0000  11.0000  21.2500 Du        
  11348 ****        17.0000  11.0000  21.5000 Du        
  11349 ****        17.0000  11.0000  21.7500 Du        
  11350 ****        17.0000  11.0000  22.0000 Du        
  11351 ****        17.0000  11.0000  35.7500 Du        
  11352 ****        17.0000  11.0000  36.0000 Du        
  11353 ****        17.0000  11.0000  36.2500 Du        
  11354 ****        17.0000  11.0000  36.5000 Du        
  11355 ****        17.0000  11.0000  36.7500 Du        
  11356 ****        17.0000  11.0000  37.0000 Du        
  11357 ****        17.0000  11.0000  37.2500 Du        
  11358 ****        17.0000  11.2500  20.5000 Du        
  11359 ****        17.0000  11.2500  20.7500 Du        
  11360 ****        17.0000  11.2500  21.0000 Du        
  11361 ****        17.0000  11.2500  21.2500 Du        
  11362 ****        17.0000  11.2500  21.5000 Du        
  11363 ****        17.0000  11.2500  21.7500 Du        
  11364 ****        17.0000  11.2500  22.0000 Du        
  11365 ****        17.0000  11.2500  35.7500 Du        
  11366 ****        17.0000  11.2500  36.0000 Du        
  11367 ****        17.0000  11.2500  36.2500 Du        
  11368 ****        17.0000  11.2500  36.5000 Du        
  11369 ****        17.0000  11.2500  36.7500 Du        
  11370 ****        17.0000  11.2500  37.0000 Du        
  11371 ****        17.0000  11.2500  37.2500 Du        
  11372 ****        17.0000  11.2500  37.5000 Du        
  11373 ****        17.0000  11.5000  21.0000 Du        
  11374 ****        17.0000  11.5000  21.2500 Du        
  11375 ****        17.0000  11.5000  21.5000 Du        
  11376 ****        17.0000  11.5000  21.7500 Du        
  11377 ****        17.0000  11.5000  22.0000 Du        
  11378 ****        17.0000  11.5000  35.7500 Du        
  11379 ****        17.0000  11.5000  36.0000 Du        
  11380 ****        17.0000  11.5000  36.2500 Du        
  11381 ****        17.0000  11.5000  36.5000 Du        
  11382 ****        17.0000  11.5000  36.7500 Du        
  11383 ****        17.0000  11.5000  37.0000 Du        
  11384 ****        17.0000  11.5000  37.2500 Du        
  11385 ****        17.0000  11.5000  37.5000 Du        
  11386 ****        17.0000  11.5000  37.7500 Du        
  11387 ****        17.0000  11.7500  21.2500 Du        
  11388 ****        17.0000  11.7500  21.5000 Du        
  11389 ****        17.0000  11.7500  21.7500 Du        
  11390 ****        17.0000  11.7500  22.0000 Du        
  11391 ****        17.0000  11.7500  36.0000 Du        
  11392 ****        17.0000  11.7500  36.2500 Du        
  11393 ****        17.0000  11.7500  36.5000 Du        
  11394 ****        17.0000  11.7500  36.7500 Du        
  11395 ****        17.0000  11.7500  37.0000 Du        
  11396 ****        17.0000  11.7500  37.2500 Du        
  11397 ****        17.0000  11.7500  37.5000 Du        
  11398 ****        17.0000  11.7500  37.7500 Du        
  11399 ****        17.0000  12.0000  36.2500 Du        
  11400 ****        17.0000  12.0000  36.5000 Du        
  11401 ****        17.0000  12.0000  36.7500 Du        
  11402 ****        17.0000  12.0000  37.0000 Du        
  11403 ****        17.0000  12.0000  37.2500 Du        
  11404 ****        17.0000  12.0000  37.5000 Du        
  11405 ****        17.0000  12.0000  37.7500 Du        
  11406 ****        17.0000  12.2500  36.5000 Du        
  11407 ****        17.0000  12.2500  36.7500 Du        
  11408 ****        17.0000  12.2500  37.0000 Du        
  11409 ****        17.0000  12.2500  37.2500 Du        
  11410 ****        17.0000  12.2500  37.5000 Du        
  11411 ****        17.0000  12.2500  37.7500 Du        
  11412 ****        17.0000  12.2500  38.0000 Du        
  11413 ****        17.0000  12.5000  37.0000 Du        
  11414 ****        17.0000  12.5000  37.2500 Du        
  11415 ****        17.0000  12.5000  37.5000 Du        
  11416 ****        17.0000  12.5000  37.7500 Du        
  11417 ****        17.0000  12.5000  38.0000 Du        
  11418 ****        17.0000  12.7500  37.0000 Du        
  11419 ****        17.0000  12.7500  37.2500 Du        
  11420 ****        17.0000  12.7500  37.5000 Du        
  11421 ****        17.0000  12.7500  37.7500 Du        
  11422 ****        17.0000  12.7500  38.0000 Du        
  11423 ****        17.0000  13.0000  37.2500 Du        
  11424 ****        17.0000  13.0000  37.5000 Du        
  11425 ****        17.0000  13.0000  37.7500 Du        
  11426 ****        17.0000  13.0000  38.0000 Du        
  11427 ****        17.0000  13.2500  37.5000 Du        
  11428 ****        17.0000  13.2500  37.7500 Du        
  11429 ****        17.0000  13.2500  38.0000 Du        
  11430 ****        17.0000  13.2500  38.2500 Du        
  11431 ****        17.0000  13.5000  37.7500 Du        
  11432 ****        17.0000  13.5000  38.0000 Du        
  11433 ****        17.0000  13.5000  38.2500 Du        
  11434 ****        17.0000  13.5000  38.5000 Du        
  11435 ****        17.0000  13.7500  37.7500 Du        
  11436 ****        17.0000  13.7500  38.0000 Du        
  11437 ****        17.0000  13.7500  38.2500 Du        
  11438 ****        17.0000  13.7500  38.5000 Du        
  11439 ****        17.0000  14.0000  38.0000 Du        
  11440 ****        17.0000  14.0000  38.2500 Du        
  11441 ****        17.0000  14.0000  38.5000 Du        
  11442 ****        17.0000  14.0000  38.7500 Du        
  11443 ****        17.0000  14.2500  38.2500 Du        
  11444 ****        17.0000  14.2500  38.5000 Du        
  11445 ****        17.0000  14.2500  38.7500 Du        
  11446 ****        17.0000  14.5000  38.5000 Du        
  11447 ****        17.0000  14.5000  38.7500 Du        
  11448 ****        17.0000  14.5000  39.0000 Du        
  11449 ****        17.0000  14.7500  38.5000 Du        
  11450 ****        17.0000  14.7500  38.7500 Du        
  11451 ****        17.0000  14.7500  39.0000 Du        
  11452 ****        17.0000  15.0000  32.0000 Du        
  11453 ****        17.0000  15.0000  32.2500 Du        
  11454 ****        17.0000  15.0000  38.7500 Du        
  11455 ****        17.0000  15.0000  39.0000 Du        
  11456 ****        17.0000  15.0000  39.2500 Du        
  11457 ****        17.0000  15.2500  32.0000 Du        
  11458 ****        17.0000  15.2500  32.2500 Du        
  11459 ****        17.0000  15.2500  39.2500 Du        
  11460 ****        17.0000  15.5000  32.0000 Du        
  11461 ****        17.0000  15.5000  32.2500 Du        
  11462 ****        17.0000  15.5000  32.5000 Du        
  11463 ****        17.0000  15.7500  31.7500 Du        
  11464 ****        17.0000  15.7500  32.0000 Du        
  11465 ****        17.0000  15.7500  32.2500 Du        
  11466 ****        17.0000  15.7500  32.5000 Du        
  11467 ****        17.0000  16.0000  31.7500 Du        
  11468 ****        17.0000  16.0000  32.0000 Du        
  11469 ****        17.0000  16.0000  32.2500 Du        
  11470 ****        17.0000  16.0000  32.5000 Du        
  11471 ****        17.0000  16.0000  32.7500 Du        
  11472 ****        17.0000  16.0000  40.2500 Du        
  11473 ****        17.0000  16.2500  31.7500 Du        
  11474 ****        17.0000  16.2500  32.0000 Du        
  11475 ****        17.0000  16.2500  32.2500 Du        
  11476 ****        17.0000  16.2500  32.5000 Du        
  11477 ****        17.0000  16.2500  32.7500 Du        
  11478 ****        17.0000  16.2500  33.0000 Du        
  11479 ****        17.0000  16.2500  40.2500 Du        
  11480 ****        17.0000  16.2500  41.0000 Du        
  11481 ****        17.0000  16.5000  31.7500 Du        
  11482 ****        17.0000  16.5000  32.0000 Du        
  11483 ****        17.0000  16.5000  32.2500 Du        
  11484 ****        17.0000  16.5000  32.5000 Du        
  11485 ****        17.0000  16.5000  32.7500 Du        
  11486 ****        17.0000  16.5000  33.0000 Du        
  11487 ****        17.0000  16.5000  41.5000 Du        
  11488 ****        17.0000  16.7500  31.7500 Du        
  11489 ****        17.0000  16.7500  32.0000 Du        
  11490 ****        17.0000  16.7500  32.2500 Du        
  11491 ****        17.0000  16.7500  32.5000 Du        
  11492 ****        17.0000  16.7500  32.7500 Du        
  11493 ****        17.0000  16.7500  33.0000 Du        
  11494 ****        17.0000  16.7500  41.5000 Du        
  11495 ****        17.0000  17.0000  31.7500 Du        
  11496 ****        17.0000  17.0000  32.0000 Du        
  11497 ****        17.0000  17.0000  32.2500 Du        
  11498 ****        17.0000  17.0000  32.5000 Du        
  11499 ****        17.0000  17.0000  32.7500 Du        
  11500 ****        17.0000  17.0000  33.0000 Du        
  11501 ****        17.0000  17.0000  33.2500 Du        
  11502 ****        17.0000  17.2500  31.7500 Du        
  11503 ****        17.0000  17.2500  32.0000 Du        
  11504 ****        17.0000  17.2500  32.2500 Du        
  11505 ****        17.0000  17.2500  32.5000 Du        
  11506 ****        17.0000  17.2500  32.7500 Du        
  11507 ****        17.0000  17.2500  33.0000 Du        
  11508 ****        17.0000  17.2500  33.2500 Du        
  11509 ****        17.0000  17.5000  31.7500 Du        
  11510 ****        17.0000  17.5000  32.0000 Du        
  11511 ****        17.0000  17.5000  32.2500 Du        
  11512 ****        17.0000  17.5000  32.5000 Du        
  11513 ****        17.0000  17.5000  32.7500 Du        
  11514 ****        17.0000  17.5000  33.0000 Du        
  11515 ****        17.0000  17.5000  33.2500 Du        
  11516 ****        17.0000  17.7500  32.0000 Du        
  11517 ****        17.0000  17.7500  32.2500 Du        
  11518 ****        17.0000  17.7500  32.5000 Du        
  11519 ****        17.0000  17.7500  32.7500 Du        
  11520 ****        17.0000  17.7500  33.0000 Du        
  11521 ****        17.0000  17.7500  33.2500 Du        
  11522 ****        17.0000  17.7500  33.5000 Du        
  11523 ****        17.0000  18.0000  32.5000 Du        
  11524 ****        17.0000  18.0000  32.7500 Du        
  11525 ****        17.0000  18.0000  33.0000 Du        
  11526 ****        17.0000  18.0000  33.2500 Du        
  11527 ****        17.0000  18.0000  33.5000 Du        
  11528 ****        17.0000  18.0000  33.7500 Du        
  11529 ****        17.0000  18.2500  33.0000 Du        
  11530 ****        17.0000  18.2500  33.2500 Du        
  11531 ****        17.0000  18.2500  33.5000 Du        
  11532 ****        17.0000  18.2500  33.7500 Du        
  11533 ****        17.0000  18.2500  34.0000 Du        
  11534 ****        17.0000  18.2500  44.5000 Du        
  11535 ****        17.0000  18.2500  44.7500 Du        
  11536 ****        17.0000  18.5000  33.5000 Du        
  11537 ****        17.0000  18.5000  33.7500 Du        
  11538 ****        17.0000  18.5000  34.0000 Du        
  11539 ****        17.0000  18.5000  34.2500 Du        
  11540 ****        17.0000  18.7500  33.7500 Du        
  11541 ****        17.0000  18.7500  34.0000 Du        
  11542 ****        17.0000  18.7500  34.2500 Du        
  11543 ****        17.0000  18.7500  44.5000 Du        
  11544 ****        17.0000  19.0000  44.5000 Du        
  11545 ****        17.2500 -18.2500  34.0000 Du        
  11546 ****        17.2500 -18.0000  34.0000 Du        
  11547 ****        17.2500 -17.5000  33.7500 Du        
  11548 ****        17.2500  -4.0000  26.7500 Du        
  11549 ****        17.2500  -3.7500  26.7500 Du        
  11550 ****        17.2500  -3.7500  27.0000 Du        
  11551 ****        17.2500  -3.5000  26.5000 Du        
  11552 ****        17.2500  -3.5000  26.7500 Du        
  11553 ****        17.2500  -3.5000  27.0000 Du        
  11554 ****        17.2500  -3.2500  26.5000 Du        
  11555 ****        17.2500  -3.2500  26.7500 Du        
  11556 ****        17.2500  -3.2500  27.0000 Du        
  11557 ****        17.2500  -3.2500  27.2500 Du        
  11558 ****        17.2500  -3.0000  26.5000 Du        
  11559 ****        17.2500  -3.0000  26.7500 Du        
  11560 ****        17.2500  -3.0000  27.0000 Du        
  11561 ****        17.2500   1.5000  21.0000 Du        
  11562 ****        17.2500   1.5000  21.2500 Du        
  11563 ****        17.2500   1.7500  20.7500 Du        
  11564 ****        17.2500   1.7500  21.0000 Du        
  11565 ****        17.2500   1.7500  21.2500 Du        
  11566 ****        17.2500   1.7500  21.5000 Du        
  11567 ****        17.2500   1.7500  21.7500 Du        
  11568 ****        17.2500   2.0000  21.0000 Du        
  11569 ****        17.2500   2.0000  21.2500 Du        
  11570 ****        17.2500   2.0000  21.5000 Du        
  11571 ****        17.2500   2.0000  21.7500 Du        
  11572 ****        17.2500   2.0000  22.0000 Du        
  11573 ****        17.2500   2.0000  29.2500 Du        
  11574 ****        17.2500   2.0000  29.5000 Du        
  11575 ****        17.2500   2.2500  21.0000 Du        
  11576 ****        17.2500   2.2500  21.2500 Du        
  11577 ****        17.2500   2.2500  21.5000 Du        
  11578 ****        17.2500   2.2500  21.7500 Du        
  11579 ****        17.2500   2.2500  22.0000 Du        
  11580 ****        17.2500   2.2500  22.2500 Du        
  11581 ****        17.2500   2.2500  29.0000 Du        
  11582 ****        17.2500   2.2500  29.2500 Du        
  11583 ****        17.2500   2.2500  29.5000 Du        
  11584 ****        17.2500   2.2500  29.7500 Du        
  11585 ****        17.2500   2.5000  21.0000 Du        
  11586 ****        17.2500   2.5000  21.2500 Du        
  11587 ****        17.2500   2.5000  21.5000 Du        
  11588 ****        17.2500   2.5000  21.7500 Du        
  11589 ****        17.2500   2.5000  22.0000 Du        
  11590 ****        17.2500   2.5000  22.2500 Du        
  11591 ****        17.2500   2.5000  22.5000 Du        
  11592 ****        17.2500   2.5000  29.0000 Du        
  11593 ****        17.2500   2.5000  29.2500 Du        
  11594 ****        17.2500   2.5000  29.5000 Du        
  11595 ****        17.2500   2.5000  29.7500 Du        
  11596 ****        17.2500   2.5000  30.0000 Du        
  11597 ****        17.2500   2.7500  21.2500 Du        
  11598 ****        17.2500   2.7500  21.5000 Du        
  11599 ****        17.2500   2.7500  21.7500 Du        
  11600 ****        17.2500   2.7500  22.0000 Du        
  11601 ****        17.2500   2.7500  22.2500 Du        
  11602 ****        17.2500   2.7500  29.0000 Du        
  11603 ****        17.2500   2.7500  29.2500 Du        
  11604 ****        17.2500   2.7500  29.5000 Du        
  11605 ****        17.2500   2.7500  29.7500 Du        
  11606 ****        17.2500   2.7500  30.0000 Du        
  11607 ****        17.2500   3.0000  29.0000 Du        
  11608 ****        17.2500   3.0000  29.2500 Du        
  11609 ****        17.2500   3.0000  29.5000 Du        
  11610 ****        17.2500   3.0000  29.7500 Du        
  11611 ****        17.2500   3.0000  30.0000 Du        
  11612 ****        17.2500   3.0000  30.2500 Du        
  11613 ****        17.2500   3.2500  29.0000 Du        
  11614 ****        17.2500   3.2500  29.2500 Du        
  11615 ****        17.2500   3.2500  29.5000 Du        
  11616 ****        17.2500   3.2500  29.7500 Du        
  11617 ****        17.2500   3.2500  30.0000 Du        
  11618 ****        17.2500   3.2500  30.2500 Du        
  11619 ****        17.2500   3.2500  30.5000 Du        
  11620 ****        17.2500   3.5000  29.2500 Du        
  11621 ****        17.2500   3.5000  29.5000 Du        
  11622 ****        17.2500   3.5000  29.7500 Du        
  11623 ****        17.2500   3.5000  30.0000 Du        
  11624 ****        17.2500   3.5000  30.2500 Du        
  11625 ****        17.2500   3.5000  30.5000 Du        
  11626 ****        17.2500   3.5000  30.7500 Du        
  11627 ****        17.2500   3.5000  31.0000 Du        
  11628 ****        17.2500   3.7500  29.7500 Du        
  11629 ****        17.2500   3.7500  30.0000 Du        
  11630 ****        17.2500   3.7500  30.2500 Du        
  11631 ****        17.2500   3.7500  30.5000 Du        
  11632 ****        17.2500   3.7500  30.7500 Du        
  11633 ****        17.2500   3.7500  31.0000 Du        
  11634 ****        17.2500   3.7500  31.2500 Du        
  11635 ****        17.2500   3.7500  31.5000 Du        
  11636 ****        17.2500   3.7500  31.7500 Du        
  11637 ****        17.2500   4.0000  30.0000 Du        
  11638 ****        17.2500   4.0000  30.2500 Du        
  11639 ****        17.2500   4.0000  30.5000 Du        
  11640 ****        17.2500   4.0000  30.7500 Du        
  11641 ****        17.2500   4.0000  31.0000 Du        
  11642 ****        17.2500   4.0000  31.2500 Du        
  11643 ****        17.2500   4.0000  31.5000 Du        
  11644 ****        17.2500   4.0000  31.7500 Du        
  11645 ****        17.2500   4.0000  32.0000 Du        
  11646 ****        17.2500   4.2500  30.5000 Du        
  11647 ****        17.2500   4.2500  30.7500 Du        
  11648 ****        17.2500   4.2500  31.0000 Du        
  11649 ****        17.2500   4.2500  31.2500 Du        
  11650 ****        17.2500   4.2500  31.5000 Du        
  11651 ****        17.2500   4.2500  31.7500 Du        
  11652 ****        17.2500   4.2500  32.0000 Du        
  11653 ****        17.2500   4.5000  31.2500 Du        
  11654 ****        17.2500   4.5000  31.5000 Du        
  11655 ****        17.2500   4.5000  31.7500 Du        
  11656 ****        17.2500   4.5000  32.0000 Du        
  11657 ****        17.2500   6.7500  26.5000 Du        
  11658 ****        17.2500   6.7500  26.7500 Du        
  11659 ****        17.2500   7.0000  26.5000 Du        
  11660 ****        17.2500   7.0000  26.7500 Du        
  11661 ****        17.2500   7.0000  27.0000 Du        
  11662 ****        17.2500   7.2500  26.5000 Du        
  11663 ****        17.2500   7.2500  26.7500 Du        
  11664 ****        17.2500  10.2500  35.7500 Du        
  11665 ****        17.2500  10.2500  36.0000 Du        
  11666 ****        17.2500  10.2500  36.2500 Du        
  11667 ****        17.2500  10.5000  35.7500 Du        
  11668 ****        17.2500  10.5000  36.0000 Du        
  11669 ****        17.2500  10.5000  36.2500 Du        
  11670 ****        17.2500  10.5000  36.5000 Du        
  11671 ****        17.2500  10.7500  35.7500 Du        
  11672 ****        17.2500  10.7500  36.0000 Du        
  11673 ****        17.2500  10.7500  36.2500 Du        
  11674 ****        17.2500  10.7500  36.5000 Du        
  11675 ****        17.2500  10.7500  36.7500 Du        
  11676 ****        17.2500  11.0000  20.7500 Du        
  11677 ****        17.2500  11.0000  35.7500 Du        
  11678 ****        17.2500  11.0000  36.0000 Du        
  11679 ****        17.2500  11.0000  36.2500 Du        
  11680 ****        17.2500  11.0000  36.5000 Du        
  11681 ****        17.2500  11.0000  36.7500 Du        
  11682 ****        17.2500  11.0000  37.0000 Du        
  11683 ****        17.2500  11.2500  20.7500 Du        
  11684 ****        17.2500  11.2500  21.0000 Du        
  11685 ****        17.2500  11.2500  21.2500 Du        
  11686 ****        17.2500  11.2500  21.5000 Du        
  11687 ****        17.2500  11.2500  21.7500 Du        
  11688 ****        17.2500  11.2500  22.0000 Du        
  11689 ****        17.2500  11.2500  35.7500 Du        
  11690 ****        17.2500  11.2500  36.0000 Du        
  11691 ****        17.2500  11.2500  36.2500 Du        
  11692 ****        17.2500  11.2500  36.5000 Du        
  11693 ****        17.2500  11.2500  36.7500 Du        
  11694 ****        17.2500  11.2500  37.0000 Du        
  11695 ****        17.2500  11.2500  37.2500 Du        
  11696 ****        17.2500  11.5000  21.0000 Du        
  11697 ****        17.2500  11.5000  21.2500 Du        
  11698 ****        17.2500  11.5000  21.5000 Du        
  11699 ****        17.2500  11.5000  21.7500 Du        
  11700 ****        17.2500  11.5000  22.0000 Du        
  11701 ****        17.2500  11.5000  35.7500 Du        
  11702 ****        17.2500  11.5000  36.0000 Du        
  11703 ****        17.2500  11.5000  36.2500 Du        
  11704 ****        17.2500  11.5000  36.5000 Du        
  11705 ****        17.2500  11.5000  36.7500 Du        
  11706 ****        17.2500  11.5000  37.0000 Du        
  11707 ****        17.2500  11.5000  37.2500 Du        
  11708 ****        17.2500  11.5000  37.5000 Du        
  11709 ****        17.2500  11.7500  21.5000 Du        
  11710 ****        17.2500  11.7500  21.7500 Du        
  11711 ****        17.2500  11.7500  22.0000 Du        
  11712 ****        17.2500  11.7500  36.0000 Du        
  11713 ****        17.2500  11.7500  36.2500 Du        
  11714 ****        17.2500  11.7500  36.5000 Du        
  11715 ****        17.2500  11.7500  36.7500 Du        
  11716 ****        17.2500  11.7500  37.0000 Du        
  11717 ****        17.2500  11.7500  37.2500 Du        
  11718 ****        17.2500  11.7500  37.5000 Du        
  11719 ****        17.2500  11.7500  37.7500 Du        
  11720 ****        17.2500  12.0000  36.0000 Du        
  11721 ****        17.2500  12.0000  36.2500 Du        
  11722 ****        17.2500  12.0000  36.5000 Du        
  11723 ****        17.2500  12.0000  36.7500 Du        
  11724 ****        17.2500  12.0000  37.0000 Du        
  11725 ****        17.2500  12.0000  37.2500 Du        
  11726 ****        17.2500  12.0000  37.5000 Du        
  11727 ****        17.2500  12.0000  37.7500 Du        
  11728 ****        17.2500  12.2500  36.5000 Du        
  11729 ****        17.2500  12.2500  36.7500 Du        
  11730 ****        17.2500  12.2500  37.0000 Du        
  11731 ****        17.2500  12.2500  37.2500 Du        
  11732 ****        17.2500  12.2500  37.5000 Du        
  11733 ****        17.2500  12.2500  37.7500 Du        
  11734 ****        17.2500  12.2500  38.0000 Du        
  11735 ****        17.2500  12.5000  37.0000 Du        
  11736 ****        17.2500  12.5000  37.2500 Du        
  11737 ****        17.2500  12.5000  37.5000 Du        
  11738 ****        17.2500  12.5000  37.7500 Du        
  11739 ****        17.2500  12.5000  38.0000 Du        
  11740 ****        17.2500  12.7500  37.0000 Du        
  11741 ****        17.2500  12.7500  37.2500 Du        
  11742 ****        17.2500  12.7500  37.5000 Du        
  11743 ****        17.2500  12.7500  37.7500 Du        
  11744 ****        17.2500  12.7500  38.0000 Du        
  11745 ****        17.2500  13.0000  37.2500 Du        
  11746 ****        17.2500  13.0000  37.5000 Du        
  11747 ****        17.2500  13.0000  37.7500 Du        
  11748 ****        17.2500  13.0000  38.0000 Du        
  11749 ****        17.2500  13.0000  38.2500 Du        
  11750 ****        17.2500  13.2500  37.7500 Du        
  11751 ****        17.2500  13.2500  38.0000 Du        
  11752 ****        17.2500  13.2500  38.2500 Du        
  11753 ****        17.2500  13.5000  38.0000 Du        
  11754 ****        17.2500  13.5000  38.2500 Du        
  11755 ****        17.2500  13.5000  38.5000 Du        
  11756 ****        17.2500  13.7500  38.0000 Du        
  11757 ****        17.2500  13.7500  38.2500 Du        
  11758 ****        17.2500  13.7500  38.5000 Du        
  11759 ****        17.2500  13.7500  38.7500 Du        
  11760 ****        17.2500  14.0000  38.2500 Du        
  11761 ****        17.2500  14.0000  38.5000 Du        
  11762 ****        17.2500  14.0000  38.7500 Du        
  11763 ****        17.2500  14.2500  38.5000 Du        
  11764 ****        17.2500  14.2500  38.7500 Du        
  11765 ****        17.2500  14.2500  39.0000 Du        
  11766 ****        17.2500  14.5000  38.7500 Du        
  11767 ****        17.2500  14.5000  39.0000 Du        
  11768 ****        17.2500  14.7500  32.2500 Du        
  11769 ****        17.2500  14.7500  38.7500 Du        
  11770 ****        17.2500  14.7500  39.0000 Du        
  11771 ****        17.2500  14.7500  39.2500 Du        
  11772 ****        17.2500  15.0000  32.0000 Du        
  11773 ****        17.2500  15.0000  32.2500 Du        
  11774 ****        17.2500  15.0000  32.5000 Du        
  11775 ****        17.2500  15.0000  39.0000 Du        
  11776 ****        17.2500  15.0000  39.2500 Du        
  11777 ****        17.2500  15.2500  32.0000 Du        
  11778 ****        17.2500  15.2500  32.2500 Du        
  11779 ****        17.2500  15.2500  32.5000 Du        
  11780 ****        17.2500  15.2500  32.7500 Du        
  11781 ****        17.2500  15.2500  39.2500 Du        
  11782 ****        17.2500  15.5000  32.0000 Du        
  11783 ****        17.2500  15.5000  32.2500 Du        
  11784 ****        17.2500  15.5000  32.5000 Du        
  11785 ****        17.2500  15.5000  32.7500 Du        
  11786 ****        17.2500  15.7500  31.7500 Du        
  11787 ****        17.2500  15.7500  32.0000 Du        
  11788 ****        17.2500  15.7500  32.2500 Du        
  11789 ****        17.2500  15.7500  32.5000 Du        
  11790 ****        17.2500  15.7500  32.7500 Du        
  11791 ****        17.2500  15.7500  33.0000 Du        
  11792 ****        17.2500  15.7500  44.5000 Du        
  11793 ****        17.2500  15.7500  44.7500 Du        
  11794 ****        17.2500  15.7500  45.0000 Du        
  11795 ****        17.2500  16.0000  31.7500 Du        
  11796 ****        17.2500  16.0000  32.0000 Du        
  11797 ****        17.2500  16.0000  32.2500 Du        
  11798 ****        17.2500  16.0000  32.5000 Du        
  11799 ****        17.2500  16.0000  32.7500 Du        
  11800 ****        17.2500  16.0000  33.0000 Du        
  11801 ****        17.2500  16.0000  40.5000 Du        
  11802 ****        17.2500  16.0000  44.5000 Du        
  11803 ****        17.2500  16.0000  44.7500 Du        
  11804 ****        17.2500  16.0000  45.0000 Du        
  11805 ****        17.2500  16.0000  45.2500 Du        
  11806 ****        17.2500  16.2500  31.7500 Du        
  11807 ****        17.2500  16.2500  32.0000 Du        
  11808 ****        17.2500  16.2500  32.2500 Du        
  11809 ****        17.2500  16.2500  32.5000 Du        
  11810 ****        17.2500  16.2500  32.7500 Du        
  11811 ****        17.2500  16.2500  33.0000 Du        
  11812 ****        17.2500  16.2500  44.5000 Du        
  11813 ****        17.2500  16.2500  44.7500 Du        
  11814 ****        17.2500  16.2500  45.0000 Du        
  11815 ****        17.2500  16.2500  45.2500 Du        
  11816 ****        17.2500  16.5000  31.7500 Du        
  11817 ****        17.2500  16.5000  32.0000 Du        
  11818 ****        17.2500  16.5000  32.2500 Du        
  11819 ****        17.2500  16.5000  32.5000 Du        
  11820 ****        17.2500  16.5000  32.7500 Du        
  11821 ****        17.2500  16.5000  33.0000 Du        
  11822 ****        17.2500  16.5000  33.2500 Du        
  11823 ****        17.2500  16.5000  44.7500 Du        
  11824 ****        17.2500  16.5000  45.0000 Du        
  11825 ****        17.2500  16.5000  45.2500 Du        
  11826 ****        17.2500  16.7500  31.7500 Du        
  11827 ****        17.2500  16.7500  32.0000 Du        
  11828 ****        17.2500  16.7500  32.2500 Du        
  11829 ****        17.2500  16.7500  32.5000 Du        
  11830 ****        17.2500  16.7500  32.7500 Du        
  11831 ****        17.2500  16.7500  33.0000 Du        
  11832 ****        17.2500  16.7500  33.2500 Du        
  11833 ****        17.2500  16.7500  44.7500 Du        
  11834 ****        17.2500  16.7500  45.0000 Du        
  11835 ****        17.2500  16.7500  45.2500 Du        
  11836 ****        17.2500  17.0000  31.7500 Du        
  11837 ****        17.2500  17.0000  32.0000 Du        
  11838 ****        17.2500  17.0000  32.2500 Du        
  11839 ****        17.2500  17.0000  32.5000 Du        
  11840 ****        17.2500  17.0000  32.7500 Du        
  11841 ****        17.2500  17.0000  33.0000 Du        
  11842 ****        17.2500  17.0000  33.2500 Du        
  11843 ****        17.2500  17.0000  44.7500 Du        
  11844 ****        17.2500  17.0000  45.0000 Du        
  11845 ****        17.2500  17.0000  45.2500 Du        
  11846 ****        17.2500  17.2500  31.7500 Du        
  11847 ****        17.2500  17.2500  32.0000 Du        
  11848 ****        17.2500  17.2500  32.2500 Du        
  11849 ****        17.2500  17.2500  32.5000 Du        
  11850 ****        17.2500  17.2500  32.7500 Du        
  11851 ****        17.2500  17.2500  33.0000 Du        
  11852 ****        17.2500  17.2500  33.2500 Du        
  11853 ****        17.2500  17.2500  33.5000 Du        
  11854 ****        17.2500  17.2500  44.5000 Du        
  11855 ****        17.2500  17.2500  44.7500 Du        
  11856 ****        17.2500  17.2500  45.0000 Du        
  11857 ****        17.2500  17.2500  45.2500 Du        
  11858 ****        17.2500  17.5000  32.0000 Du        
  11859 ****        17.2500  17.5000  32.2500 Du        
  11860 ****        17.2500  17.5000  32.5000 Du        
  11861 ****        17.2500  17.5000  32.7500 Du        
  11862 ****        17.2500  17.5000  33.0000 Du        
  11863 ****        17.2500  17.5000  33.2500 Du        
  11864 ****        17.2500  17.5000  44.7500 Du        
  11865 ****        17.2500  17.5000  45.0000 Du        
  11866 ****        17.2500  17.5000  45.2500 Du        
  11867 ****        17.2500  17.7500  32.5000 Du        
  11868 ****        17.2500  17.7500  32.7500 Du        
  11869 ****        17.2500  17.7500  33.0000 Du        
  11870 ****        17.2500  17.7500  33.2500 Du        
  11871 ****        17.2500  17.7500  44.5000 Du        
  11872 ****        17.2500  17.7500  44.7500 Du        
  11873 ****        17.2500  17.7500  45.0000 Du        
  11874 ****        17.2500  17.7500  45.2500 Du        
  11875 ****        17.2500  18.0000  32.7500 Du        
  11876 ****        17.2500  18.0000  33.0000 Du        
  11877 ****        17.2500  18.0000  33.2500 Du        
  11878 ****        17.2500  18.0000  33.5000 Du        
  11879 ****        17.2500  18.0000  33.7500 Du        
  11880 ****        17.2500  18.0000  44.0000 Du        
  11881 ****        17.2500  18.0000  44.2500 Du        
  11882 ****        17.2500  18.0000  44.5000 Du        
  11883 ****        17.2500  18.0000  44.7500 Du        
  11884 ****        17.2500  18.0000  45.0000 Du        
  11885 ****        17.2500  18.0000  45.2500 Du        
  11886 ****        17.2500  18.2500  44.0000 Du        
  11887 ****        17.2500  18.2500  44.2500 Du        
  11888 ****        17.2500  18.2500  44.5000 Du        
  11889 ****        17.2500  18.2500  44.7500 Du        
  11890 ****        17.2500  18.2500  45.0000 Du        
  11891 ****        17.2500  18.2500  45.2500 Du        
  11892 ****        17.2500  18.5000  44.2500 Du        
  11893 ****        17.2500  18.5000  44.5000 Du        
  11894 ****        17.2500  18.5000  44.7500 Du        
  11895 ****        17.2500  18.5000  45.0000 Du        
  11896 ****        17.2500  18.7500  44.0000 Du        
  11897 ****        17.2500  18.7500  44.2500 Du        
  11898 ****        17.2500  18.7500  44.5000 Du        
  11899 ****        17.2500  18.7500  44.7500 Du        
  11900 ****        17.2500  18.7500  45.0000 Du        
  11901 ****        17.2500  19.0000  44.0000 Du        
  11902 ****        17.2500  19.0000  44.2500 Du        
  11903 ****        17.2500  19.0000  44.5000 Du        
  11904 ****        17.2500  19.0000  44.7500 Du        
  11905 ****        17.2500  19.0000  45.0000 Du        
  11906 ****        17.2500  19.2500  44.5000 Du        
  11907 ****        17.5000 -18.2500  34.0000 Du        
  11908 ****        17.5000 -18.2500  34.2500 Du        
  11909 ****        17.5000 -18.0000  34.0000 Du        
  11910 ****        17.5000 -17.7500  34.0000 Du        
  11911 ****        17.5000  -3.5000  26.7500 Du        
  11912 ****        17.5000  -3.2500  26.7500 Du        
  11913 ****        17.5000  -3.2500  27.0000 Du        
  11914 ****        17.5000  -3.0000  26.7500 Du        
  11915 ****        17.5000  -3.0000  27.0000 Du        
  11916 ****        17.5000   1.5000  21.0000 Du        
  11917 ****        17.5000   1.5000  21.2500 Du        
  11918 ****        17.5000   1.5000  21.5000 Du        
  11919 ****        17.5000   1.5000  21.7500 Du        
  11920 ****        17.5000   1.7500  21.0000 Du        
  11921 ****        17.5000   1.7500  21.2500 Du        
  11922 ****        17.5000   1.7500  21.5000 Du        
  11923 ****        17.5000   1.7500  21.7500 Du        
  11924 ****        17.5000   1.7500  22.0000 Du        
  11925 ****        17.5000   2.0000  21.0000 Du        
  11926 ****        17.5000   2.0000  21.2500 Du        
  11927 ****        17.5000   2.0000  21.5000 Du        
  11928 ****        17.5000   2.0000  21.7500 Du        
  11929 ****        17.5000   2.0000  22.0000 Du        
  11930 ****        17.5000   2.0000  22.2500 Du        
  11931 ****        17.5000   2.0000  22.5000 Du        
  11932 ****        17.5000   2.0000  29.2500 Du        
  11933 ****        17.5000   2.0000  29.5000 Du        
  11934 ****        17.5000   2.2500  21.2500 Du        
  11935 ****        17.5000   2.2500  21.5000 Du        
  11936 ****        17.5000   2.2500  21.7500 Du        
  11937 ****        17.5000   2.2500  22.0000 Du        
  11938 ****        17.5000   2.2500  22.2500 Du        
  11939 ****        17.5000   2.2500  22.5000 Du        
  11940 ****        17.5000   2.2500  22.7500 Du        
  11941 ****        17.5000   2.2500  29.0000 Du        
  11942 ****        17.5000   2.2500  29.2500 Du        
  11943 ****        17.5000   2.2500  29.5000 Du        
  11944 ****        17.5000   2.2500  29.7500 Du        
  11945 ****        17.5000   2.5000  21.2500 Du        
  11946 ****        17.5000   2.5000  21.5000 Du        
  11947 ****        17.5000   2.5000  21.7500 Du        
  11948 ****        17.5000   2.5000  22.0000 Du        
  11949 ****        17.5000   2.5000  22.2500 Du        
  11950 ****        17.5000   2.5000  22.5000 Du        
  11951 ****        17.5000   2.5000  22.7500 Du        
  11952 ****        17.5000   2.5000  23.0000 Du        
  11953 ****        17.5000   2.5000  29.0000 Du        
  11954 ****        17.5000   2.5000  29.2500 Du        
  11955 ****        17.5000   2.5000  29.5000 Du        
  11956 ****        17.5000   2.5000  29.7500 Du        
  11957 ****        17.5000   2.7500  21.5000 Du        
  11958 ****        17.5000   2.7500  21.7500 Du        
  11959 ****        17.5000   2.7500  22.0000 Du        
  11960 ****        17.5000   2.7500  22.2500 Du        
  11961 ****        17.5000   2.7500  22.5000 Du        
  11962 ****        17.5000   2.7500  22.7500 Du        
  11963 ****        17.5000   2.7500  23.0000 Du        
  11964 ****        17.5000   2.7500  29.0000 Du        
  11965 ****        17.5000   2.7500  29.2500 Du        
  11966 ****        17.5000   2.7500  29.5000 Du        
  11967 ****        17.5000   2.7500  29.7500 Du        
  11968 ****        17.5000   2.7500  30.0000 Du        
  11969 ****        17.5000   3.0000  22.2500 Du        
  11970 ****        17.5000   3.0000  22.5000 Du        
  11971 ****        17.5000   3.0000  22.7500 Du        
  11972 ****        17.5000   3.0000  29.0000 Du        
  11973 ****        17.5000   3.0000  29.2500 Du        
  11974 ****        17.5000   3.0000  29.5000 Du        
  11975 ****        17.5000   3.0000  29.7500 Du        
  11976 ****        17.5000   3.0000  30.0000 Du        
  11977 ****        17.5000   3.0000  30.2500 Du        
  11978 ****        17.5000   3.2500  29.0000 Du        
  11979 ****        17.5000   3.2500  29.2500 Du        
  11980 ****        17.5000   3.2500  29.5000 Du        
  11981 ****        17.5000   3.2500  29.7500 Du        
  11982 ****        17.5000   3.2500  30.0000 Du        
  11983 ****        17.5000   3.2500  30.2500 Du        
  11984 ****        17.5000   3.2500  30.5000 Du        
  11985 ****        17.5000   3.2500  30.7500 Du        
  11986 ****        17.5000   3.5000  29.2500 Du        
  11987 ****        17.5000   3.5000  29.5000 Du        
  11988 ****        17.5000   3.5000  29.7500 Du        
  11989 ****        17.5000   3.5000  30.0000 Du        
  11990 ****        17.5000   3.5000  30.2500 Du        
  11991 ****        17.5000   3.5000  30.5000 Du        
  11992 ****        17.5000   3.5000  30.7500 Du        
  11993 ****        17.5000   3.5000  31.0000 Du        
  11994 ****        17.5000   3.7500  29.5000 Du        
  11995 ****        17.5000   3.7500  29.7500 Du        
  11996 ****        17.5000   3.7500  30.0000 Du        
  11997 ****        17.5000   3.7500  30.2500 Du        
  11998 ****        17.5000   3.7500  30.5000 Du        
  11999 ****        17.5000   3.7500  30.7500 Du        
  12000 ****        17.5000   3.7500  31.0000 Du        
  12001 ****        17.5000   3.7500  31.2500 Du        
  12002 ****        17.5000   3.7500  31.5000 Du        
  12003 ****        17.5000   3.7500  31.7500 Du        
  12004 ****        17.5000   3.7500  32.0000 Du        
  12005 ****        17.5000   4.0000  30.0000 Du        
  12006 ****        17.5000   4.0000  30.2500 Du        
  12007 ****        17.5000   4.0000  30.5000 Du        
  12008 ****        17.5000   4.0000  30.7500 Du        
  12009 ****        17.5000   4.0000  31.0000 Du        
  12010 ****        17.5000   4.0000  31.2500 Du        
  12011 ****        17.5000   4.0000  31.5000 Du        
  12012 ****        17.5000   4.0000  31.7500 Du        
  12013 ****        17.5000   4.0000  32.0000 Du        
  12014 ****        17.5000   4.0000  32.2500 Du        
  12015 ****        17.5000   4.2500  30.5000 Du        
  12016 ****        17.5000   4.2500  30.7500 Du        
  12017 ****        17.5000   4.2500  31.0000 Du        
  12018 ****        17.5000   4.2500  31.2500 Du        
  12019 ****        17.5000   4.2500  31.5000 Du        
  12020 ****        17.5000   4.2500  31.7500 Du        
  12021 ****        17.5000   4.2500  32.0000 Du        
  12022 ****        17.5000   4.2500  32.2500 Du        
  12023 ****        17.5000   4.5000  31.0000 Du        
  12024 ****        17.5000   4.5000  31.2500 Du        
  12025 ****        17.5000   4.5000  31.5000 Du        
  12026 ****        17.5000   4.5000  31.7500 Du        
  12027 ****        17.5000   4.5000  32.0000 Du        
  12028 ****        17.5000   4.7500  31.2500 Du        
  12029 ****        17.5000   4.7500  31.5000 Du        
  12030 ****        17.5000   4.7500  31.7500 Du        
  12031 ****        17.5000   4.7500  32.0000 Du        
  12032 ****        17.5000   5.7500  26.2500 Du        
  12033 ****        17.5000   6.0000  26.2500 Du        
  12034 ****        17.5000   6.0000  26.5000 Du        
  12035 ****        17.5000   6.2500  26.2500 Du        
  12036 ****        17.5000   6.2500  26.5000 Du        
  12037 ****        17.5000   6.2500  26.7500 Du        
  12038 ****        17.5000   6.5000  26.5000 Du        
  12039 ****        17.5000   6.5000  26.7500 Du        
  12040 ****        17.5000   6.7500  26.5000 Du        
  12041 ****        17.5000   6.7500  26.7500 Du        
  12042 ****        17.5000   6.7500  27.0000 Du        
  12043 ****        17.5000   7.0000  26.5000 Du        
  12044 ****        17.5000   7.0000  26.7500 Du        
  12045 ****        17.5000  10.2500  35.7500 Du        
  12046 ****        17.5000  10.2500  36.0000 Du        
  12047 ****        17.5000  10.5000  35.7500 Du        
  12048 ****        17.5000  10.5000  36.0000 Du        
  12049 ****        17.5000  10.5000  36.2500 Du        
  12050 ****        17.5000  10.7500  35.7500 Du        
  12051 ****        17.5000  10.7500  36.0000 Du        
  12052 ****        17.5000  10.7500  36.2500 Du        
  12053 ****        17.5000  10.7500  36.5000 Du        
  12054 ****        17.5000  11.0000  35.7500 Du        
  12055 ****        17.5000  11.0000  36.0000 Du        
  12056 ****        17.5000  11.0000  36.2500 Du        
  12057 ****        17.5000  11.0000  36.5000 Du        
  12058 ****        17.5000  11.0000  36.7500 Du        
  12059 ****        17.5000  11.2500  35.7500 Du        
  12060 ****        17.5000  11.2500  36.0000 Du        
  12061 ****        17.5000  11.2500  36.2500 Du        
  12062 ****        17.5000  11.2500  36.5000 Du        
  12063 ****        17.5000  11.2500  36.7500 Du        
  12064 ****        17.5000  11.2500  37.0000 Du        
  12065 ****        17.5000  11.5000  36.0000 Du        
  12066 ****        17.5000  11.5000  36.2500 Du        
  12067 ****        17.5000  11.5000  36.7500 Du        
  12068 ****        17.5000  11.5000  37.0000 Du        
  12069 ****        17.5000  11.5000  37.2500 Du        
  12070 ****        17.5000  11.7500  36.2500 Du        
  12071 ****        17.5000  11.7500  36.7500 Du        
  12072 ****        17.5000  11.7500  37.0000 Du        
  12073 ****        17.5000  11.7500  37.2500 Du        
  12074 ****        17.5000  11.7500  37.5000 Du        
  12075 ****        17.5000  12.0000  37.0000 Du        
  12076 ****        17.5000  12.0000  37.2500 Du        
  12077 ****        17.5000  12.0000  37.5000 Du        
  12078 ****        17.5000  12.0000  37.7500 Du        
  12079 ****        17.5000  12.2500  37.2500 Du        
  12080 ****        17.5000  12.2500  37.5000 Du        
  12081 ****        17.5000  12.2500  37.7500 Du        
  12082 ****        17.5000  13.0000  38.0000 Du        
  12083 ****        17.5000  13.2500  38.2500 Du        
  12084 ****        17.5000  13.5000  38.0000 Du        
  12085 ****        17.5000  13.5000  38.2500 Du        
  12086 ****        17.5000  13.5000  38.5000 Du        
  12087 ****        17.5000  13.7500  38.2500 Du        
  12088 ****        17.5000  13.7500  38.5000 Du        
  12089 ****        17.5000  14.0000  38.2500 Du        
  12090 ****        17.5000  14.0000  38.5000 Du        
  12091 ****        17.5000  14.0000  38.7500 Du        
  12092 ****        17.5000  14.2500  38.7500 Du        
  12093 ****        17.5000  14.7500  32.2500 Du        
  12094 ****        17.5000  14.7500  32.5000 Du        
  12095 ****        17.5000  14.7500  32.7500 Du        
  12096 ****        17.5000  15.0000  32.0000 Du        
  12097 ****        17.5000  15.0000  32.2500 Du        
  12098 ****        17.5000  15.0000  32.5000 Du        
  12099 ****        17.5000  15.0000  32.7500 Du        
  12100 ****        17.5000  15.2500  32.0000 Du        
  12101 ****        17.5000  15.2500  32.2500 Du        
  12102 ****        17.5000  15.2500  32.5000 Du        
  12103 ****        17.5000  15.2500  32.7500 Du        
  12104 ****        17.5000  15.2500  33.0000 Du        
  12105 ****        17.5000  15.5000  32.0000 Du        
  12106 ****        17.5000  15.5000  32.2500 Du        
  12107 ****        17.5000  15.5000  32.5000 Du        
  12108 ****        17.5000  15.5000  32.7500 Du        
  12109 ****        17.5000  15.5000  33.0000 Du        
  12110 ****        17.5000  15.7500  32.0000 Du        
  12111 ****        17.5000  15.7500  32.2500 Du        
  12112 ****        17.5000  15.7500  32.5000 Du        
  12113 ****        17.5000  15.7500  32.7500 Du        
  12114 ****        17.5000  15.7500  33.0000 Du        
  12115 ****        17.5000  15.7500  33.2500 Du        
  12116 ****        17.5000  16.0000  32.0000 Du        
  12117 ****        17.5000  16.0000  32.2500 Du        
  12118 ****        17.5000  16.0000  32.5000 Du        
  12119 ****        17.5000  16.0000  32.7500 Du        
  12120 ****        17.5000  16.0000  33.0000 Du        
  12121 ****        17.5000  16.0000  33.2500 Du        
  12122 ****        17.5000  16.0000  44.7500 Du        
  12123 ****        17.5000  16.0000  45.0000 Du        
  12124 ****        17.5000  16.0000  45.2500 Du        
  12125 ****        17.5000  16.2500  31.7500 Du        
  12126 ****        17.5000  16.2500  32.0000 Du        
  12127 ****        17.5000  16.2500  32.2500 Du        
  12128 ****        17.5000  16.2500  32.5000 Du        
  12129 ****        17.5000  16.2500  32.7500 Du        
  12130 ****        17.5000  16.2500  33.0000 Du        
  12131 ****        17.5000  16.2500  33.2500 Du        
  12132 ****        17.5000  16.2500  44.5000 Du        
  12133 ****        17.5000  16.2500  44.7500 Du        
  12134 ****        17.5000  16.2500  45.0000 Du        
  12135 ****        17.5000  16.2500  45.2500 Du        
  12136 ****        17.5000  16.2500  45.5000 Du        
  12137 ****        17.5000  16.5000  31.7500 Du        
  12138 ****        17.5000  16.5000  32.0000 Du        
  12139 ****        17.5000  16.5000  32.2500 Du        
  12140 ****        17.5000  16.5000  32.5000 Du        
  12141 ****        17.5000  16.5000  32.7500 Du        
  12142 ****        17.5000  16.5000  33.0000 Du        
  12143 ****        17.5000  16.5000  33.2500 Du        
  12144 ****        17.5000  16.5000  44.5000 Du        
  12145 ****        17.5000  16.5000  44.7500 Du        
  12146 ****        17.5000  16.5000  45.0000 Du        
  12147 ****        17.5000  16.5000  45.2500 Du        
  12148 ****        17.5000  16.5000  45.5000 Du        
  12149 ****        17.5000  16.7500  31.7500 Du        
  12150 ****        17.5000  16.7500  32.0000 Du        
  12151 ****        17.5000  16.7500  32.2500 Du        
  12152 ****        17.5000  16.7500  32.5000 Du        
  12153 ****        17.5000  16.7500  32.7500 Du        
  12154 ****        17.5000  16.7500  33.0000 Du        
  12155 ****        17.5000  16.7500  33.2500 Du        
  12156 ****        17.5000  16.7500  44.5000 Du        
  12157 ****        17.5000  16.7500  44.7500 Du        
  12158 ****        17.5000  16.7500  45.0000 Du        
  12159 ****        17.5000  16.7500  45.2500 Du        
  12160 ****        17.5000  16.7500  45.5000 Du        
  12161 ****        17.5000  16.7500  45.7500 Du        
  12162 ****        17.5000  17.0000  32.0000 Du        
  12163 ****        17.5000  17.0000  32.2500 Du        
  12164 ****        17.5000  17.0000  32.5000 Du        
  12165 ****        17.5000  17.0000  32.7500 Du        
  12166 ****        17.5000  17.0000  33.0000 Du        
  12167 ****        17.5000  17.0000  33.2500 Du        
  12168 ****        17.5000  17.0000  44.5000 Du        
  12169 ****        17.5000  17.0000  44.7500 Du        
  12170 ****        17.5000  17.0000  45.0000 Du        
  12171 ****        17.5000  17.0000  45.2500 Du        
  12172 ****        17.5000  17.0000  45.5000 Du        
  12173 ****        17.5000  17.0000  45.7500 Du        
  12174 ****        17.5000  17.2500  32.2500 Du        
  12175 ****        17.5000  17.2500  32.5000 Du        
  12176 ****        17.5000  17.2500  32.7500 Du        
  12177 ****        17.5000  17.2500  33.0000 Du        
  12178 ****        17.5000  17.2500  33.2500 Du        
  12179 ****        17.5000  17.2500  44.5000 Du        
  12180 ****        17.5000  17.2500  44.7500 Du        
  12181 ****        17.5000  17.2500  45.0000 Du        
  12182 ****        17.5000  17.2500  45.2500 Du        
  12183 ****        17.5000  17.2500  45.5000 Du        
  12184 ****        17.5000  17.2500  45.7500 Du        
  12185 ****        17.5000  17.2500  46.0000 Du        
  12186 ****        17.5000  17.5000  32.7500 Du        
  12187 ****        17.5000  17.5000  33.0000 Du        
  12188 ****        17.5000  17.5000  33.2500 Du        
  12189 ****        17.5000  17.5000  44.5000 Du        
  12190 ****        17.5000  17.5000  44.7500 Du        
  12191 ****        17.5000  17.5000  45.0000 Du        
  12192 ****        17.5000  17.5000  45.2500 Du        
  12193 ****        17.5000  17.5000  45.5000 Du        
  12194 ****        17.5000  17.5000  45.7500 Du        
  12195 ****        17.5000  17.7500  33.2500 Du        
  12196 ****        17.5000  17.7500  44.5000 Du        
  12197 ****        17.5000  17.7500  44.7500 Du        
  12198 ****        17.5000  17.7500  45.0000 Du        
  12199 ****        17.5000  17.7500  45.2500 Du        
  12200 ****        17.5000  17.7500  45.5000 Du        
  12201 ****        17.5000  17.7500  45.7500 Du        
  12202 ****        17.5000  17.7500  46.0000 Du        
  12203 ****        17.5000  18.0000  44.2500 Du        
  12204 ****        17.5000  18.0000  44.5000 Du        
  12205 ****        17.5000  18.0000  44.7500 Du        
  12206 ****        17.5000  18.0000  45.0000 Du        
  12207 ****        17.5000  18.0000  45.2500 Du        
  12208 ****        17.5000  18.0000  45.5000 Du        
  12209 ****        17.5000  18.0000  45.7500 Du        
  12210 ****        17.5000  18.0000  46.0000 Du        
  12211 ****        17.5000  18.0000  47.5000 Du        
  12212 ****        17.5000  18.0000  47.7500 Du        
  12213 ****        17.5000  18.2500  44.0000 Du        
  12214 ****        17.5000  18.2500  44.2500 Du        
  12215 ****        17.5000  18.2500  44.5000 Du        
  12216 ****        17.5000  18.2500  44.7500 Du        
  12217 ****        17.5000  18.2500  45.0000 Du        
  12218 ****        17.5000  18.2500  45.2500 Du        
  12219 ****        17.5000  18.2500  45.5000 Du        
  12220 ****        17.5000  18.2500  45.7500 Du        
  12221 ****        17.5000  18.2500  46.0000 Du        
  12222 ****        17.5000  18.2500  47.5000 Du        
  12223 ****        17.5000  18.2500  47.7500 Du        
  12224 ****        17.5000  18.5000  44.2500 Du        
  12225 ****        17.5000  18.5000  44.5000 Du        
  12226 ****        17.5000  18.5000  44.7500 Du        
  12227 ****        17.5000  18.5000  45.0000 Du        
  12228 ****        17.5000  18.5000  45.2500 Du        
  12229 ****        17.5000  18.5000  45.5000 Du        
  12230 ****        17.5000  18.5000  47.7500 Du        
  12231 ****        17.5000  18.7500  44.0000 Du        
  12232 ****        17.5000  18.7500  44.2500 Du        
  12233 ****        17.5000  18.7500  44.5000 Du        
  12234 ****        17.5000  18.7500  44.7500 Du        
  12235 ****        17.5000  18.7500  45.0000 Du        
  12236 ****        17.5000  19.0000  43.7500 Du        
  12237 ****        17.5000  19.0000  44.0000 Du        
  12238 ****        17.5000  19.0000  44.2500 Du        
  12239 ****        17.5000  19.0000  44.5000 Du        
  12240 ****        17.5000  19.0000  44.7500 Du        
  12241 ****        17.5000  19.2500  44.0000 Du        
  12242 ****        17.5000  19.2500  44.2500 Du        
  12243 ****        17.7500 -19.0000  34.5000 Du        
  12244 ****        17.7500 -18.7500  34.0000 Du        
  12245 ****        17.7500 -18.7500  34.2500 Du        
  12246 ****        17.7500 -18.7500  34.5000 Du        
  12247 ****        17.7500 -18.5000  34.0000 Du        
  12248 ****        17.7500 -18.5000  34.2500 Du        
  12249 ****        17.7500 -18.5000  34.5000 Du        
  12250 ****        17.7500 -18.2500  34.0000 Du        
  12251 ****        17.7500 -18.2500  34.2500 Du        
  12252 ****        17.7500 -18.2500  34.5000 Du        
  12253 ****        17.7500 -18.0000  34.0000 Du        
  12254 ****        17.7500 -18.0000  34.2500 Du        
  12255 ****        17.7500 -17.7500  34.0000 Du        
  12256 ****        17.7500  -3.2500  26.7500 Du        
  12257 ****        17.7500  -3.2500  27.0000 Du        
  12258 ****        17.7500  -3.0000  26.7500 Du        
  12259 ****        17.7500  -3.0000  27.0000 Du        
  12260 ****        17.7500  -3.0000  27.2500 Du        
  12261 ****        17.7500  -3.0000  27.5000 Du        
  12262 ****        17.7500  -2.7500  27.5000 Du        
  12263 ****        17.7500   1.5000  21.0000 Du        
  12264 ****        17.7500   1.5000  21.2500 Du        
  12265 ****        17.7500   1.5000  21.5000 Du        
  12266 ****        17.7500   1.5000  21.7500 Du        
  12267 ****        17.7500   1.5000  22.0000 Du        
  12268 ****        17.7500   1.7500  21.2500 Du        
  12269 ****        17.7500   1.7500  21.5000 Du        
  12270 ****        17.7500   1.7500  21.7500 Du        
  12271 ****        17.7500   1.7500  22.0000 Du        
  12272 ****        17.7500   1.7500  22.2500 Du        
  12273 ****        17.7500   1.7500  22.5000 Du        
  12274 ****        17.7500   1.7500  22.7500 Du        
  12275 ****        17.7500   1.7500  29.5000 Du        
  12276 ****        17.7500   1.7500  29.7500 Du        
  12277 ****        17.7500   2.0000  21.2500 Du        
  12278 ****        17.7500   2.0000  21.5000 Du        
  12279 ****        17.7500   2.0000  21.7500 Du        
  12280 ****        17.7500   2.0000  22.0000 Du        
  12281 ****        17.7500   2.0000  22.2500 Du        
  12282 ****        17.7500   2.0000  22.5000 Du        
  12283 ****        17.7500   2.0000  22.7500 Du        
  12284 ****        17.7500   2.0000  23.0000 Du        
  12285 ****        17.7500   2.0000  29.0000 Du        
  12286 ****        17.7500   2.0000  29.2500 Du        
  12287 ****        17.7500   2.0000  29.5000 Du        
  12288 ****        17.7500   2.0000  29.7500 Du        
  12289 ****        17.7500   2.2500  21.5000 Du        
  12290 ****        17.7500   2.2500  21.7500 Du        
  12291 ****        17.7500   2.2500  22.0000 Du        
  12292 ****        17.7500   2.2500  22.2500 Du        
  12293 ****        17.7500   2.2500  22.5000 Du        
  12294 ****        17.7500   2.2500  22.7500 Du        
  12295 ****        17.7500   2.2500  23.0000 Du        
  12296 ****        17.7500   2.2500  23.2500 Du        
  12297 ****        17.7500   2.2500  23.5000 Du        
  12298 ****        17.7500   2.2500  29.0000 Du        
  12299 ****        17.7500   2.2500  29.2500 Du        
  12300 ****        17.7500   2.2500  29.5000 Du        
  12301 ****        17.7500   2.2500  29.7500 Du        
  12302 ****        17.7500   2.2500  30.0000 Du        
  12303 ****        17.7500   2.5000  21.5000 Du        
  12304 ****        17.7500   2.5000  21.7500 Du        
  12305 ****        17.7500   2.5000  22.0000 Du        
  12306 ****        17.7500   2.5000  22.2500 Du        
  12307 ****        17.7500   2.5000  22.5000 Du        
  12308 ****        17.7500   2.5000  22.7500 Du        
  12309 ****        17.7500   2.5000  23.0000 Du        
  12310 ****        17.7500   2.5000  23.2500 Du        
  12311 ****        17.7500   2.5000  23.5000 Du        
  12312 ****        17.7500   2.5000  29.0000 Du        
  12313 ****        17.7500   2.5000  29.2500 Du        
  12314 ****        17.7500   2.5000  29.5000 Du        
  12315 ****        17.7500   2.5000  29.7500 Du        
  12316 ****        17.7500   2.5000  30.0000 Du        
  12317 ****        17.7500   2.7500  21.7500 Du        
  12318 ****        17.7500   2.7500  22.0000 Du        
  12319 ****        17.7500   2.7500  22.2500 Du        
  12320 ****        17.7500   2.7500  22.5000 Du        
  12321 ****        17.7500   2.7500  22.7500 Du        
  12322 ****        17.7500   2.7500  23.0000 Du        
  12323 ****        17.7500   2.7500  23.2500 Du        
  12324 ****        17.7500   2.7500  23.5000 Du        
  12325 ****        17.7500   2.7500  29.0000 Du        
  12326 ****        17.7500   2.7500  29.2500 Du        
  12327 ****        17.7500   2.7500  29.5000 Du        
  12328 ****        17.7500   2.7500  29.7500 Du        
  12329 ****        17.7500   2.7500  30.0000 Du        
  12330 ****        17.7500   2.7500  30.2500 Du        
  12331 ****        17.7500   3.0000  22.2500 Du        
  12332 ****        17.7500   3.0000  22.5000 Du        
  12333 ****        17.7500   3.0000  22.7500 Du        
  12334 ****        17.7500   3.0000  23.0000 Du        
  12335 ****        17.7500   3.0000  23.2500 Du        
  12336 ****        17.7500   3.0000  23.5000 Du        
  12337 ****        17.7500   3.0000  23.7500 Du        
  12338 ****        17.7500   3.0000  29.0000 Du        
  12339 ****        17.7500   3.0000  29.2500 Du        
  12340 ****        17.7500   3.0000  29.5000 Du        
  12341 ****        17.7500   3.0000  29.7500 Du        
  12342 ****        17.7500   3.0000  30.0000 Du        
  12343 ****        17.7500   3.0000  30.2500 Du        
  12344 ****        17.7500   3.0000  30.5000 Du        
  12345 ****        17.7500   3.0000  30.7500 Du        
  12346 ****        17.7500   3.2500  23.0000 Du        
  12347 ****        17.7500   3.2500  23.2500 Du        
  12348 ****        17.7500   3.2500  23.5000 Du        
  12349 ****        17.7500   3.2500  23.7500 Du        
  12350 ****        17.7500   3.2500  29.0000 Du        
  12351 ****        17.7500   3.2500  29.2500 Du        
  12352 ****        17.7500   3.2500  29.5000 Du        
  12353 ****        17.7500   3.2500  29.7500 Du        
  12354 ****        17.7500   3.2500  30.0000 Du        
  12355 ****        17.7500   3.2500  30.2500 Du        
  12356 ****        17.7500   3.2500  30.5000 Du        
  12357 ****        17.7500   3.2500  30.7500 Du        
  12358 ****        17.7500   3.2500  31.0000 Du        
  12359 ****        17.7500   3.2500  31.2500 Du        
  12360 ****        17.7500   3.5000  29.0000 Du        
  12361 ****        17.7500   3.5000  29.2500 Du        
  12362 ****        17.7500   3.5000  29.5000 Du        
  12363 ****        17.7500   3.5000  29.7500 Du        
  12364 ****        17.7500   3.5000  30.0000 Du        
  12365 ****        17.7500   3.5000  30.2500 Du        
  12366 ****        17.7500   3.5000  30.5000 Du        
  12367 ****        17.7500   3.5000  30.7500 Du        
  12368 ****        17.7500   3.5000  31.0000 Du        
  12369 ****        17.7500   3.5000  31.2500 Du        
  12370 ****        17.7500   3.5000  31.5000 Du        
  12371 ****        17.7500   3.5000  31.7500 Du        
  12372 ****        17.7500   3.5000  32.0000 Du        
  12373 ****        17.7500   3.7500  29.2500 Du        
  12374 ****        17.7500   3.7500  29.5000 Du        
  12375 ****        17.7500   3.7500  29.7500 Du        
  12376 ****        17.7500   3.7500  30.0000 Du        
  12377 ****        17.7500   3.7500  30.2500 Du        
  12378 ****        17.7500   3.7500  30.5000 Du        
  12379 ****        17.7500   3.7500  30.7500 Du        
  12380 ****        17.7500   3.7500  31.0000 Du        
  12381 ****        17.7500   3.7500  31.2500 Du        
  12382 ****        17.7500   3.7500  31.5000 Du        
  12383 ****        17.7500   3.7500  31.7500 Du        
  12384 ****        17.7500   3.7500  32.0000 Du        
  12385 ****        17.7500   3.7500  32.2500 Du        
  12386 ****        17.7500   4.0000  29.5000 Du        
  12387 ****        17.7500   4.0000  29.7500 Du        
  12388 ****        17.7500   4.0000  30.0000 Du        
  12389 ****        17.7500   4.0000  30.2500 Du        
  12390 ****        17.7500   4.0000  30.5000 Du        
  12391 ****        17.7500   4.0000  30.7500 Du        
  12392 ****        17.7500   4.0000  31.0000 Du        
  12393 ****        17.7500   4.0000  31.2500 Du        
  12394 ****        17.7500   4.0000  31.5000 Du        
  12395 ****        17.7500   4.0000  31.7500 Du        
  12396 ****        17.7500   4.0000  32.0000 Du        
  12397 ****        17.7500   4.0000  32.2500 Du        
  12398 ****        17.7500   4.0000  32.5000 Du        
  12399 ****        17.7500   4.2500  30.0000 Du        
  12400 ****        17.7500   4.2500  30.2500 Du        
  12401 ****        17.7500   4.2500  30.5000 Du        
  12402 ****        17.7500   4.2500  30.7500 Du        
  12403 ****        17.7500   4.2500  31.0000 Du        
  12404 ****        17.7500   4.2500  31.2500 Du        
  12405 ****        17.7500   4.2500  31.5000 Du        
  12406 ****        17.7500   4.2500  31.7500 Du        
  12407 ****        17.7500   4.2500  32.0000 Du        
  12408 ****        17.7500   4.2500  32.2500 Du        
  12409 ****        17.7500   4.2500  32.5000 Du        
  12410 ****        17.7500   4.5000  30.7500 Du        
  12411 ****        17.7500   4.5000  31.0000 Du        
  12412 ****        17.7500   4.5000  31.2500 Du        
  12413 ****        17.7500   4.5000  31.5000 Du        
  12414 ****        17.7500   4.5000  31.7500 Du        
  12415 ****        17.7500   4.5000  32.0000 Du        
  12416 ****        17.7500   4.5000  32.2500 Du        
  12417 ****        17.7500   4.7500  31.0000 Du        
  12418 ****        17.7500   4.7500  31.2500 Du        
  12419 ****        17.7500   4.7500  31.5000 Du        
  12420 ****        17.7500   4.7500  31.7500 Du        
  12421 ****        17.7500   4.7500  32.0000 Du        
  12422 ****        17.7500   5.0000  25.7500 Du        
  12423 ****        17.7500   5.0000  31.0000 Du        
  12424 ****        17.7500   5.0000  31.2500 Du        
  12425 ****        17.7500   5.0000  31.5000 Du        
  12426 ****        17.7500   5.0000  31.7500 Du        
  12427 ****        17.7500   5.0000  32.0000 Du        
  12428 ****        17.7500   5.2500  25.5000 Du        
  12429 ****        17.7500   5.2500  25.7500 Du        
  12430 ****        17.7500   5.2500  26.0000 Du        
  12431 ****        17.7500   5.2500  26.2500 Du        
  12432 ****        17.7500   5.2500  26.5000 Du        
  12433 ****        17.7500   5.2500  26.7500 Du        
  12434 ****        17.7500   5.5000  25.7500 Du        
  12435 ****        17.7500   5.5000  26.0000 Du        
  12436 ****        17.7500   5.5000  26.2500 Du        
  12437 ****        17.7500   5.5000  26.5000 Du        
  12438 ****        17.7500   5.5000  26.7500 Du        
  12439 ****        17.7500   5.7500  25.7500 Du        
  12440 ****        17.7500   5.7500  26.0000 Du        
  12441 ****        17.7500   5.7500  26.2500 Du        
  12442 ****        17.7500   5.7500  26.5000 Du        
  12443 ****        17.7500   5.7500  26.7500 Du        
  12444 ****        17.7500   6.0000  26.0000 Du        
  12445 ****        17.7500   6.0000  26.2500 Du        
  12446 ****        17.7500   6.0000  26.5000 Du        
  12447 ****        17.7500   6.0000  26.7500 Du        
  12448 ****        17.7500   6.0000  27.0000 Du        
  12449 ****        17.7500   6.2500  26.2500 Du        
  12450 ****        17.7500   6.2500  26.5000 Du        
  12451 ****        17.7500   6.2500  26.7500 Du        
  12452 ****        17.7500   6.2500  27.0000 Du        
  12453 ****        17.7500   6.5000  26.2500 Du        
  12454 ****        17.7500   6.5000  26.5000 Du        
  12455 ****        17.7500   6.5000  26.7500 Du        
  12456 ****        17.7500   6.5000  27.0000 Du        
  12457 ****        17.7500   6.7500  26.5000 Du        
  12458 ****        17.7500   6.7500  26.7500 Du        
  12459 ****        17.7500   6.7500  27.0000 Du        
  12460 ****        17.7500   7.0000  26.5000 Du        
  12461 ****        17.7500   7.0000  26.7500 Du        
  12462 ****        17.7500  10.2500  36.0000 Du        
  12463 ****        17.7500  10.5000  35.7500 Du        
  12464 ****        17.7500  10.5000  36.0000 Du        
  12465 ****        17.7500  10.5000  36.2500 Du        
  12466 ****        17.7500  10.7500  35.7500 Du        
  12467 ****        17.7500  10.7500  36.0000 Du        
  12468 ****        17.7500  10.7500  36.2500 Du        
  12469 ****        17.7500  10.7500  36.5000 Du        
  12470 ****        17.7500  11.0000  35.7500 Du        
  12471 ****        17.7500  11.0000  36.0000 Du        
  12472 ****        17.7500  11.0000  36.2500 Du        
  12473 ****        17.7500  11.0000  36.5000 Du        
  12474 ****        17.7500  11.2500  36.0000 Du        
  12475 ****        17.7500  11.2500  36.2500 Du        
  12476 ****        17.7500  11.2500  36.5000 Du        
  12477 ****        17.7500  11.2500  36.7500 Du        
  12478 ****        17.7500  11.2500  37.0000 Du        
  12479 ****        17.7500  11.5000  36.2500 Du        
  12480 ****        17.7500  11.5000  37.0000 Du        
  12481 ****        17.7500  11.7500  37.0000 Du        
  12482 ****        17.7500  11.7500  37.2500 Du        
  12483 ****        17.7500  11.7500  37.5000 Du        
  12484 ****        17.7500  12.0000  37.0000 Du        
  12485 ****        17.7500  12.0000  37.2500 Du        
  12486 ****        17.7500  12.0000  37.5000 Du        
  12487 ****        17.7500  12.0000  37.7500 Du        
  12488 ****        17.7500  12.2500  37.2500 Du        
  12489 ****        17.7500  12.2500  37.7500 Du        
  12490 ****        17.7500  13.0000  38.0000 Du        
  12491 ****        17.7500  13.2500  38.2500 Du        
  12492 ****        17.7500  13.5000  38.5000 Du        
  12493 ****        17.7500  13.5000  38.7500 Du        
  12494 ****        17.7500  13.7500  38.2500 Du        
  12495 ****        17.7500  13.7500  38.5000 Du        
  12496 ****        17.7500  13.7500  38.7500 Du        
  12497 ****        17.7500  13.7500  39.0000 Du        
  12498 ****        17.7500  14.0000  38.5000 Du        
  12499 ****        17.7500  14.0000  38.7500 Du        
  12500 ****        17.7500  14.0000  39.0000 Du        
  12501 ****        17.7500  14.2500  38.7500 Du        
  12502 ****        17.7500  14.2500  39.0000 Du        
  12503 ****        17.7500  14.7500  32.2500 Du        
  12504 ****        17.7500  14.7500  32.5000 Du        
  12505 ****        17.7500  14.7500  32.7500 Du        
  12506 ****        17.7500  14.7500  33.0000 Du        
  12507 ****        17.7500  14.7500  33.2500 Du        
  12508 ****        17.7500  15.0000  32.2500 Du        
  12509 ****        17.7500  15.0000  32.5000 Du        
  12510 ****        17.7500  15.0000  32.7500 Du        
  12511 ****        17.7500  15.0000  33.0000 Du        
  12512 ****        17.7500  15.0000  33.2500 Du        
  12513 ****        17.7500  15.2500  32.0000 Du        
  12514 ****        17.7500  15.2500  32.2500 Du        
  12515 ****        17.7500  15.2500  32.5000 Du        
  12516 ****        17.7500  15.2500  32.7500 Du        
  12517 ****        17.7500  15.2500  33.0000 Du        
  12518 ****        17.7500  15.2500  33.2500 Du        
  12519 ****        17.7500  15.5000  32.0000 Du        
  12520 ****        17.7500  15.5000  32.2500 Du        
  12521 ****        17.7500  15.5000  32.5000 Du        
  12522 ****        17.7500  15.5000  32.7500 Du        
  12523 ****        17.7500  15.5000  33.0000 Du        
  12524 ****        17.7500  15.5000  33.2500 Du        
  12525 ****        17.7500  15.7500  32.0000 Du        
  12526 ****        17.7500  15.7500  32.2500 Du        
  12527 ****        17.7500  15.7500  32.5000 Du        
  12528 ****        17.7500  15.7500  32.7500 Du        
  12529 ****        17.7500  15.7500  33.0000 Du        
  12530 ****        17.7500  15.7500  33.2500 Du        
  12531 ****        17.7500  16.0000  32.0000 Du        
  12532 ****        17.7500  16.0000  32.2500 Du        
  12533 ****        17.7500  16.0000  32.5000 Du        
  12534 ****        17.7500  16.0000  32.7500 Du        
  12535 ****        17.7500  16.0000  33.0000 Du        
  12536 ****        17.7500  16.0000  33.2500 Du        
  12537 ****        17.7500  16.0000  45.2500 Du        
  12538 ****        17.7500  16.0000  45.5000 Du        
  12539 ****        17.7500  16.2500  32.0000 Du        
  12540 ****        17.7500  16.2500  32.2500 Du        
  12541 ****        17.7500  16.2500  32.5000 Du        
  12542 ****        17.7500  16.2500  32.7500 Du        
  12543 ****        17.7500  16.2500  33.0000 Du        
  12544 ****        17.7500  16.2500  33.2500 Du        
  12545 ****        17.7500  16.2500  45.0000 Du        
  12546 ****        17.7500  16.2500  45.2500 Du        
  12547 ****        17.7500  16.2500  45.5000 Du        
  12548 ****        17.7500  16.5000  32.0000 Du        
  12549 ****        17.7500  16.5000  32.2500 Du        
  12550 ****        17.7500  16.5000  32.5000 Du        
  12551 ****        17.7500  16.5000  32.7500 Du        
  12552 ****        17.7500  16.5000  33.0000 Du        
  12553 ****        17.7500  16.5000  33.2500 Du        
  12554 ****        17.7500  16.5000  45.0000 Du        
  12555 ****        17.7500  16.5000  45.2500 Du        
  12556 ****        17.7500  16.5000  45.5000 Du        
  12557 ****        17.7500  16.5000  45.7500 Du        
  12558 ****        17.7500  16.7500  32.0000 Du        
  12559 ****        17.7500  16.7500  32.2500 Du        
  12560 ****        17.7500  16.7500  32.5000 Du        
  12561 ****        17.7500  16.7500  32.7500 Du        
  12562 ****        17.7500  16.7500  33.0000 Du        
  12563 ****        17.7500  16.7500  33.2500 Du        
  12564 ****        17.7500  16.7500  45.0000 Du        
  12565 ****        17.7500  16.7500  45.2500 Du        
  12566 ****        17.7500  16.7500  45.5000 Du        
  12567 ****        17.7500  16.7500  45.7500 Du        
  12568 ****        17.7500  16.7500  46.0000 Du        
  12569 ****        17.7500  17.0000  32.2500 Du        
  12570 ****        17.7500  17.0000  32.5000 Du        
  12571 ****        17.7500  17.0000  32.7500 Du        
  12572 ****        17.7500  17.0000  33.0000 Du        
  12573 ****        17.7500  17.0000  33.2500 Du        
  12574 ****        17.7500  17.0000  45.0000 Du        
  12575 ****        17.7500  17.0000  45.2500 Du        
  12576 ****        17.7500  17.0000  45.5000 Du        
  12577 ****        17.7500  17.0000  45.7500 Du        
  12578 ****        17.7500  17.0000  46.0000 Du        
  12579 ****        17.7500  17.0000  46.2500 Du        
  12580 ****        17.7500  17.2500  32.7500 Du        
  12581 ****        17.7500  17.2500  33.0000 Du        
  12582 ****        17.7500  17.2500  33.2500 Du        
  12583 ****        17.7500  17.2500  44.7500 Du        
  12584 ****        17.7500  17.2500  45.0000 Du        
  12585 ****        17.7500  17.2500  45.2500 Du        
  12586 ****        17.7500  17.2500  45.5000 Du        
  12587 ****        17.7500  17.2500  45.7500 Du        
  12588 ****        17.7500  17.2500  46.0000 Du        
  12589 ****        17.7500  17.2500  46.2500 Du        
  12590 ****        17.7500  17.2500  46.5000 Du        
  12591 ****        17.7500  17.2500  46.7500 Du        
  12592 ****        17.7500  17.5000  44.7500 Du        
  12593 ****        17.7500  17.5000  45.0000 Du        
  12594 ****        17.7500  17.5000  45.2500 Du        
  12595 ****        17.7500  17.5000  45.5000 Du        
  12596 ****        17.7500  17.5000  45.7500 Du        
  12597 ****        17.7500  17.5000  46.0000 Du        
  12598 ****        17.7500  17.5000  46.2500 Du        
  12599 ****        17.7500  17.5000  46.5000 Du        
  12600 ****        17.7500  17.5000  46.7500 Du        
  12601 ****        17.7500  17.5000  47.0000 Du        
  12602 ****        17.7500  17.5000  47.2500 Du        
  12603 ****        17.7500  17.5000  47.7500 Du        
  12604 ****        17.7500  17.7500  44.7500 Du        
  12605 ****        17.7500  17.7500  45.0000 Du        
  12606 ****        17.7500  17.7500  45.2500 Du        
  12607 ****        17.7500  17.7500  45.5000 Du        
  12608 ****        17.7500  17.7500  45.7500 Du        
  12609 ****        17.7500  17.7500  46.0000 Du        
  12610 ****        17.7500  17.7500  46.2500 Du        
  12611 ****        17.7500  17.7500  46.5000 Du        
  12612 ****        17.7500  17.7500  46.7500 Du        
  12613 ****        17.7500  17.7500  47.0000 Du        
  12614 ****        17.7500  17.7500  47.2500 Du        
  12615 ****        17.7500  17.7500  47.5000 Du        
  12616 ****        17.7500  17.7500  47.7500 Du        
  12617 ****        17.7500  18.0000  44.5000 Du        
  12618 ****        17.7500  18.0000  44.7500 Du        
  12619 ****        17.7500  18.0000  45.0000 Du        
  12620 ****        17.7500  18.0000  45.2500 Du        
  12621 ****        17.7500  18.0000  45.5000 Du        
  12622 ****        17.7500  18.0000  45.7500 Du        
  12623 ****        17.7500  18.0000  46.0000 Du        
  12624 ****        17.7500  18.0000  46.2500 Du        
  12625 ****        17.7500  18.0000  46.5000 Du        
  12626 ****        17.7500  18.0000  46.7500 Du        
  12627 ****        17.7500  18.0000  47.0000 Du        
  12628 ****        17.7500  18.0000  47.2500 Du        
  12629 ****        17.7500  18.0000  47.5000 Du        
  12630 ****        17.7500  18.0000  47.7500 Du        
  12631 ****        17.7500  18.2500  44.2500 Du        
  12632 ****        17.7500  18.2500  44.5000 Du        
  12633 ****        17.7500  18.2500  44.7500 Du        
  12634 ****        17.7500  18.2500  45.0000 Du        
  12635 ****        17.7500  18.2500  45.2500 Du        
  12636 ****        17.7500  18.2500  45.5000 Du        
  12637 ****        17.7500  18.2500  45.7500 Du        
  12638 ****        17.7500  18.2500  46.0000 Du        
  12639 ****        17.7500  18.2500  46.2500 Du        
  12640 ****        17.7500  18.2500  46.5000 Du        
  12641 ****        17.7500  18.2500  46.7500 Du        
  12642 ****        17.7500  18.2500  47.0000 Du        
  12643 ****        17.7500  18.2500  47.2500 Du        
  12644 ****        17.7500  18.2500  47.5000 Du        
  12645 ****        17.7500  18.2500  47.7500 Du        
  12646 ****        17.7500  18.5000  44.0000 Du        
  12647 ****        17.7500  18.5000  44.2500 Du        
  12648 ****        17.7500  18.5000  44.5000 Du        
  12649 ****        17.7500  18.5000  44.7500 Du        
  12650 ****        17.7500  18.5000  45.0000 Du        
  12651 ****        17.7500  18.5000  45.2500 Du        
  12652 ****        17.7500  18.5000  45.5000 Du        
  12653 ****        17.7500  18.5000  47.2500 Du        
  12654 ****        17.7500  18.5000  47.5000 Du        
  12655 ****        17.7500  18.5000  47.7500 Du        
  12656 ****        17.7500  18.7500  44.0000 Du        
  12657 ****        17.7500  18.7500  44.2500 Du        
  12658 ****        17.7500  18.7500  44.5000 Du        
  12659 ****        17.7500  18.7500  44.7500 Du        
  12660 ****        17.7500  18.7500  45.0000 Du        
  12661 ****        17.7500  19.0000  43.7500 Du        
  12662 ****        17.7500  19.0000  44.0000 Du        
  12663 ****        17.7500  19.0000  44.2500 Du        
  12664 ****        17.7500  19.0000  44.5000 Du        
  12665 ****        17.7500  19.2500  43.7500 Du        
  12666 ****        17.7500  19.2500  44.0000 Du        
  12667 ****        17.7500  19.2500  44.2500 Du        
  12668 ****        17.7500  20.7500  36.2500 Du        
  12669 ****        17.7500  21.0000  36.2500 Du        
  12670 ****        17.7500  21.2500  36.2500 Du        
  12671 ****        17.7500  21.5000  36.7500 Du        
  12672 ****        18.0000 -19.0000  34.2500 Du        
  12673 ****        18.0000 -19.0000  34.5000 Du        
  12674 ****        18.0000 -19.0000  34.7500 Du        
  12675 ****        18.0000 -19.0000  35.0000 Du        
  12676 ****        18.0000 -18.7500  34.0000 Du        
  12677 ****        18.0000 -18.7500  34.2500 Du        
  12678 ****        18.0000 -18.7500  34.5000 Du        
  12679 ****        18.0000 -18.7500  34.7500 Du        
  12680 ****        18.0000 -18.7500  35.0000 Du        
  12681 ****        18.0000 -18.5000  34.2500 Du        
  12682 ****        18.0000 -18.5000  34.5000 Du        
  12683 ****        18.0000 -18.5000  34.7500 Du        
  12684 ****        18.0000 -18.2500  34.0000 Du        
  12685 ****        18.0000 -18.2500  34.2500 Du        
  12686 ****        18.0000 -18.2500  34.5000 Du        
  12687 ****        18.0000 -18.0000  34.0000 Du        
  12688 ****        18.0000 -18.0000  34.2500 Du        
  12689 ****        18.0000 -18.0000  34.5000 Du        
  12690 ****        18.0000 -17.7500  34.0000 Du        
  12691 ****        18.0000 -17.7500  34.2500 Du        
  12692 ****        18.0000  -3.0000  27.5000 Du        
  12693 ****        18.0000  -3.0000  27.7500 Du        
  12694 ****        18.0000  -2.7500  27.5000 Du        
  12695 ****        18.0000  -2.7500  27.7500 Du        
  12696 ****        18.0000   1.2500  29.7500 Du        
  12697 ****        18.0000   1.2500  30.0000 Du        
  12698 ****        18.0000   1.5000  21.2500 Du        
  12699 ****        18.0000   1.5000  21.5000 Du        
  12700 ****        18.0000   1.5000  21.7500 Du        
  12701 ****        18.0000   1.5000  22.0000 Du        
  12702 ****        18.0000   1.5000  22.2500 Du        
  12703 ****        18.0000   1.5000  22.5000 Du        
  12704 ****        18.0000   1.5000  22.7500 Du        
  12705 ****        18.0000   1.7500  21.5000 Du        
  12706 ****        18.0000   1.7500  21.7500 Du        
  12707 ****        18.0000   1.7500  22.0000 Du        
  12708 ****        18.0000   1.7500  22.2500 Du        
  12709 ****        18.0000   1.7500  22.5000 Du        
  12710 ****        18.0000   1.7500  22.7500 Du        
  12711 ****        18.0000   1.7500  23.0000 Du        
  12712 ****        18.0000   1.7500  23.2500 Du        
  12713 ****        18.0000   1.7500  29.2500 Du        
  12714 ****        18.0000   1.7500  29.5000 Du        
  12715 ****        18.0000   1.7500  29.7500 Du        
  12716 ****        18.0000   1.7500  30.0000 Du        
  12717 ****        18.0000   2.0000  21.5000 Du        
  12718 ****        18.0000   2.0000  21.7500 Du        
  12719 ****        18.0000   2.0000  22.0000 Du        
  12720 ****        18.0000   2.0000  22.2500 Du        
  12721 ****        18.0000   2.0000  22.5000 Du        
  12722 ****        18.0000   2.0000  22.7500 Du        
  12723 ****        18.0000   2.0000  23.0000 Du        
  12724 ****        18.0000   2.0000  23.2500 Du        
  12725 ****        18.0000   2.0000  23.5000 Du        
  12726 ****        18.0000   2.0000  29.0000 Du        
  12727 ****        18.0000   2.0000  29.2500 Du        
  12728 ****        18.0000   2.0000  29.5000 Du        
  12729 ****        18.0000   2.0000  29.7500 Du        
  12730 ****        18.0000   2.0000  30.0000 Du        
  12731 ****        18.0000   2.2500  21.5000 Du        
  12732 ****        18.0000   2.2500  21.7500 Du        
  12733 ****        18.0000   2.2500  22.0000 Du        
  12734 ****        18.0000   2.2500  22.2500 Du        
  12735 ****        18.0000   2.2500  22.5000 Du        
  12736 ****        18.0000   2.2500  22.7500 Du        
  12737 ****        18.0000   2.2500  23.0000 Du        
  12738 ****        18.0000   2.2500  23.2500 Du        
  12739 ****        18.0000   2.2500  23.5000 Du        
  12740 ****        18.0000   2.2500  23.7500 Du        
  12741 ****        18.0000   2.2500  29.0000 Du        
  12742 ****        18.0000   2.2500  29.2500 Du        
  12743 ****        18.0000   2.2500  29.5000 Du        
  12744 ****        18.0000   2.2500  29.7500 Du        
  12745 ****        18.0000   2.2500  30.0000 Du        
  12746 ****        18.0000   2.2500  30.2500 Du        
  12747 ****        18.0000   2.5000  21.7500 Du        
  12748 ****        18.0000   2.5000  22.0000 Du        
  12749 ****        18.0000   2.5000  22.2500 Du        
  12750 ****        18.0000   2.5000  22.5000 Du        
  12751 ****        18.0000   2.5000  22.7500 Du        
  12752 ****        18.0000   2.5000  23.0000 Du        
  12753 ****        18.0000   2.5000  23.2500 Du        
  12754 ****        18.0000   2.5000  23.5000 Du        
  12755 ****        18.0000   2.5000  23.7500 Du        
  12756 ****        18.0000   2.5000  29.0000 Du        
  12757 ****        18.0000   2.5000  29.2500 Du        
  12758 ****        18.0000   2.5000  29.5000 Du        
  12759 ****        18.0000   2.5000  29.7500 Du        
  12760 ****        18.0000   2.5000  30.0000 Du        
  12761 ****        18.0000   2.5000  30.2500 Du        
  12762 ****        18.0000   2.7500  22.0000 Du        
  12763 ****        18.0000   2.7500  22.2500 Du        
  12764 ****        18.0000   2.7500  22.5000 Du        
  12765 ****        18.0000   2.7500  22.7500 Du        
  12766 ****        18.0000   2.7500  23.0000 Du        
  12767 ****        18.0000   2.7500  23.2500 Du        
  12768 ****        18.0000   2.7500  23.5000 Du        
  12769 ****        18.0000   2.7500  23.7500 Du        
  12770 ****        18.0000   2.7500  29.0000 Du        
  12771 ****        18.0000   2.7500  29.2500 Du        
  12772 ****        18.0000   2.7500  29.5000 Du        
  12773 ****        18.0000   2.7500  29.7500 Du        
  12774 ****        18.0000   2.7500  30.0000 Du        
  12775 ****        18.0000   2.7500  30.2500 Du        
  12776 ****        18.0000   3.0000  22.5000 Du        
  12777 ****        18.0000   3.0000  22.7500 Du        
  12778 ****        18.0000   3.0000  23.0000 Du        
  12779 ****        18.0000   3.0000  23.2500 Du        
  12780 ****        18.0000   3.0000  23.5000 Du        
  12781 ****        18.0000   3.0000  23.7500 Du        
  12782 ****        18.0000   3.0000  24.0000 Du        
  12783 ****        18.0000   3.0000  29.0000 Du        
  12784 ****        18.0000   3.0000  29.2500 Du        
  12785 ****        18.0000   3.0000  29.5000 Du        
  12786 ****        18.0000   3.0000  29.7500 Du        
  12787 ****        18.0000   3.0000  30.0000 Du        
  12788 ****        18.0000   3.0000  30.2500 Du        
  12789 ****        18.0000   3.0000  30.5000 Du        
  12790 ****        18.0000   3.0000  30.7500 Du        
  12791 ****        18.0000   3.0000  31.0000 Du        
  12792 ****        18.0000   3.2500  22.7500 Du        
  12793 ****        18.0000   3.2500  23.0000 Du        
  12794 ****        18.0000   3.2500  23.2500 Du        
  12795 ****        18.0000   3.2500  23.5000 Du        
  12796 ****        18.0000   3.2500  23.7500 Du        
  12797 ****        18.0000   3.2500  24.0000 Du        
  12798 ****        18.0000   3.2500  28.7500 Du        
  12799 ****        18.0000   3.2500  29.0000 Du        
  12800 ****        18.0000   3.2500  29.2500 Du        
  12801 ****        18.0000   3.2500  29.5000 Du        
  12802 ****        18.0000   3.2500  29.7500 Du        
  12803 ****        18.0000   3.2500  30.0000 Du        
  12804 ****        18.0000   3.2500  30.2500 Du        
  12805 ****        18.0000   3.2500  30.5000 Du        
  12806 ****        18.0000   3.2500  30.7500 Du        
  12807 ****        18.0000   3.2500  31.0000 Du        
  12808 ****        18.0000   3.2500  31.2500 Du        
  12809 ****        18.0000   3.2500  31.5000 Du        
  12810 ****        18.0000   3.2500  31.7500 Du        
  12811 ****        18.0000   3.5000  23.2500 Du        
  12812 ****        18.0000   3.5000  23.5000 Du        
  12813 ****        18.0000   3.5000  23.7500 Du        
  12814 ****        18.0000   3.5000  24.0000 Du        
  12815 ****        18.0000   3.5000  29.0000 Du        
  12816 ****        18.0000   3.5000  29.2500 Du        
  12817 ****        18.0000   3.5000  29.5000 Du        
  12818 ****        18.0000   3.5000  29.7500 Du        
  12819 ****        18.0000   3.5000  30.0000 Du        
  12820 ****        18.0000   3.5000  30.2500 Du        
  12821 ****        18.0000   3.5000  30.5000 Du        
  12822 ****        18.0000   3.5000  30.7500 Du        
  12823 ****        18.0000   3.5000  31.0000 Du        
  12824 ****        18.0000   3.5000  31.2500 Du        
  12825 ****        18.0000   3.5000  31.5000 Du        
  12826 ****        18.0000   3.5000  31.7500 Du        
  12827 ****        18.0000   3.5000  32.0000 Du        
  12828 ****        18.0000   3.7500  23.7500 Du        
  12829 ****        18.0000   3.7500  24.0000 Du        
  12830 ****        18.0000   3.7500  24.2500 Du        
  12831 ****        18.0000   3.7500  29.0000 Du        
  12832 ****        18.0000   3.7500  29.2500 Du        
  12833 ****        18.0000   3.7500  29.5000 Du        
  12834 ****        18.0000   3.7500  29.7500 Du        
  12835 ****        18.0000   3.7500  30.0000 Du        
  12836 ****        18.0000   3.7500  30.2500 Du        
  12837 ****        18.0000   3.7500  30.5000 Du        
  12838 ****        18.0000   3.7500  30.7500 Du        
  12839 ****        18.0000   3.7500  31.0000 Du        
  12840 ****        18.0000   3.7500  31.2500 Du        
  12841 ****        18.0000   3.7500  31.5000 Du        
  12842 ****        18.0000   3.7500  31.7500 Du        
  12843 ****        18.0000   3.7500  32.0000 Du        
  12844 ****        18.0000   3.7500  32.2500 Du        
  12845 ****        18.0000   3.7500  32.5000 Du        
  12846 ****        18.0000   4.0000  24.0000 Du        
  12847 ****        18.0000   4.0000  24.2500 Du        
  12848 ****        18.0000   4.0000  29.2500 Du        
  12849 ****        18.0000   4.0000  29.5000 Du        
  12850 ****        18.0000   4.0000  29.7500 Du        
  12851 ****        18.0000   4.0000  30.0000 Du        
  12852 ****        18.0000   4.0000  30.2500 Du        
  12853 ****        18.0000   4.0000  30.5000 Du        
  12854 ****        18.0000   4.0000  30.7500 Du        
  12855 ****        18.0000   4.0000  31.0000 Du        
  12856 ****        18.0000   4.0000  31.2500 Du        
  12857 ****        18.0000   4.0000  31.5000 Du        
  12858 ****        18.0000   4.0000  31.7500 Du        
  12859 ****        18.0000   4.0000  32.0000 Du        
  12860 ****        18.0000   4.0000  32.2500 Du        
  12861 ****        18.0000   4.0000  32.5000 Du        
  12862 ****        18.0000   4.0000  32.7500 Du        
  12863 ****        18.0000   4.2500  24.2500 Du        
  12864 ****        18.0000   4.2500  30.0000 Du        
  12865 ****        18.0000   4.2500  30.2500 Du        
  12866 ****        18.0000   4.2500  30.5000 Du        
  12867 ****        18.0000   4.2500  30.7500 Du        
  12868 ****        18.0000   4.2500  31.0000 Du        
  12869 ****        18.0000   4.2500  31.2500 Du        
  12870 ****        18.0000   4.2500  31.5000 Du        
  12871 ****        18.0000   4.2500  31.7500 Du        
  12872 ****        18.0000   4.2500  32.0000 Du        
  12873 ****        18.0000   4.2500  32.2500 Du        
  12874 ****        18.0000   4.2500  32.5000 Du        
  12875 ****        18.0000   4.2500  32.7500 Du        
  12876 ****        18.0000   4.5000  30.2500 Du        
  12877 ****        18.0000   4.5000  30.5000 Du        
  12878 ****        18.0000   4.5000  30.7500 Du        
  12879 ****        18.0000   4.5000  31.0000 Du        
  12880 ****        18.0000   4.5000  31.2500 Du        
  12881 ****        18.0000   4.5000  31.5000 Du        
  12882 ****        18.0000   4.5000  31.7500 Du        
  12883 ****        18.0000   4.5000  32.0000 Du        
  12884 ****        18.0000   4.5000  32.2500 Du        
  12885 ****        18.0000   4.5000  32.5000 Du        
  12886 ****        18.0000   4.7500  25.0000 Du        
  12887 ****        18.0000   4.7500  25.2500 Du        
  12888 ****        18.0000   4.7500  25.5000 Du        
  12889 ****        18.0000   4.7500  25.7500 Du        
  12890 ****        18.0000   4.7500  30.7500 Du        
  12891 ****        18.0000   4.7500  31.0000 Du        
  12892 ****        18.0000   4.7500  31.2500 Du        
  12893 ****        18.0000   4.7500  31.5000 Du        
  12894 ****        18.0000   4.7500  31.7500 Du        
  12895 ****        18.0000   4.7500  32.0000 Du        
  12896 ****        18.0000   4.7500  32.2500 Du        
  12897 ****        18.0000   5.0000  25.2500 Du        
  12898 ****        18.0000   5.0000  25.5000 Du        
  12899 ****        18.0000   5.0000  25.7500 Du        
  12900 ****        18.0000   5.0000  26.0000 Du        
  12901 ****        18.0000   5.0000  26.2500 Du        
  12902 ****        18.0000   5.0000  26.5000 Du        
  12903 ****        18.0000   5.0000  30.7500 Du        
  12904 ****        18.0000   5.0000  31.0000 Du        
  12905 ****        18.0000   5.0000  31.2500 Du        
  12906 ****        18.0000   5.0000  31.5000 Du        
  12907 ****        18.0000   5.0000  31.7500 Du        
  12908 ****        18.0000   5.0000  32.0000 Du        
  12909 ****        18.0000   5.0000  32.2500 Du        
  12910 ****        18.0000   5.2500  25.5000 Du        
  12911 ****        18.0000   5.2500  25.7500 Du        
  12912 ****        18.0000   5.2500  26.0000 Du        
  12913 ****        18.0000   5.2500  26.2500 Du        
  12914 ****        18.0000   5.2500  26.5000 Du        
  12915 ****        18.0000   5.2500  26.7500 Du        
  12916 ****        18.0000   5.2500  27.0000 Du        
  12917 ****        18.0000   5.2500  31.2500 Du        
  12918 ****        18.0000   5.2500  31.5000 Du        
  12919 ****        18.0000   5.2500  31.7500 Du        
  12920 ****        18.0000   5.2500  32.0000 Du        
  12921 ****        18.0000   5.5000  25.5000 Du        
  12922 ****        18.0000   5.5000  25.7500 Du        
  12923 ****        18.0000   5.5000  26.0000 Du        
  12924 ****        18.0000   5.5000  26.2500 Du        
  12925 ****        18.0000   5.5000  26.5000 Du        
  12926 ****        18.0000   5.5000  26.7500 Du        
  12927 ****        18.0000   5.5000  27.0000 Du        
  12928 ****        18.0000   5.5000  31.5000 Du        
  12929 ****        18.0000   5.5000  31.7500 Du        
  12930 ****        18.0000   5.7500  25.7500 Du        
  12931 ****        18.0000   5.7500  26.0000 Du        
  12932 ****        18.0000   5.7500  26.2500 Du        
  12933 ****        18.0000   5.7500  26.5000 Du        
  12934 ****        18.0000   5.7500  26.7500 Du        
  12935 ****        18.0000   5.7500  27.0000 Du        
  12936 ****        18.0000   6.0000  26.0000 Du        
  12937 ****        18.0000   6.0000  26.2500 Du        
  12938 ****        18.0000   6.0000  26.5000 Du        
  12939 ****        18.0000   6.0000  26.7500 Du        
  12940 ****        18.0000   6.0000  27.0000 Du        
  12941 ****        18.0000   6.2500  26.0000 Du        
  12942 ****        18.0000   6.2500  26.2500 Du        
  12943 ****        18.0000   6.2500  26.5000 Du        
  12944 ****        18.0000   6.2500  26.7500 Du        
  12945 ****        18.0000   6.2500  27.0000 Du        
  12946 ****        18.0000   6.2500  27.2500 Du        
  12947 ****        18.0000   6.5000  26.2500 Du        
  12948 ****        18.0000   6.5000  26.5000 Du        
  12949 ****        18.0000   6.5000  26.7500 Du        
  12950 ****        18.0000   6.5000  27.0000 Du        
  12951 ****        18.0000   6.5000  27.2500 Du        
  12952 ****        18.0000   6.7500  26.2500 Du        
  12953 ****        18.0000   6.7500  26.5000 Du        
  12954 ****        18.0000   6.7500  26.7500 Du        
  12955 ****        18.0000   6.7500  27.0000 Du        
  12956 ****        18.0000   7.0000  26.5000 Du        
  12957 ****        18.0000   7.0000  26.7500 Du        
  12958 ****        18.0000  10.2500  35.7500 Du        
  12959 ****        18.0000  10.2500  36.0000 Du        
  12960 ****        18.0000  10.5000  36.0000 Du        
  12961 ****        18.0000  10.7500  36.0000 Du        
  12962 ****        18.0000  10.7500  36.2500 Du        
  12963 ****        18.0000  11.0000  35.7500 Du        
  12964 ****        18.0000  11.0000  36.0000 Du        
  12965 ****        18.0000  11.0000  36.2500 Du        
  12966 ****        18.0000  11.2500  36.5000 Du        
  12967 ****        18.0000  11.2500  37.0000 Du        
  12968 ****        18.0000  11.7500  37.2500 Du        
  12969 ****        18.0000  12.0000  37.2500 Du        
  12970 ****        18.0000  12.0000  37.7500 Du        
  12971 ****        18.0000  12.2500  37.7500 Du        
  12972 ****        18.0000  13.2500  38.5000 Du        
  12973 ****        18.0000  13.5000  38.5000 Du        
  12974 ****        18.0000  13.5000  38.7500 Du        
  12975 ****        18.0000  13.7500  38.5000 Du        
  12976 ****        18.0000  13.7500  38.7500 Du        
  12977 ****        18.0000  13.7500  39.0000 Du        
  12978 ****        18.0000  14.0000  38.7500 Du        
  12979 ****        18.0000  14.0000  39.0000 Du        
  12980 ****        18.0000  14.2500  33.2500 Du        
  12981 ****        18.0000  14.2500  39.0000 Du        
  12982 ****        18.0000  14.5000  32.7500 Du        
  12983 ****        18.0000  14.5000  33.0000 Du        
  12984 ****        18.0000  14.5000  33.2500 Du        
  12985 ****        18.0000  14.7500  32.2500 Du        
  12986 ****        18.0000  14.7500  32.5000 Du        
  12987 ****        18.0000  14.7500  32.7500 Du        
  12988 ****        18.0000  14.7500  33.0000 Du        
  12989 ****        18.0000  14.7500  33.2500 Du        
  12990 ****        18.0000  15.0000  32.2500 Du        
  12991 ****        18.0000  15.0000  32.5000 Du        
  12992 ****        18.0000  15.0000  32.7500 Du        
  12993 ****        18.0000  15.0000  33.0000 Du        
  12994 ****        18.0000  15.0000  33.2500 Du        
  12995 ****        18.0000  15.2500  32.2500 Du        
  12996 ****        18.0000  15.2500  32.5000 Du        
  12997 ****        18.0000  15.2500  32.7500 Du        
  12998 ****        18.0000  15.2500  33.0000 Du        
  12999 ****        18.0000  15.2500  33.2500 Du        
  13000 ****        18.0000  15.5000  32.0000 Du        
  13001 ****        18.0000  15.5000  32.2500 Du        
  13002 ****        18.0000  15.5000  32.5000 Du        
  13003 ****        18.0000  15.5000  32.7500 Du        
  13004 ****        18.0000  15.5000  33.0000 Du        
  13005 ****        18.0000  15.5000  33.2500 Du        
  13006 ****        18.0000  15.7500  32.0000 Du        
  13007 ****        18.0000  15.7500  32.2500 Du        
  13008 ****        18.0000  15.7500  32.5000 Du        
  13009 ****        18.0000  15.7500  32.7500 Du        
  13010 ****        18.0000  15.7500  33.0000 Du        
  13011 ****        18.0000  15.7500  33.2500 Du        
  13012 ****        18.0000  16.0000  32.0000 Du        
  13013 ****        18.0000  16.0000  32.2500 Du        
  13014 ****        18.0000  16.0000  32.5000 Du        
  13015 ****        18.0000  16.0000  32.7500 Du        
  13016 ****        18.0000  16.0000  33.0000 Du        
  13017 ****        18.0000  16.0000  33.2500 Du        
  13018 ****        18.0000  16.2500  32.0000 Du        
  13019 ****        18.0000  16.2500  32.2500 Du        
  13020 ****        18.0000  16.2500  32.5000 Du        
  13021 ****        18.0000  16.2500  32.7500 Du        
  13022 ****        18.0000  16.2500  33.0000 Du        
  13023 ****        18.0000  16.2500  33.2500 Du        
  13024 ****        18.0000  16.2500  45.5000 Du        
  13025 ****        18.0000  16.2500  45.7500 Du        
  13026 ****        18.0000  16.5000  32.0000 Du        
  13027 ****        18.0000  16.5000  32.2500 Du        
  13028 ****        18.0000  16.5000  32.5000 Du        
  13029 ****        18.0000  16.5000  32.7500 Du        
  13030 ****        18.0000  16.5000  33.0000 Du        
  13031 ****        18.0000  16.5000  33.2500 Du        
  13032 ****        18.0000  16.5000  45.5000 Du        
  13033 ****        18.0000  16.5000  45.7500 Du        
  13034 ****        18.0000  16.5000  46.0000 Du        
  13035 ****        18.0000  16.7500  32.2500 Du        
  13036 ****        18.0000  16.7500  32.5000 Du        
  13037 ****        18.0000  16.7500  32.7500 Du        
  13038 ****        18.0000  16.7500  33.0000 Du        
  13039 ****        18.0000  16.7500  33.2500 Du        
  13040 ****        18.0000  16.7500  45.2500 Du        
  13041 ****        18.0000  16.7500  45.5000 Du        
  13042 ****        18.0000  16.7500  45.7500 Du        
  13043 ****        18.0000  16.7500  46.0000 Du        
  13044 ****        18.0000  16.7500  46.2500 Du        
  13045 ****        18.0000  17.0000  32.7500 Du        
  13046 ****        18.0000  17.0000  33.0000 Du        
  13047 ****        18.0000  17.0000  33.2500 Du        
  13048 ****        18.0000  17.0000  45.2500 Du        
  13049 ****        18.0000  17.0000  45.5000 Du        
  13050 ****        18.0000  17.0000  45.7500 Du        
  13051 ****        18.0000  17.0000  46.0000 Du        
  13052 ****        18.0000  17.0000  46.2500 Du        
  13053 ****        18.0000  17.0000  46.5000 Du        
  13054 ****        18.0000  17.0000  46.7500 Du        
  13055 ****        18.0000  17.0000  47.0000 Du        
  13056 ****        18.0000  17.2500  33.2500 Du        
  13057 ****        18.0000  17.2500  45.2500 Du        
  13058 ****        18.0000  17.2500  45.5000 Du        
  13059 ****        18.0000  17.2500  45.7500 Du        
  13060 ****        18.0000  17.2500  46.0000 Du        
  13061 ****        18.0000  17.2500  46.2500 Du        
  13062 ****        18.0000  17.2500  46.5000 Du        
  13063 ****        18.0000  17.2500  46.7500 Du        
  13064 ****        18.0000  17.2500  47.0000 Du        
  13065 ****        18.0000  17.2500  47.2500 Du        
  13066 ****        18.0000  17.2500  47.5000 Du        
  13067 ****        18.0000  17.2500  47.7500 Du        
  13068 ****        18.0000  17.5000  45.2500 Du        
  13069 ****        18.0000  17.5000  45.5000 Du        
  13070 ****        18.0000  17.5000  45.7500 Du        
  13071 ****        18.0000  17.5000  46.0000 Du        
  13072 ****        18.0000  17.5000  46.2500 Du        
  13073 ****        18.0000  17.5000  46.5000 Du        
  13074 ****        18.0000  17.5000  46.7500 Du        
  13075 ****        18.0000  17.5000  47.0000 Du        
  13076 ****        18.0000  17.5000  47.2500 Du        
  13077 ****        18.0000  17.5000  47.5000 Du        
  13078 ****        18.0000  17.5000  47.7500 Du        
  13079 ****        18.0000  17.7500  45.0000 Du        
  13080 ****        18.0000  17.7500  45.2500 Du        
  13081 ****        18.0000  17.7500  45.5000 Du        
  13082 ****        18.0000  17.7500  45.7500 Du        
  13083 ****        18.0000  17.7500  46.0000 Du        
  13084 ****        18.0000  17.7500  46.2500 Du        
  13085 ****        18.0000  17.7500  46.5000 Du        
  13086 ****        18.0000  17.7500  46.7500 Du        
  13087 ****        18.0000  17.7500  47.0000 Du        
  13088 ****        18.0000  17.7500  47.2500 Du        
  13089 ****        18.0000  17.7500  47.5000 Du        
  13090 ****        18.0000  17.7500  47.7500 Du        
  13091 ****        18.0000  18.0000  45.0000 Du        
  13092 ****        18.0000  18.0000  45.2500 Du        
  13093 ****        18.0000  18.0000  45.5000 Du        
  13094 ****        18.0000  18.0000  45.7500 Du        
  13095 ****        18.0000  18.0000  46.0000 Du        
  13096 ****        18.0000  18.0000  46.2500 Du        
  13097 ****        18.0000  18.0000  46.5000 Du        
  13098 ****        18.0000  18.0000  46.7500 Du        
  13099 ****        18.0000  18.0000  47.0000 Du        
  13100 ****        18.0000  18.0000  47.2500 Du        
  13101 ****        18.0000  18.0000  47.5000 Du        
  13102 ****        18.0000  18.0000  47.7500 Du        
  13103 ****        18.0000  18.2500  44.7500 Du        
  13104 ****        18.0000  18.2500  45.0000 Du        
  13105 ****        18.0000  18.2500  45.2500 Du        
  13106 ****        18.0000  18.2500  45.5000 Du        
  13107 ****        18.0000  18.2500  45.7500 Du        
  13108 ****        18.0000  18.2500  46.0000 Du        
  13109 ****        18.0000  18.2500  46.2500 Du        
  13110 ****        18.0000  18.2500  46.5000 Du        
  13111 ****        18.0000  18.2500  46.7500 Du        
  13112 ****        18.0000  18.2500  47.0000 Du        
  13113 ****        18.0000  18.2500  47.2500 Du        
  13114 ****        18.0000  18.2500  47.5000 Du        
  13115 ****        18.0000  18.2500  47.7500 Du        
  13116 ****        18.0000  18.5000  47.5000 Du        
  13117 ****        18.0000  18.5000  47.7500 Du        
  13118 ****        18.0000  19.2500  43.7500 Du        
  13119 ****        18.0000  20.7500  36.2500 Du        
  13120 ****        18.0000  21.0000  36.2500 Du        
  13121 ****        18.0000  21.0000  36.5000 Du        
  13122 ****        18.0000  21.0000  36.7500 Du        
  13123 ****        18.0000  21.2500  36.2500 Du        
  13124 ****        18.0000  21.2500  36.5000 Du        
  13125 ****        18.0000  21.2500  36.7500 Du        
  13126 ****        18.0000  21.5000  36.2500 Du        
  13127 ****        18.0000  21.5000  36.5000 Du        
  13128 ****        18.0000  21.5000  36.7500 Du        
  13129 ****        18.0000  21.5000  37.0000 Du        
  13130 ****        18.2500 -19.5000  34.7500 Du        
  13131 ****        18.2500 -19.2500  34.5000 Du        
  13132 ****        18.2500 -19.2500  34.7500 Du        
  13133 ****        18.2500 -19.2500  35.0000 Du        
  13134 ****        18.2500 -19.0000  34.2500 Du        
  13135 ****        18.2500 -19.0000  34.5000 Du        
  13136 ****        18.2500 -19.0000  34.7500 Du        
  13137 ****        18.2500 -19.0000  35.0000 Du        
  13138 ****        18.2500 -18.7500  34.2500 Du        
  13139 ****        18.2500 -18.7500  34.5000 Du        
  13140 ****        18.2500 -18.7500  34.7500 Du        
  13141 ****        18.2500 -18.7500  35.0000 Du        
  13142 ****        18.2500 -18.5000  34.2500 Du        
  13143 ****        18.2500 -18.5000  34.5000 Du        
  13144 ****        18.2500 -18.5000  34.7500 Du        
  13145 ****        18.2500 -18.5000  35.0000 Du        
  13146 ****        18.2500 -18.2500  34.0000 Du        
  13147 ****        18.2500 -18.2500  34.2500 Du        
  13148 ****        18.2500 -18.2500  34.5000 Du        
  13149 ****        18.2500 -18.2500  34.7500 Du        
  13150 ****        18.2500 -18.0000  34.0000 Du        
  13151 ****        18.2500 -18.0000  34.2500 Du        
  13152 ****        18.2500 -18.0000  34.5000 Du        
  13153 ****        18.2500 -17.7500  34.0000 Du        
  13154 ****        18.2500 -17.7500  34.2500 Du        
  13155 ****        18.2500  -2.7500  28.0000 Du        
  13156 ****        18.2500   1.2500  29.7500 Du        
  13157 ****        18.2500   1.5000  21.5000 Du        
  13158 ****        18.2500   1.5000  21.7500 Du        
  13159 ****        18.2500   1.5000  22.0000 Du        
  13160 ****        18.2500   1.5000  22.2500 Du        
  13161 ****        18.2500   1.5000  22.5000 Du        
  13162 ****        18.2500   1.5000  22.7500 Du        
  13163 ****        18.2500   1.5000  23.0000 Du        
  13164 ****        18.2500   1.5000  23.2500 Du        
  13165 ****        18.2500   1.5000  23.5000 Du        
  13166 ****        18.2500   1.7500  21.5000 Du        
  13167 ****        18.2500   1.7500  21.7500 Du        
  13168 ****        18.2500   1.7500  22.0000 Du        
  13169 ****        18.2500   1.7500  22.2500 Du        
  13170 ****        18.2500   1.7500  22.5000 Du        
  13171 ****        18.2500   1.7500  22.7500 Du        
  13172 ****        18.2500   1.7500  23.0000 Du        
  13173 ****        18.2500   1.7500  23.2500 Du        
  13174 ****        18.2500   1.7500  23.5000 Du        
  13175 ****        18.2500   1.7500  23.7500 Du        
  13176 ****        18.2500   1.7500  29.5000 Du        
  13177 ****        18.2500   1.7500  29.7500 Du        
  13178 ****        18.2500   1.7500  30.0000 Du        
  13179 ****        18.2500   2.0000  21.7500 Du        
  13180 ****        18.2500   2.0000  22.0000 Du        
  13181 ****        18.2500   2.0000  22.2500 Du        
  13182 ****        18.2500   2.0000  22.5000 Du        
  13183 ****        18.2500   2.0000  22.7500 Du        
  13184 ****        18.2500   2.0000  23.0000 Du        
  13185 ****        18.2500   2.0000  23.2500 Du        
  13186 ****        18.2500   2.0000  23.5000 Du        
  13187 ****        18.2500   2.0000  23.7500 Du        
  13188 ****        18.2500   2.0000  24.0000 Du        
  13189 ****        18.2500   2.0000  29.2500 Du        
  13190 ****        18.2500   2.0000  29.7500 Du        
  13191 ****        18.2500   2.0000  30.0000 Du        
  13192 ****        18.2500   2.2500  21.7500 Du        
  13193 ****        18.2500   2.2500  22.0000 Du        
  13194 ****        18.2500   2.2500  22.2500 Du        
  13195 ****        18.2500   2.2500  22.5000 Du        
  13196 ****        18.2500   2.2500  22.7500 Du        
  13197 ****        18.2500   2.2500  23.0000 Du        
  13198 ****        18.2500   2.2500  23.2500 Du        
  13199 ****        18.2500   2.2500  23.5000 Du        
  13200 ****        18.2500   2.2500  23.7500 Du        
  13201 ****        18.2500   2.2500  24.0000 Du        
  13202 ****        18.2500   2.2500  29.7500 Du        
  13203 ****        18.2500   2.2500  30.0000 Du        
  13204 ****        18.2500   2.5000  22.0000 Du        
  13205 ****        18.2500   2.5000  22.2500 Du        
  13206 ****        18.2500   2.5000  22.5000 Du        
  13207 ****        18.2500   2.5000  22.7500 Du        
  13208 ****        18.2500   2.5000  23.0000 Du        
  13209 ****        18.2500   2.5000  23.2500 Du        
  13210 ****        18.2500   2.5000  23.5000 Du        
  13211 ****        18.2500   2.5000  23.7500 Du        
  13212 ****        18.2500   2.5000  24.0000 Du        
  13213 ****        18.2500   2.7500  22.2500 Du        
  13214 ****        18.2500   2.7500  22.5000 Du        
  13215 ****        18.2500   2.7500  22.7500 Du        
  13216 ****        18.2500   2.7500  23.0000 Du        
  13217 ****        18.2500   2.7500  23.2500 Du        
  13218 ****        18.2500   2.7500  23.5000 Du        
  13219 ****        18.2500   2.7500  23.7500 Du        
  13220 ****        18.2500   2.7500  24.0000 Du        
  13221 ****        18.2500   2.7500  30.2500 Du        
  13222 ****        18.2500   3.0000  22.7500 Du        
  13223 ****        18.2500   3.0000  23.0000 Du        
  13224 ****        18.2500   3.0000  23.2500 Du        
  13225 ****        18.2500   3.0000  23.5000 Du        
  13226 ****        18.2500   3.0000  23.7500 Du        
  13227 ****        18.2500   3.0000  24.0000 Du        
  13228 ****        18.2500   3.0000  24.2500 Du        
  13229 ****        18.2500   3.0000  30.2500 Du        
  13230 ****        18.2500   3.2500  23.0000 Du        
  13231 ****        18.2500   3.2500  23.2500 Du        
  13232 ****        18.2500   3.2500  23.5000 Du        
  13233 ****        18.2500   3.2500  23.7500 Du        
  13234 ****        18.2500   3.2500  24.0000 Du        
  13235 ****        18.2500   3.2500  24.2500 Du        
  13236 ****        18.2500   3.2500  30.0000 Du        
  13237 ****        18.2500   3.2500  30.2500 Du        
  13238 ****        18.2500   3.2500  30.5000 Du        
  13239 ****        18.2500   3.2500  30.7500 Du        
  13240 ****        18.2500   3.2500  31.0000 Du        
  13241 ****        18.2500   3.5000  23.2500 Du        
  13242 ****        18.2500   3.5000  23.5000 Du        
  13243 ****        18.2500   3.5000  23.7500 Du        
  13244 ****        18.2500   3.5000  24.0000 Du        
  13245 ****        18.2500   3.5000  24.2500 Du        
  13246 ****        18.2500   3.5000  24.5000 Du        
  13247 ****        18.2500   3.5000  30.2500 Du        
  13248 ****        18.2500   3.5000  30.5000 Du        
  13249 ****        18.2500   3.5000  30.7500 Du        
  13250 ****        18.2500   3.5000  31.0000 Du        
  13251 ****        18.2500   3.5000  31.2500 Du        
  13252 ****        18.2500   3.5000  31.5000 Du        
  13253 ****        18.2500   3.5000  31.7500 Du        
  13254 ****        18.2500   3.5000  32.0000 Du        
  13255 ****        18.2500   3.7500  23.5000 Du        
  13256 ****        18.2500   3.7500  23.7500 Du        
  13257 ****        18.2500   3.7500  24.0000 Du        
  13258 ****        18.2500   3.7500  24.2500 Du        
  13259 ****        18.2500   3.7500  24.5000 Du        
  13260 ****        18.2500   3.7500  30.0000 Du        
  13261 ****        18.2500   3.7500  30.5000 Du        
  13262 ****        18.2500   3.7500  30.7500 Du        
  13263 ****        18.2500   3.7500  31.0000 Du        
  13264 ****        18.2500   3.7500  31.2500 Du        
  13265 ****        18.2500   3.7500  31.5000 Du        
  13266 ****        18.2500   3.7500  31.7500 Du        
  13267 ****        18.2500   3.7500  32.0000 Du        
  13268 ****        18.2500   3.7500  32.2500 Du        
  13269 ****        18.2500   3.7500  32.5000 Du        
  13270 ****        18.2500   4.0000  23.7500 Du        
  13271 ****        18.2500   4.0000  24.0000 Du        
  13272 ****        18.2500   4.0000  24.2500 Du        
  13273 ****        18.2500   4.0000  24.5000 Du        
  13274 ****        18.2500   4.0000  24.7500 Du        
  13275 ****        18.2500   4.0000  29.7500 Du        
  13276 ****        18.2500   4.0000  30.2500 Du        
  13277 ****        18.2500   4.0000  30.5000 Du        
  13278 ****        18.2500   4.0000  30.7500 Du        
  13279 ****        18.2500   4.0000  31.0000 Du        
  13280 ****        18.2500   4.0000  31.2500 Du        
  13281 ****        18.2500   4.0000  31.5000 Du        
  13282 ****        18.2500   4.0000  31.7500 Du        
  13283 ****        18.2500   4.0000  32.0000 Du        
  13284 ****        18.2500   4.0000  32.2500 Du        
  13285 ****        18.2500   4.0000  32.5000 Du        
  13286 ****        18.2500   4.0000  32.7500 Du        
  13287 ****        18.2500   4.2500  24.0000 Du        
  13288 ****        18.2500   4.2500  24.2500 Du        
  13289 ****        18.2500   4.2500  24.5000 Du        
  13290 ****        18.2500   4.2500  24.7500 Du        
  13291 ****        18.2500   4.2500  25.0000 Du        
  13292 ****        18.2500   4.2500  30.5000 Du        
  13293 ****        18.2500   4.2500  30.7500 Du        
  13294 ****        18.2500   4.2500  31.0000 Du        
  13295 ****        18.2500   4.2500  31.2500 Du        
  13296 ****        18.2500   4.2500  31.5000 Du        
  13297 ****        18.2500   4.2500  31.7500 Du        
  13298 ****        18.2500   4.2500  32.0000 Du        
  13299 ****        18.2500   4.2500  32.2500 Du        
  13300 ****        18.2500   4.2500  32.5000 Du        
  13301 ****        18.2500   4.2500  32.7500 Du        
  13302 ****        18.2500   4.5000  24.2500 Du        
  13303 ****        18.2500   4.5000  24.5000 Du        
  13304 ****        18.2500   4.5000  24.7500 Du        
  13305 ****        18.2500   4.5000  25.0000 Du        
  13306 ****        18.2500   4.5000  25.2500 Du        
  13307 ****        18.2500   4.5000  30.7500 Du        
  13308 ****        18.2500   4.5000  31.0000 Du        
  13309 ****        18.2500   4.5000  31.2500 Du        
  13310 ****        18.2500   4.5000  31.5000 Du        
  13311 ****        18.2500   4.5000  31.7500 Du        
  13312 ****        18.2500   4.5000  32.0000 Du        
  13313 ****        18.2500   4.5000  32.2500 Du        
  13314 ****        18.2500   4.5000  32.5000 Du        
  13315 ****        18.2500   4.5000  32.7500 Du        
  13316 ****        18.2500   4.7500  24.7500 Du        
  13317 ****        18.2500   4.7500  25.0000 Du        
  13318 ****        18.2500   4.7500  25.2500 Du        
  13319 ****        18.2500   4.7500  25.5000 Du        
  13320 ****        18.2500   4.7500  25.7500 Du        
  13321 ****        18.2500   4.7500  26.0000 Du        
  13322 ****        18.2500   4.7500  30.7500 Du        
  13323 ****        18.2500   4.7500  31.0000 Du        
  13324 ****        18.2500   4.7500  31.2500 Du        
  13325 ****        18.2500   4.7500  31.5000 Du        
  13326 ****        18.2500   4.7500  31.7500 Du        
  13327 ****        18.2500   4.7500  32.0000 Du        
  13328 ****        18.2500   4.7500  32.2500 Du        
  13329 ****        18.2500   4.7500  32.5000 Du        
  13330 ****        18.2500   5.0000  25.0000 Du        
  13331 ****        18.2500   5.0000  25.2500 Du        
  13332 ****        18.2500   5.0000  25.5000 Du        
  13333 ****        18.2500   5.0000  25.7500 Du        
  13334 ****        18.2500   5.0000  26.0000 Du        
  13335 ****        18.2500   5.0000  26.2500 Du        
  13336 ****        18.2500   5.0000  26.5000 Du        
  13337 ****        18.2500   5.0000  30.7500 Du        
  13338 ****        18.2500   5.0000  31.0000 Du        
  13339 ****        18.2500   5.0000  31.2500 Du        
  13340 ****        18.2500   5.0000  31.5000 Du        
  13341 ****        18.2500   5.0000  31.7500 Du        
  13342 ****        18.2500   5.0000  32.0000 Du        
  13343 ****        18.2500   5.0000  32.2500 Du        
  13344 ****        18.2500   5.0000  32.5000 Du        
  13345 ****        18.2500   5.2500  25.2500 Du        
  13346 ****        18.2500   5.2500  25.5000 Du        
  13347 ****        18.2500   5.2500  25.7500 Du        
  13348 ****        18.2500   5.2500  26.0000 Du        
  13349 ****        18.2500   5.2500  26.2500 Du        
  13350 ****        18.2500   5.2500  26.5000 Du        
  13351 ****        18.2500   5.2500  26.7500 Du        
  13352 ****        18.2500   5.2500  30.7500 Du        
  13353 ****        18.2500   5.2500  31.0000 Du        
  13354 ****        18.2500   5.2500  31.2500 Du        
  13355 ****        18.2500   5.2500  31.5000 Du        
  13356 ****        18.2500   5.2500  31.7500 Du        
  13357 ****        18.2500   5.2500  32.0000 Du        
  13358 ****        18.2500   5.5000  25.5000 Du        
  13359 ****        18.2500   5.5000  25.7500 Du        
  13360 ****        18.2500   5.5000  26.0000 Du        
  13361 ****        18.2500   5.5000  26.2500 Du        
  13362 ****        18.2500   5.5000  26.5000 Du        
  13363 ****        18.2500   5.5000  26.7500 Du        
  13364 ****        18.2500   5.5000  31.0000 Du        
  13365 ****        18.2500   5.5000  31.2500 Du        
  13366 ****        18.2500   5.5000  31.5000 Du        
  13367 ****        18.2500   5.5000  31.7500 Du        
  13368 ****        18.2500   5.5000  32.0000 Du        
  13369 ****        18.2500   5.7500  25.7500 Du        
  13370 ****        18.2500   5.7500  26.0000 Du        
  13371 ****        18.2500   5.7500  26.2500 Du        
  13372 ****        18.2500   5.7500  26.5000 Du        
  13373 ****        18.2500   5.7500  26.7500 Du        
  13374 ****        18.2500   5.7500  31.0000 Du        
  13375 ****        18.2500   5.7500  31.2500 Du        
  13376 ****        18.2500   5.7500  31.5000 Du        
  13377 ****        18.2500   5.7500  31.7500 Du        
  13378 ****        18.2500   6.0000  26.0000 Du        
  13379 ****        18.2500   6.0000  26.2500 Du        
  13380 ****        18.2500   6.0000  26.5000 Du        
  13381 ****        18.2500   6.0000  26.7500 Du        
  13382 ****        18.2500   6.0000  27.0000 Du        
  13383 ****        18.2500   6.0000  31.5000 Du        
  13384 ****        18.2500   6.0000  31.7500 Du        
  13385 ****        18.2500   6.2500  26.0000 Du        
  13386 ****        18.2500   6.2500  26.2500 Du        
  13387 ****        18.2500   6.2500  26.5000 Du        
  13388 ****        18.2500   6.2500  26.7500 Du        
  13389 ****        18.2500   6.2500  27.0000 Du        
  13390 ****        18.2500   6.2500  31.7500 Du        
  13391 ****        18.2500   6.5000  26.2500 Du        
  13392 ****        18.2500   6.5000  26.5000 Du        
  13393 ****        18.2500   6.5000  26.7500 Du        
  13394 ****        18.2500   6.5000  27.0000 Du        
  13395 ****        18.2500   6.5000  27.2500 Du        
  13396 ****        18.2500   6.7500  26.5000 Du        
  13397 ****        18.2500   6.7500  26.7500 Du        
  13398 ****        18.2500   6.7500  27.0000 Du        
  13399 ****        18.2500  12.2500  38.0000 Du        
  13400 ****        18.2500  13.0000  38.5000 Du        
  13401 ****        18.2500  13.2500  38.5000 Du        
  13402 ****        18.2500  13.5000  38.5000 Du        
  13403 ****        18.2500  13.5000  38.7500 Du        
  13404 ****        18.2500  13.7500  38.7500 Du        
  13405 ****        18.2500  14.0000  38.7500 Du        
  13406 ****        18.2500  14.0000  39.0000 Du        
  13407 ****        18.2500  14.2500  39.0000 Du        
  13408 ****        18.2500  14.5000  32.7500 Du        
  13409 ****        18.2500  14.5000  33.0000 Du        
  13410 ****        18.2500  14.5000  33.2500 Du        
  13411 ****        18.2500  14.7500  32.2500 Du        
  13412 ****        18.2500  14.7500  32.5000 Du        
  13413 ****        18.2500  14.7500  32.7500 Du        
  13414 ****        18.2500  14.7500  33.0000 Du        
  13415 ****        18.2500  14.7500  33.2500 Du        
  13416 ****        18.2500  15.0000  32.2500 Du        
  13417 ****        18.2500  15.0000  32.5000 Du        
  13418 ****        18.2500  15.0000  32.7500 Du        
  13419 ****        18.2500  15.0000  33.0000 Du        
  13420 ****        18.2500  15.0000  33.2500 Du        
  13421 ****        18.2500  15.2500  32.2500 Du        
  13422 ****        18.2500  15.2500  32.5000 Du        
  13423 ****        18.2500  15.2500  32.7500 Du        
  13424 ****        18.2500  15.2500  33.0000 Du        
  13425 ****        18.2500  15.2500  33.2500 Du        
  13426 ****        18.2500  15.5000  32.0000 Du        
  13427 ****        18.2500  15.5000  32.2500 Du        
  13428 ****        18.2500  15.5000  32.5000 Du        
  13429 ****        18.2500  15.5000  32.7500 Du        
  13430 ****        18.2500  15.5000  33.0000 Du        
  13431 ****        18.2500  15.5000  33.2500 Du        
  13432 ****        18.2500  15.7500  32.0000 Du        
  13433 ****        18.2500  15.7500  32.2500 Du        
  13434 ****        18.2500  15.7500  32.5000 Du        
  13435 ****        18.2500  15.7500  32.7500 Du        
  13436 ****        18.2500  15.7500  33.0000 Du        
  13437 ****        18.2500  15.7500  33.2500 Du        
  13438 ****        18.2500  16.0000  32.0000 Du        
  13439 ****        18.2500  16.0000  32.2500 Du        
  13440 ****        18.2500  16.0000  32.5000 Du        
  13441 ****        18.2500  16.0000  32.7500 Du        
  13442 ****        18.2500  16.0000  33.0000 Du        
  13443 ****        18.2500  16.0000  33.2500 Du        
  13444 ****        18.2500  16.2500  32.0000 Du        
  13445 ****        18.2500  16.2500  32.2500 Du        
  13446 ****        18.2500  16.2500  32.5000 Du        
  13447 ****        18.2500  16.2500  32.7500 Du        
  13448 ****        18.2500  16.2500  33.0000 Du        
  13449 ****        18.2500  16.2500  33.2500 Du        
  13450 ****        18.2500  16.5000  32.2500 Du        
  13451 ****        18.2500  16.5000  32.5000 Du        
  13452 ****        18.2500  16.5000  32.7500 Du        
  13453 ****        18.2500  16.5000  33.0000 Du        
  13454 ****        18.2500  16.5000  33.2500 Du        
  13455 ****        18.2500  16.5000  45.7500 Du        
  13456 ****        18.2500  16.5000  46.0000 Du        
  13457 ****        18.2500  16.5000  46.2500 Du        
  13458 ****        18.2500  16.7500  32.7500 Du        
  13459 ****        18.2500  16.7500  33.0000 Du        
  13460 ****        18.2500  16.7500  33.2500 Du        
  13461 ****        18.2500  16.7500  45.7500 Du        
  13462 ****        18.2500  16.7500  46.0000 Du        
  13463 ****        18.2500  16.7500  46.2500 Du        
  13464 ****        18.2500  16.7500  46.5000 Du        
  13465 ****        18.2500  16.7500  46.7500 Du        
  13466 ****        18.2500  17.0000  45.7500 Du        
  13467 ****        18.2500  17.0000  46.0000 Du        
  13468 ****        18.2500  17.0000  46.2500 Du        
  13469 ****        18.2500  17.0000  46.5000 Du        
  13470 ****        18.2500  17.0000  46.7500 Du        
  13471 ****        18.2500  17.0000  47.0000 Du        
  13472 ****        18.2500  17.0000  47.2500 Du        
  13473 ****        18.2500  17.0000  47.5000 Du        
  13474 ****        18.2500  17.0000  47.7500 Du        
  13475 ****        18.2500  17.2500  45.5000 Du        
  13476 ****        18.2500  17.2500  45.7500 Du        
  13477 ****        18.2500  17.2500  46.0000 Du        
  13478 ****        18.2500  17.2500  46.2500 Du        
  13479 ****        18.2500  17.2500  46.5000 Du        
  13480 ****        18.2500  17.2500  46.7500 Du        
  13481 ****        18.2500  17.2500  47.0000 Du        
  13482 ****        18.2500  17.2500  47.2500 Du        
  13483 ****        18.2500  17.2500  47.5000 Du        
  13484 ****        18.2500  17.2500  47.7500 Du        
  13485 ****        18.2500  17.5000  45.5000 Du        
  13486 ****        18.2500  17.5000  45.7500 Du        
  13487 ****        18.2500  17.5000  46.0000 Du        
  13488 ****        18.2500  17.5000  46.2500 Du        
  13489 ****        18.2500  17.5000  46.5000 Du        
  13490 ****        18.2500  17.5000  46.7500 Du        
  13491 ****        18.2500  17.5000  47.0000 Du        
  13492 ****        18.2500  17.5000  47.2500 Du        
  13493 ****        18.2500  17.5000  47.5000 Du        
  13494 ****        18.2500  17.5000  47.7500 Du        
  13495 ****        18.2500  17.7500  45.5000 Du        
  13496 ****        18.2500  17.7500  45.7500 Du        
  13497 ****        18.2500  17.7500  46.0000 Du        
  13498 ****        18.2500  17.7500  46.2500 Du        
  13499 ****        18.2500  17.7500  46.5000 Du        
  13500 ****        18.2500  17.7500  46.7500 Du        
  13501 ****        18.2500  17.7500  47.0000 Du        
  13502 ****        18.2500  17.7500  47.2500 Du        
  13503 ****        18.2500  17.7500  47.5000 Du        
  13504 ****        18.2500  17.7500  47.7500 Du        
  13505 ****        18.2500  18.0000  45.2500 Du        
  13506 ****        18.2500  18.0000  45.5000 Du        
  13507 ****        18.2500  18.0000  45.7500 Du        
  13508 ****        18.2500  18.0000  46.0000 Du        
  13509 ****        18.2500  18.0000  46.2500 Du        
  13510 ****        18.2500  18.0000  46.5000 Du        
  13511 ****        18.2500  18.0000  46.7500 Du        
  13512 ****        18.2500  18.0000  47.0000 Du        
  13513 ****        18.2500  18.0000  47.2500 Du        
  13514 ****        18.2500  18.0000  47.5000 Du        
  13515 ****        18.2500  18.0000  47.7500 Du        
  13516 ****        18.2500  18.2500  46.5000 Du        
  13517 ****        18.2500  18.2500  46.7500 Du        
  13518 ****        18.2500  18.2500  47.0000 Du        
  13519 ****        18.2500  18.2500  47.2500 Du        
  13520 ****        18.2500  18.2500  47.5000 Du        
  13521 ****        18.2500  18.2500  47.7500 Du        
  13522 ****        18.2500  18.5000  47.7500 Du        
  13523 ****        18.2500  20.7500  36.2500 Du        
  13524 ****        18.2500  21.0000  36.2500 Du        
  13525 ****        18.2500  21.0000  36.5000 Du        
  13526 ****        18.2500  21.0000  36.7500 Du        
  13527 ****        18.2500  21.2500  36.2500 Du        
  13528 ****        18.2500  21.2500  36.5000 Du        
  13529 ****        18.2500  21.2500  36.7500 Du        
  13530 ****        18.2500  21.5000  36.2500 Du        
  13531 ****        18.2500  21.5000  36.5000 Du        
  13532 ****        18.2500  21.5000  36.7500 Du        
  13533 ****        18.5000 -19.5000  34.7500 Du        
  13534 ****        18.5000 -19.5000  35.0000 Du        
  13535 ****        18.5000 -19.5000  35.2500 Du        
  13536 ****        18.5000 -19.2500  34.7500 Du        
  13537 ****        18.5000 -19.2500  35.0000 Du        
  13538 ****        18.5000 -19.2500  35.2500 Du        
  13539 ****        18.5000 -19.2500  35.5000 Du        
  13540 ****        18.5000 -19.0000  34.5000 Du        
  13541 ****        18.5000 -19.0000  34.7500 Du        
  13542 ****        18.5000 -19.0000  35.0000 Du        
  13543 ****        18.5000 -19.0000  35.2500 Du        
  13544 ****        18.5000 -19.0000  35.5000 Du        
  13545 ****        18.5000 -18.7500  34.5000 Du        
  13546 ****        18.5000 -18.7500  34.7500 Du        
  13547 ****        18.5000 -18.7500  35.0000 Du        
  13548 ****        18.5000 -18.7500  35.2500 Du        
  13549 ****        18.5000 -18.5000  34.5000 Du        
  13550 ****        18.5000 -18.5000  34.7500 Du        
  13551 ****        18.5000 -18.5000  35.0000 Du        
  13552 ****        18.5000 -18.2500  34.5000 Du        
  13553 ****        18.5000 -18.2500  34.7500 Du        
  13554 ****        18.5000 -18.2500  35.0000 Du        
  13555 ****        18.5000 -18.0000  34.5000 Du        
  13556 ****        18.5000 -18.0000  34.7500 Du        
  13557 ****        18.5000 -17.7500  34.5000 Du        
  13558 ****        18.5000   1.5000  21.7500 Du        
  13559 ****        18.5000   1.5000  22.0000 Du        
  13560 ****        18.5000   1.5000  22.2500 Du        
  13561 ****        18.5000   1.5000  22.5000 Du        
  13562 ****        18.5000   1.5000  22.7500 Du        
  13563 ****        18.5000   1.7500  22.0000 Du        
  13564 ****        18.5000   1.7500  22.2500 Du        
  13565 ****        18.5000   1.7500  22.5000 Du        
  13566 ****        18.5000   1.7500  22.7500 Du        
  13567 ****        18.5000   1.7500  23.0000 Du        
  13568 ****        18.5000   1.7500  23.2500 Du        
  13569 ****        18.5000   1.7500  23.5000 Du        
  13570 ****        18.5000   1.7500  23.7500 Du        
  13571 ****        18.5000   2.0000  22.0000 Du        
  13572 ****        18.5000   2.0000  22.2500 Du        
  13573 ****        18.5000   2.0000  22.5000 Du        
  13574 ****        18.5000   2.0000  22.7500 Du        
  13575 ****        18.5000   2.0000  23.0000 Du        
  13576 ****        18.5000   2.0000  23.2500 Du        
  13577 ****        18.5000   2.0000  23.5000 Du        
  13578 ****        18.5000   2.0000  23.7500 Du        
  13579 ****        18.5000   2.2500  22.2500 Du        
  13580 ****        18.5000   2.2500  22.5000 Du        
  13581 ****        18.5000   2.2500  22.7500 Du        
  13582 ****        18.5000   2.2500  23.0000 Du        
  13583 ****        18.5000   2.2500  23.2500 Du        
  13584 ****        18.5000   2.2500  23.5000 Du        
  13585 ****        18.5000   2.2500  23.7500 Du        
  13586 ****        18.5000   2.2500  24.0000 Du        
  13587 ****        18.5000   2.5000  22.2500 Du        
  13588 ****        18.5000   2.5000  22.5000 Du        
  13589 ****        18.5000   2.5000  22.7500 Du        
  13590 ****        18.5000   2.5000  23.0000 Du        
  13591 ****        18.5000   2.5000  23.2500 Du        
  13592 ****        18.5000   2.5000  23.5000 Du        
  13593 ****        18.5000   2.5000  23.7500 Du        
  13594 ****        18.5000   2.5000  24.0000 Du        
  13595 ****        18.5000   2.5000  24.2500 Du        
  13596 ****        18.5000   2.7500  22.5000 Du        
  13597 ****        18.5000   2.7500  22.7500 Du        
  13598 ****        18.5000   2.7500  23.0000 Du        
  13599 ****        18.5000   2.7500  23.2500 Du        
  13600 ****        18.5000   2.7500  23.5000 Du        
  13601 ****        18.5000   2.7500  23.7500 Du        
  13602 ****        18.5000   2.7500  24.0000 Du        
  13603 ****        18.5000   2.7500  24.2500 Du        
  13604 ****        18.5000   3.0000  23.0000 Du        
  13605 ****        18.5000   3.0000  23.2500 Du        
  13606 ****        18.5000   3.0000  23.5000 Du        
  13607 ****        18.5000   3.0000  23.7500 Du        
  13608 ****        18.5000   3.0000  24.0000 Du        
  13609 ****        18.5000   3.0000  24.2500 Du        
  13610 ****        18.5000   3.2500  23.2500 Du        
  13611 ****        18.5000   3.2500  23.5000 Du        
  13612 ****        18.5000   3.2500  23.7500 Du        
  13613 ****        18.5000   3.2500  24.0000 Du        
  13614 ****        18.5000   3.2500  24.2500 Du        
  13615 ****        18.5000   3.2500  24.5000 Du        
  13616 ****        18.5000   3.5000  23.5000 Du        
  13617 ****        18.5000   3.5000  23.7500 Du        
  13618 ****        18.5000   3.5000  24.0000 Du        
  13619 ****        18.5000   3.5000  24.2500 Du        
  13620 ****        18.5000   3.5000  24.5000 Du        
  13621 ****        18.5000   3.7500  23.5000 Du        
  13622 ****        18.5000   3.7500  23.7500 Du        
  13623 ****        18.5000   3.7500  24.0000 Du        
  13624 ****        18.5000   3.7500  24.2500 Du        
  13625 ****        18.5000   3.7500  24.5000 Du        
  13626 ****        18.5000   3.7500  24.7500 Du        
  13627 ****        18.5000   3.7500  31.7500 Du        
  13628 ****        18.5000   3.7500  32.0000 Du        
  13629 ****        18.5000   4.0000  23.7500 Du        
  13630 ****        18.5000   4.0000  24.0000 Du        
  13631 ****        18.5000   4.0000  24.2500 Du        
  13632 ****        18.5000   4.0000  24.5000 Du        
  13633 ****        18.5000   4.0000  24.7500 Du        
  13634 ****        18.5000   4.0000  31.7500 Du        
  13635 ****        18.5000   4.0000  32.0000 Du        
  13636 ****        18.5000   4.0000  32.2500 Du        
  13637 ****        18.5000   4.0000  32.5000 Du        
  13638 ****        18.5000   4.2500  24.0000 Du        
  13639 ****        18.5000   4.2500  24.2500 Du        
  13640 ****        18.5000   4.2500  24.5000 Du        
  13641 ****        18.5000   4.2500  24.7500 Du        
  13642 ****        18.5000   4.2500  25.0000 Du        
  13643 ****        18.5000   4.2500  31.7500 Du        
  13644 ****        18.5000   4.2500  32.0000 Du        
  13645 ****        18.5000   4.2500  32.2500 Du        
  13646 ****        18.5000   4.2500  32.5000 Du        
  13647 ****        18.5000   4.2500  32.7500 Du        
  13648 ****        18.5000   4.5000  24.5000 Du        
  13649 ****        18.5000   4.5000  24.7500 Du        
  13650 ****        18.5000   4.5000  25.0000 Du        
  13651 ****        18.5000   4.5000  25.2500 Du        
  13652 ****        18.5000   4.5000  31.5000 Du        
  13653 ****        18.5000   4.5000  31.7500 Du        
  13654 ****        18.5000   4.5000  32.0000 Du        
  13655 ****        18.5000   4.5000  32.2500 Du        
  13656 ****        18.5000   4.5000  32.5000 Du        
  13657 ****        18.5000   4.5000  32.7500 Du        
  13658 ****        18.5000   4.7500  24.7500 Du        
  13659 ****        18.5000   4.7500  25.0000 Du        
  13660 ****        18.5000   4.7500  25.2500 Du        
  13661 ****        18.5000   4.7500  25.5000 Du        
  13662 ****        18.5000   4.7500  31.5000 Du        
  13663 ****        18.5000   4.7500  31.7500 Du        
  13664 ****        18.5000   4.7500  32.0000 Du        
  13665 ****        18.5000   4.7500  32.2500 Du        
  13666 ****        18.5000   4.7500  32.5000 Du        
  13667 ****        18.5000   4.7500  32.7500 Du        
  13668 ****        18.5000   5.0000  25.0000 Du        
  13669 ****        18.5000   5.0000  25.2500 Du        
  13670 ****        18.5000   5.0000  25.5000 Du        
  13671 ****        18.5000   5.0000  25.7500 Du        
  13672 ****        18.5000   5.0000  26.0000 Du        
  13673 ****        18.5000   5.0000  31.5000 Du        
  13674 ****        18.5000   5.0000  31.7500 Du        
  13675 ****        18.5000   5.0000  32.0000 Du        
  13676 ****        18.5000   5.0000  32.2500 Du        
  13677 ****        18.5000   5.0000  32.5000 Du        
  13678 ****        18.5000   5.2500  25.2500 Du        
  13679 ****        18.5000   5.2500  25.5000 Du        
  13680 ****        18.5000   5.2500  25.7500 Du        
  13681 ****        18.5000   5.2500  26.0000 Du        
  13682 ****        18.5000   5.2500  31.5000 Du        
  13683 ****        18.5000   5.2500  31.7500 Du        
  13684 ****        18.5000   5.2500  32.0000 Du        
  13685 ****        18.5000   5.5000  31.5000 Du        
  13686 ****        18.5000   5.5000  31.7500 Du        
  13687 ****        18.5000   5.5000  32.0000 Du        
  13688 ****        18.5000   5.5000  32.2500 Du        
  13689 ****        18.5000   5.7500  31.5000 Du        
  13690 ****        18.5000   5.7500  31.7500 Du        
  13691 ****        18.5000   5.7500  32.0000 Du        
  13692 ****        18.5000   6.0000  31.5000 Du        
  13693 ****        18.5000   6.0000  31.7500 Du        
  13694 ****        18.5000   6.0000  32.0000 Du        
  13695 ****        18.5000   6.2500  31.7500 Du        
  13696 ****        18.5000   6.2500  32.0000 Du        
  13697 ****        18.5000  14.7500  32.7500 Du        
  13698 ****        18.5000  14.7500  33.0000 Du        
  13699 ****        18.5000  15.0000  32.2500 Du        
  13700 ****        18.5000  15.0000  32.5000 Du        
  13701 ****        18.5000  15.0000  32.7500 Du        
  13702 ****        18.5000  15.0000  33.0000 Du        
  13703 ****        18.5000  15.2500  32.2500 Du        
  13704 ****        18.5000  15.2500  32.5000 Du        
  13705 ****        18.5000  15.2500  32.7500 Du        
  13706 ****        18.5000  15.2500  33.0000 Du        
  13707 ****        18.5000  15.2500  33.2500 Du        
  13708 ****        18.5000  15.5000  32.2500 Du        
  13709 ****        18.5000  15.5000  32.5000 Du        
  13710 ****        18.5000  15.5000  32.7500 Du        
  13711 ****        18.5000  15.5000  33.0000 Du        
  13712 ****        18.5000  15.7500  32.2500 Du        
  13713 ****        18.5000  15.7500  32.5000 Du        
  13714 ****        18.5000  15.7500  32.7500 Du        
  13715 ****        18.5000  15.7500  33.0000 Du        
  13716 ****        18.5000  16.0000  32.2500 Du        
  13717 ****        18.5000  16.0000  32.5000 Du        
  13718 ****        18.5000  16.0000  32.7500 Du        
  13719 ****        18.5000  16.0000  33.0000 Du        
  13720 ****        18.5000  16.2500  32.2500 Du        
  13721 ****        18.5000  16.2500  32.5000 Du        
  13722 ****        18.5000  16.2500  32.7500 Du        
  13723 ****        18.5000  16.2500  33.0000 Du        
  13724 ****        18.5000  16.5000  46.2500 Du        
  13725 ****        18.5000  16.5000  46.5000 Du        
  13726 ****        18.5000  16.5000  46.7500 Du        
  13727 ****        18.5000  16.7500  46.0000 Du        
  13728 ****        18.5000  16.7500  46.2500 Du        
  13729 ****        18.5000  16.7500  46.5000 Du        
  13730 ****        18.5000  16.7500  46.7500 Du        
  13731 ****        18.5000  16.7500  47.0000 Du        
  13732 ****        18.5000  16.7500  47.2500 Du        
  13733 ****        18.5000  16.7500  47.5000 Du        
  13734 ****        18.5000  17.0000  46.0000 Du        
  13735 ****        18.5000  17.0000  46.2500 Du        
  13736 ****        18.5000  17.0000  46.5000 Du        
  13737 ****        18.5000  17.0000  46.7500 Du        
  13738 ****        18.5000  17.0000  47.0000 Du        
  13739 ****        18.5000  17.0000  47.2500 Du        
  13740 ****        18.5000  17.0000  47.5000 Du        
  13741 ****        18.5000  17.0000  47.7500 Du        
  13742 ****        18.5000  17.2500  46.0000 Du        
  13743 ****        18.5000  17.2500  46.2500 Du        
  13744 ****        18.5000  17.2500  46.5000 Du        
  13745 ****        18.5000  17.2500  46.7500 Du        
  13746 ****        18.5000  17.2500  47.0000 Du        
  13747 ****        18.5000  17.2500  47.2500 Du        
  13748 ****        18.5000  17.2500  47.5000 Du        
  13749 ****        18.5000  17.2500  47.7500 Du        
  13750 ****        18.5000  17.5000  46.0000 Du        
  13751 ****        18.5000  17.5000  46.2500 Du        
  13752 ****        18.5000  17.5000  46.5000 Du        
  13753 ****        18.5000  17.5000  46.7500 Du        
  13754 ****        18.5000  17.5000  47.0000 Du        
  13755 ****        18.5000  17.5000  47.2500 Du        
  13756 ****        18.5000  17.5000  47.5000 Du        
  13757 ****        18.5000  17.5000  47.7500 Du        
  13758 ****        18.5000  17.7500  45.7500 Du        
  13759 ****        18.5000  17.7500  46.0000 Du        
  13760 ****        18.5000  17.7500  46.2500 Du        
  13761 ****        18.5000  17.7500  46.5000 Du        
  13762 ****        18.5000  17.7500  46.7500 Du        
  13763 ****        18.5000  17.7500  47.0000 Du        
  13764 ****        18.5000  17.7500  47.2500 Du        
  13765 ****        18.5000  17.7500  47.5000 Du        
  13766 ****        18.5000  17.7500  47.7500 Du        
  13767 ****        18.5000  18.0000  46.0000 Du        
  13768 ****        18.5000  18.0000  46.2500 Du        
  13769 ****        18.5000  18.0000  46.5000 Du        
  13770 ****        18.5000  18.0000  46.7500 Du        
  13771 ****        18.5000  18.0000  47.0000 Du        
  13772 ****        18.5000  18.0000  47.2500 Du        
  13773 ****        18.5000  18.0000  47.5000 Du        
  13774 ****        18.5000  18.0000  47.7500 Du        
  13775 ****        18.5000  18.2500  47.2500 Du        
  13776 ****        18.5000  18.2500  47.5000 Du        
  13777 ****        18.5000  18.2500  47.7500 Du        
  13778 ****        18.5000  20.5000  36.2500 Du        
  13779 ****        18.5000  20.7500  36.2500 Du        
  13780 ****        18.5000  21.0000  36.2500 Du        
  13781 ****        18.5000  21.2500  36.2500 Du        
  13782 ****        18.5000  21.5000  36.2500 Du        
  13783 ****        18.7500 -19.7500  34.7500 Du        
  13784 ****        18.7500 -19.7500  35.0000 Du        
  13785 ****        18.7500 -19.7500  35.2500 Du        
  13786 ****        18.7500 -19.7500  35.5000 Du        
  13787 ****        18.7500 -19.5000  34.7500 Du        
  13788 ****        18.7500 -19.5000  35.0000 Du        
  13789 ****        18.7500 -19.5000  35.2500 Du        
  13790 ****        18.7500 -19.5000  35.5000 Du        
  13791 ****        18.7500 -19.2500  34.5000 Du        
  13792 ****        18.7500 -19.2500  34.7500 Du        
  13793 ****        18.7500 -19.2500  35.0000 Du        
  13794 ****        18.7500 -19.2500  35.2500 Du        
  13795 ****        18.7500 -19.2500  35.5000 Du        
  13796 ****        18.7500 -19.0000  34.5000 Du        
  13797 ****        18.7500 -19.0000  34.7500 Du        
  13798 ****        18.7500 -19.0000  35.0000 Du        
  13799 ****        18.7500 -19.0000  35.2500 Du        
  13800 ****        18.7500 -19.0000  35.5000 Du        
  13801 ****        18.7500 -18.7500  34.5000 Du        
  13802 ****        18.7500 -18.7500  34.7500 Du        
  13803 ****        18.7500 -18.7500  35.0000 Du        
  13804 ****        18.7500 -18.7500  35.2500 Du        
  13805 ****        18.7500 -18.7500  35.5000 Du        
  13806 ****        18.7500 -18.5000  34.5000 Du        
  13807 ****        18.7500 -18.5000  34.7500 Du        
  13808 ****        18.7500 -18.5000  35.0000 Du        
  13809 ****        18.7500 -18.5000  35.2500 Du        
  13810 ****        18.7500 -18.2500  34.5000 Du        
  13811 ****        18.7500 -18.2500  34.7500 Du        
  13812 ****        18.7500 -18.2500  35.0000 Du        
  13813 ****        18.7500 -18.2500  35.2500 Du        
  13814 ****        18.7500 -18.0000  34.2500 Du        
  13815 ****        18.7500 -18.0000  34.5000 Du        
  13816 ****        18.7500 -18.0000  34.7500 Du        
  13817 ****        18.7500 -18.0000  35.0000 Du        
  13818 ****        18.7500 -17.7500  34.5000 Du        
  13819 ****        18.7500 -17.7500  34.7500 Du        
  13820 ****        18.7500 -17.5000  34.5000 Du        
  13821 ****        18.7500 -17.2500  34.5000 Du        
  13822 ****        18.7500 -16.5000  34.0000 Du        
  13823 ****        18.7500 -16.5000  34.2500 Du        
  13824 ****        18.7500 -16.2500  34.0000 Du        
  13825 ****        18.7500 -16.2500  34.2500 Du        
  13826 ****        18.7500   1.5000  22.2500 Du        
  13827 ****        18.7500   1.5000  22.5000 Du        
  13828 ****        18.7500   1.5000  22.7500 Du        
  13829 ****        18.7500   1.5000  23.0000 Du        
  13830 ****        18.7500   1.5000  23.5000 Du        
  13831 ****        18.7500   1.7500  22.2500 Du        
  13832 ****        18.7500   1.7500  22.5000 Du        
  13833 ****        18.7500   1.7500  22.7500 Du        
  13834 ****        18.7500   1.7500  23.0000 Du        
  13835 ****        18.7500   1.7500  23.2500 Du        
  13836 ****        18.7500   1.7500  23.5000 Du        
  13837 ****        18.7500   1.7500  23.7500 Du        
  13838 ****        18.7500   2.0000  22.5000 Du        
  13839 ****        18.7500   2.0000  22.7500 Du        
  13840 ****        18.7500   2.0000  23.0000 Du        
  13841 ****        18.7500   2.0000  23.2500 Du        
  13842 ****        18.7500   2.0000  23.5000 Du        
  13843 ****        18.7500   2.0000  23.7500 Du        
  13844 ****        18.7500   2.0000  24.0000 Du        
  13845 ****        18.7500   2.2500  22.5000 Du        
  13846 ****        18.7500   2.2500  22.7500 Du        
  13847 ****        18.7500   2.2500  23.0000 Du        
  13848 ****        18.7500   2.2500  23.2500 Du        
  13849 ****        18.7500   2.2500  23.5000 Du        
  13850 ****        18.7500   2.2500  23.7500 Du        
  13851 ****        18.7500   2.2500  24.0000 Du        
  13852 ****        18.7500   2.5000  22.7500 Du        
  13853 ****        18.7500   2.5000  23.0000 Du        
  13854 ****        18.7500   2.5000  23.2500 Du        
  13855 ****        18.7500   2.5000  23.5000 Du        
  13856 ****        18.7500   2.5000  23.7500 Du        
  13857 ****        18.7500   2.5000  24.0000 Du        
  13858 ****        18.7500   2.5000  24.2500 Du        
  13859 ****        18.7500   2.7500  22.7500 Du        
  13860 ****        18.7500   2.7500  23.0000 Du        
  13861 ****        18.7500   2.7500  23.2500 Du        
  13862 ****        18.7500   2.7500  23.5000 Du        
  13863 ****        18.7500   2.7500  23.7500 Du        
  13864 ****        18.7500   2.7500  24.0000 Du        
  13865 ****        18.7500   2.7500  24.2500 Du        
  13866 ****        18.7500   2.7500  24.5000 Du        
  13867 ****        18.7500   3.0000  23.2500 Du        
  13868 ****        18.7500   3.0000  23.5000 Du        
  13869 ****        18.7500   3.0000  23.7500 Du        
  13870 ****        18.7500   3.0000  24.0000 Du        
  13871 ****        18.7500   3.0000  24.2500 Du        
  13872 ****        18.7500   3.0000  24.5000 Du        
  13873 ****        18.7500   3.2500  23.2500 Du        
  13874 ****        18.7500   3.2500  23.5000 Du        
  13875 ****        18.7500   3.2500  23.7500 Du        
  13876 ****        18.7500   3.2500  24.0000 Du        
  13877 ****        18.7500   3.2500  24.2500 Du        
  13878 ****        18.7500   3.2500  24.5000 Du        
  13879 ****        18.7500   3.5000  23.5000 Du        
  13880 ****        18.7500   3.5000  23.7500 Du        
  13881 ****        18.7500   3.5000  24.0000 Du        
  13882 ****        18.7500   3.5000  24.2500 Du        
  13883 ****        18.7500   3.5000  24.5000 Du        
  13884 ****        18.7500   3.7500  23.7500 Du        
  13885 ****        18.7500   3.7500  24.0000 Du        
  13886 ****        18.7500   3.7500  24.2500 Du        
  13887 ****        18.7500   3.7500  24.5000 Du        
  13888 ****        18.7500   3.7500  24.7500 Du        
  13889 ****        18.7500   4.0000  23.7500 Du        
  13890 ****        18.7500   4.0000  24.0000 Du        
  13891 ****        18.7500   4.0000  24.2500 Du        
  13892 ****        18.7500   4.0000  24.5000 Du        
  13893 ****        18.7500   4.0000  24.7500 Du        
  13894 ****        18.7500   4.0000  25.0000 Du        
  13895 ****        18.7500   4.0000  32.0000 Du        
  13896 ****        18.7500   4.0000  32.2500 Du        
  13897 ****        18.7500   4.0000  32.5000 Du        
  13898 ****        18.7500   4.0000  32.7500 Du        
  13899 ****        18.7500   4.2500  24.0000 Du        
  13900 ****        18.7500   4.2500  24.2500 Du        
  13901 ****        18.7500   4.2500  24.5000 Du        
  13902 ****        18.7500   4.2500  24.7500 Du        
  13903 ****        18.7500   4.2500  25.0000 Du        
  13904 ****        18.7500   4.2500  25.2500 Du        
  13905 ****        18.7500   4.2500  32.0000 Du        
  13906 ****        18.7500   4.2500  32.2500 Du        
  13907 ****        18.7500   4.2500  32.5000 Du        
  13908 ****        18.7500   4.2500  32.7500 Du        
  13909 ****        18.7500   4.5000  24.2500 Du        
  13910 ****        18.7500   4.5000  24.5000 Du        
  13911 ****        18.7500   4.5000  24.7500 Du        
  13912 ****        18.7500   4.5000  25.0000 Du        
  13913 ****        18.7500   4.5000  25.2500 Du        
  13914 ****        18.7500   4.5000  32.2500 Du        
  13915 ****        18.7500   4.5000  32.5000 Du        
  13916 ****        18.7500   4.5000  32.7500 Du        
  13917 ****        18.7500   4.5000  33.0000 Du        
  13918 ****        18.7500   4.7500  24.7500 Du        
  13919 ****        18.7500   4.7500  25.0000 Du        
  13920 ****        18.7500   4.7500  25.2500 Du        
  13921 ****        18.7500   4.7500  25.5000 Du        
  13922 ****        18.7500   4.7500  32.0000 Du        
  13923 ****        18.7500   4.7500  32.2500 Du        
  13924 ****        18.7500   4.7500  32.5000 Du        
  13925 ****        18.7500   4.7500  32.7500 Du        
  13926 ****        18.7500   5.0000  25.0000 Du        
  13927 ****        18.7500   5.0000  25.2500 Du        
  13928 ****        18.7500   5.0000  25.5000 Du        
  13929 ****        18.7500   5.0000  25.7500 Du        
  13930 ****        18.7500   5.0000  26.0000 Du        
  13931 ****        18.7500   5.0000  31.7500 Du        
  13932 ****        18.7500   5.0000  32.0000 Du        
  13933 ****        18.7500   5.0000  32.2500 Du        
  13934 ****        18.7500   5.0000  32.5000 Du        
  13935 ****        18.7500   5.0000  32.7500 Du        
  13936 ****        18.7500   5.2500  25.2500 Du        
  13937 ****        18.7500   5.2500  25.5000 Du        
  13938 ****        18.7500   5.2500  25.7500 Du        
  13939 ****        18.7500   5.2500  26.0000 Du        
  13940 ****        18.7500   5.2500  26.2500 Du        
  13941 ****        18.7500   5.2500  31.7500 Du        
  13942 ****        18.7500   5.2500  32.0000 Du        
  13943 ****        18.7500   5.2500  32.2500 Du        
  13944 ****        18.7500   5.2500  32.5000 Du        
  13945 ****        18.7500   5.5000  31.5000 Du        
  13946 ****        18.7500   5.5000  31.7500 Du        
  13947 ****        18.7500   5.5000  32.0000 Du        
  13948 ****        18.7500   5.5000  32.2500 Du        
  13949 ****        18.7500   5.7500  31.5000 Du        
  13950 ****        18.7500   5.7500  31.7500 Du        
  13951 ****        18.7500   5.7500  32.0000 Du        
  13952 ****        18.7500   5.7500  32.2500 Du        
  13953 ****        18.7500   6.0000  31.5000 Du        
  13954 ****        18.7500   6.0000  31.7500 Du        
  13955 ****        18.7500   6.0000  32.0000 Du        
  13956 ****        18.7500   6.0000  32.2500 Du        
  13957 ****        18.7500   6.2500  31.7500 Du        
  13958 ****        18.7500   6.2500  32.0000 Du        
  13959 ****        18.7500  14.7500  32.2500 Du        
  13960 ****        18.7500  14.7500  32.5000 Du        
  13961 ****        18.7500  14.7500  32.7500 Du        
  13962 ****        18.7500  15.0000  32.2500 Du        
  13963 ****        18.7500  15.0000  32.5000 Du        
  13964 ****        18.7500  15.0000  32.7500 Du        
  13965 ****        18.7500  15.0000  33.0000 Du        
  13966 ****        18.7500  15.2500  32.2500 Du        
  13967 ****        18.7500  15.2500  32.5000 Du        
  13968 ****        18.7500  15.2500  32.7500 Du        
  13969 ****        18.7500  15.2500  33.0000 Du        
  13970 ****        18.7500  15.5000  32.2500 Du        
  13971 ****        18.7500  15.5000  32.5000 Du        
  13972 ****        18.7500  15.5000  32.7500 Du        
  13973 ****        18.7500  15.7500  32.2500 Du        
  13974 ****        18.7500  15.7500  32.5000 Du        
  13975 ****        18.7500  15.7500  32.7500 Du        
  13976 ****        18.7500  15.7500  33.0000 Du        
  13977 ****        18.7500  16.0000  32.2500 Du        
  13978 ****        18.7500  16.0000  32.5000 Du        
  13979 ****        18.7500  16.0000  32.7500 Du        
  13980 ****        18.7500  16.0000  33.0000 Du        
  13981 ****        18.7500  16.2500  32.2500 Du        
  13982 ****        18.7500  16.2500  32.5000 Du        
  13983 ****        18.7500  16.2500  32.7500 Du        
  13984 ****        18.7500  16.5000  46.7500 Du        
  13985 ****        18.7500  16.5000  47.0000 Du        
  13986 ****        18.7500  16.5000  47.2500 Du        
  13987 ****        18.7500  16.7500  46.5000 Du        
  13988 ****        18.7500  16.7500  46.7500 Du        
  13989 ****        18.7500  16.7500  47.0000 Du        
  13990 ****        18.7500  16.7500  47.2500 Du        
  13991 ****        18.7500  16.7500  47.5000 Du        
  13992 ****        18.7500  16.7500  47.7500 Du        
  13993 ****        18.7500  17.0000  46.2500 Du        
  13994 ****        18.7500  17.0000  46.5000 Du        
  13995 ****        18.7500  17.0000  46.7500 Du        
  13996 ****        18.7500  17.0000  47.0000 Du        
  13997 ****        18.7500  17.0000  47.2500 Du        
  13998 ****        18.7500  17.0000  47.5000 Du        
  13999 ****        18.7500  17.0000  47.7500 Du        
  14000 ****        18.7500  17.2500  46.2500 Du        
  14001 ****        18.7500  17.2500  46.5000 Du        
  14002 ****        18.7500  17.2500  46.7500 Du        
  14003 ****        18.7500  17.2500  47.0000 Du        
  14004 ****        18.7500  17.2500  47.2500 Du        
  14005 ****        18.7500  17.2500  47.5000 Du        
  14006 ****        18.7500  17.2500  47.7500 Du        
  14007 ****        18.7500  17.5000  46.2500 Du        
  14008 ****        18.7500  17.5000  46.5000 Du        
  14009 ****        18.7500  17.5000  46.7500 Du        
  14010 ****        18.7500  17.5000  47.0000 Du        
  14011 ****        18.7500  17.5000  47.2500 Du        
  14012 ****        18.7500  17.5000  47.5000 Du        
  14013 ****        18.7500  17.5000  47.7500 Du        
  14014 ****        18.7500  17.7500  46.2500 Du        
  14015 ****        18.7500  17.7500  46.5000 Du        
  14016 ****        18.7500  17.7500  46.7500 Du        
  14017 ****        18.7500  17.7500  47.0000 Du        
  14018 ****        18.7500  17.7500  47.2500 Du        
  14019 ****        18.7500  17.7500  47.5000 Du        
  14020 ****        18.7500  17.7500  47.7500 Du        
  14021 ****        18.7500  18.0000  46.7500 Du        
  14022 ****        18.7500  18.0000  47.0000 Du        
  14023 ****        18.7500  18.0000  47.2500 Du        
  14024 ****        18.7500  18.0000  47.5000 Du        
  14025 ****        18.7500  18.0000  47.7500 Du        
  14026 ****        18.7500  18.2500  47.5000 Du        
  14027 ****        18.7500  18.2500  47.7500 Du        
  14028 ****        18.7500  20.5000  36.2500 Du        
  14029 ****        18.7500  20.5000  36.5000 Du        
  14030 ****        18.7500  20.7500  36.0000 Du        
  14031 ****        18.7500  20.7500  36.2500 Du        
  14032 ****        18.7500  20.7500  36.5000 Du        
  14033 ****        18.7500  21.0000  36.0000 Du        
  14034 ****        18.7500  21.0000  36.2500 Du        
  14035 ****        18.7500  21.2500  36.2500 Du        
  14036 ****        18.7500  21.5000  36.2500 Du        
  14037 ****        19.0000 -20.2500  35.2500 Du        
  14038 ****        19.0000 -20.0000  34.7500 Du        
  14039 ****        19.0000 -20.0000  35.0000 Du        
  14040 ****        19.0000 -20.0000  35.2500 Du        
  14041 ****        19.0000 -20.0000  35.5000 Du        
  14042 ****        19.0000 -19.7500  34.7500 Du        
  14043 ****        19.0000 -19.7500  35.0000 Du        
  14044 ****        19.0000 -19.7500  35.2500 Du        
  14045 ****        19.0000 -19.7500  35.5000 Du        
  14046 ****        19.0000 -19.7500  35.7500 Du        
  14047 ****        19.0000 -19.5000  34.5000 Du        
  14048 ****        19.0000 -19.5000  34.7500 Du        
  14049 ****        19.0000 -19.5000  35.0000 Du        
  14050 ****        19.0000 -19.5000  35.2500 Du        
  14051 ****        19.0000 -19.5000  35.5000 Du        
  14052 ****        19.0000 -19.5000  35.7500 Du        
  14053 ****        19.0000 -19.2500  34.5000 Du        
  14054 ****        19.0000 -19.2500  34.7500 Du        
  14055 ****        19.0000 -19.2500  35.0000 Du        
  14056 ****        19.0000 -19.2500  35.2500 Du        
  14057 ****        19.0000 -19.2500  35.5000 Du        
  14058 ****        19.0000 -19.2500  35.7500 Du        
  14059 ****        19.0000 -19.0000  34.5000 Du        
  14060 ****        19.0000 -19.0000  34.7500 Du        
  14061 ****        19.0000 -19.0000  35.0000 Du        
  14062 ****        19.0000 -19.0000  35.2500 Du        
  14063 ****        19.0000 -19.0000  35.5000 Du        
  14064 ****        19.0000 -18.7500  34.5000 Du        
  14065 ****        19.0000 -18.7500  34.7500 Du        
  14066 ****        19.0000 -18.7500  35.0000 Du        
  14067 ****        19.0000 -18.7500  35.2500 Du        
  14068 ****        19.0000 -18.7500  35.5000 Du        
  14069 ****        19.0000 -18.5000  34.5000 Du        
  14070 ****        19.0000 -18.5000  34.7500 Du        
  14071 ****        19.0000 -18.5000  35.0000 Du        
  14072 ****        19.0000 -18.5000  35.2500 Du        
  14073 ****        19.0000 -18.5000  35.5000 Du        
  14074 ****        19.0000 -18.2500  34.5000 Du        
  14075 ****        19.0000 -18.2500  34.7500 Du        
  14076 ****        19.0000 -18.2500  35.0000 Du        
  14077 ****        19.0000 -18.2500  35.2500 Du        
  14078 ****        19.0000 -18.0000  34.5000 Du        
  14079 ****        19.0000 -18.0000  34.7500 Du        
  14080 ****        19.0000 -18.0000  35.0000 Du        
  14081 ****        19.0000 -18.0000  35.2500 Du        
  14082 ****        19.0000 -17.7500  34.5000 Du        
  14083 ****        19.0000 -17.7500  34.7500 Du        
  14084 ****        19.0000 -17.7500  35.0000 Du        
  14085 ****        19.0000 -17.5000  34.5000 Du        
  14086 ****        19.0000 -17.5000  34.7500 Du        
  14087 ****        19.0000 -17.2500  34.2500 Du        
  14088 ****        19.0000 -17.2500  34.5000 Du        
  14089 ****        19.0000 -17.2500  34.7500 Du        
  14090 ****        19.0000 -17.0000  34.2500 Du        
  14091 ****        19.0000 -17.0000  34.5000 Du        
  14092 ****        19.0000 -17.0000  34.7500 Du        
  14093 ****        19.0000 -16.7500  34.2500 Du        
  14094 ****        19.0000 -16.7500  34.5000 Du        
  14095 ****        19.0000 -16.5000  34.0000 Du        
  14096 ****        19.0000 -16.5000  34.2500 Du        
  14097 ****        19.0000 -16.5000  34.5000 Du        
  14098 ****        19.0000 -16.2500  34.0000 Du        
  14099 ****        19.0000 -16.2500  34.2500 Du        
  14100 ****        19.0000 -16.2500  34.5000 Du        
  14101 ****        19.0000 -16.0000  34.2500 Du        
  14102 ****        19.0000 -16.0000  34.5000 Du        
  14103 ****        19.0000   1.7500  22.7500 Du        
  14104 ****        19.0000   1.7500  23.0000 Du        
  14105 ****        19.0000   1.7500  23.2500 Du        
  14106 ****        19.0000   1.7500  23.5000 Du        
  14107 ****        19.0000   1.7500  23.7500 Du        
  14108 ****        19.0000   2.0000  22.7500 Du        
  14109 ****        19.0000   2.0000  23.0000 Du        
  14110 ****        19.0000   2.0000  23.2500 Du        
  14111 ****        19.0000   2.0000  23.5000 Du        
  14112 ****        19.0000   2.0000  23.7500 Du        
  14113 ****        19.0000   2.0000  24.0000 Du        
  14114 ****        19.0000   2.2500  23.0000 Du        
  14115 ****        19.0000   2.2500  23.2500 Du        
  14116 ****        19.0000   2.2500  23.5000 Du        
  14117 ****        19.0000   2.2500  23.7500 Du        
  14118 ****        19.0000   2.2500  24.0000 Du        
  14119 ****        19.0000   2.2500  24.2500 Du        
  14120 ****        19.0000   2.5000  23.0000 Du        
  14121 ****        19.0000   2.5000  23.2500 Du        
  14122 ****        19.0000   2.5000  23.5000 Du        
  14123 ****        19.0000   2.5000  23.7500 Du        
  14124 ****        19.0000   2.5000  24.0000 Du        
  14125 ****        19.0000   2.5000  24.2500 Du        
  14126 ****        19.0000   2.7500  23.2500 Du        
  14127 ****        19.0000   2.7500  23.5000 Du        
  14128 ****        19.0000   2.7500  23.7500 Du        
  14129 ****        19.0000   2.7500  24.0000 Du        
  14130 ****        19.0000   2.7500  24.2500 Du        
  14131 ****        19.0000   3.0000  23.2500 Du        
  14132 ****        19.0000   3.0000  23.5000 Du        
  14133 ****        19.0000   3.0000  23.7500 Du        
  14134 ****        19.0000   3.0000  24.0000 Du        
  14135 ****        19.0000   3.0000  24.2500 Du        
  14136 ****        19.0000   3.0000  24.5000 Du        
  14137 ****        19.0000   3.2500  23.5000 Du        
  14138 ****        19.0000   3.2500  23.7500 Du        
  14139 ****        19.0000   3.2500  24.0000 Du        
  14140 ****        19.0000   3.2500  24.2500 Du        
  14141 ****        19.0000   3.2500  24.5000 Du        
  14142 ****        19.0000   3.2500  24.7500 Du        
  14143 ****        19.0000   3.5000  23.7500 Du        
  14144 ****        19.0000   3.5000  24.0000 Du        
  14145 ****        19.0000   3.5000  24.2500 Du        
  14146 ****        19.0000   3.5000  24.5000 Du        
  14147 ****        19.0000   3.5000  24.7500 Du        
  14148 ****        19.0000   3.7500  23.7500 Du        
  14149 ****        19.0000   3.7500  24.0000 Du        
  14150 ****        19.0000   3.7500  24.2500 Du        
  14151 ****        19.0000   3.7500  24.5000 Du        
  14152 ****        19.0000   3.7500  24.7500 Du        
  14153 ****        19.0000   4.0000  24.0000 Du        
  14154 ****        19.0000   4.0000  24.2500 Du        
  14155 ****        19.0000   4.0000  24.5000 Du        
  14156 ****        19.0000   4.0000  24.7500 Du        
  14157 ****        19.0000   4.0000  25.0000 Du        
  14158 ****        19.0000   4.0000  32.5000 Du        
  14159 ****        19.0000   4.2500  24.2500 Du        
  14160 ****        19.0000   4.2500  24.5000 Du        
  14161 ****        19.0000   4.2500  24.7500 Du        
  14162 ****        19.0000   4.2500  25.0000 Du        
  14163 ****        19.0000   4.2500  25.2500 Du        
  14164 ****        19.0000   4.2500  32.7500 Du        
  14165 ****        19.0000   4.5000  24.5000 Du        
  14166 ****        19.0000   4.5000  24.7500 Du        
  14167 ****        19.0000   4.5000  25.0000 Du        
  14168 ****        19.0000   4.5000  25.2500 Du        
  14169 ****        19.0000   4.5000  32.5000 Du        
  14170 ****        19.0000   4.5000  32.7500 Du        
  14171 ****        19.0000   4.5000  33.0000 Du        
  14172 ****        19.0000   4.7500  24.7500 Du        
  14173 ****        19.0000   4.7500  25.0000 Du        
  14174 ****        19.0000   4.7500  25.2500 Du        
  14175 ****        19.0000   4.7500  32.5000 Du        
  14176 ****        19.0000   4.7500  32.7500 Du        
  14177 ****        19.0000   4.7500  33.0000 Du        
  14178 ****        19.0000   5.0000  25.0000 Du        
  14179 ****        19.0000   5.0000  25.2500 Du        
  14180 ****        19.0000   5.0000  25.5000 Du        
  14181 ****        19.0000   5.0000  32.5000 Du        
  14182 ****        19.0000   5.0000  32.7500 Du        
  14183 ****        19.0000   5.2500  32.7500 Du        
  14184 ****        19.0000   5.5000  31.7500 Du        
  14185 ****        19.0000   5.5000  32.0000 Du        
  14186 ****        19.0000   5.5000  32.5000 Du        
  14187 ****        19.0000   5.7500  32.0000 Du        
  14188 ****        19.0000   5.7500  32.2500 Du        
  14189 ****        19.0000   5.7500  32.5000 Du        
  14190 ****        19.0000   6.0000  32.0000 Du        
  14191 ****        19.0000   6.0000  32.2500 Du        
  14192 ****        19.0000   6.0000  32.5000 Du        
  14193 ****        19.0000   6.2500  32.0000 Du        
  14194 ****        19.0000   6.2500  32.2500 Du        
  14195 ****        19.0000   6.2500  32.5000 Du        
  14196 ****        19.0000   9.7500  25.5000 Du        
  14197 ****        19.0000  10.0000  25.2500 Du        
  14198 ****        19.0000  10.0000  25.5000 Du        
  14199 ****        19.0000  14.7500  32.2500 Du        
  14200 ****        19.0000  15.0000  32.0000 Du        
  14201 ****        19.0000  15.0000  32.2500 Du        
  14202 ****        19.0000  15.0000  32.5000 Du        
  14203 ****        19.0000  15.2500  32.2500 Du        
  14204 ****        19.0000  15.5000  32.2500 Du        
  14205 ****        19.0000  15.5000  32.5000 Du        
  14206 ****        19.0000  15.5000  32.7500 Du        
  14207 ****        19.0000  15.7500  32.2500 Du        
  14208 ****        19.0000  15.7500  32.5000 Du        
  14209 ****        19.0000  15.7500  32.7500 Du        
  14210 ****        19.0000  16.0000  32.2500 Du        
  14211 ****        19.0000  16.0000  32.5000 Du        
  14212 ****        19.0000  16.0000  32.7500 Du        
  14213 ****        19.0000  16.5000  47.0000 Du        
  14214 ****        19.0000  16.5000  47.2500 Du        
  14215 ****        19.0000  16.5000  47.5000 Du        
  14216 ****        19.0000  16.5000  47.7500 Du        
  14217 ****        19.0000  16.7500  46.7500 Du        
  14218 ****        19.0000  16.7500  47.0000 Du        
  14219 ****        19.0000  16.7500  47.2500 Du        
  14220 ****        19.0000  16.7500  47.5000 Du        
  14221 ****        19.0000  16.7500  47.7500 Du        
  14222 ****        19.0000  17.0000  46.5000 Du        
  14223 ****        19.0000  17.0000  46.7500 Du        
  14224 ****        19.0000  17.0000  47.0000 Du        
  14225 ****        19.0000  17.0000  47.2500 Du        
  14226 ****        19.0000  17.0000  47.5000 Du        
  14227 ****        19.0000  17.0000  47.7500 Du        
  14228 ****        19.0000  17.2500  46.5000 Du        
  14229 ****        19.0000  17.2500  46.7500 Du        
  14230 ****        19.0000  17.2500  47.0000 Du        
  14231 ****        19.0000  17.2500  47.2500 Du        
  14232 ****        19.0000  17.2500  47.5000 Du        
  14233 ****        19.0000  17.2500  47.7500 Du        
  14234 ****        19.0000  17.5000  46.5000 Du        
  14235 ****        19.0000  17.5000  46.7500 Du        
  14236 ****        19.0000  17.5000  47.0000 Du        
  14237 ****        19.0000  17.5000  47.2500 Du        
  14238 ****        19.0000  17.5000  47.5000 Du        
  14239 ****        19.0000  17.5000  47.7500 Du        
  14240 ****        19.0000  17.7500  46.5000 Du        
  14241 ****        19.0000  17.7500  46.7500 Du        
  14242 ****        19.0000  17.7500  47.0000 Du        
  14243 ****        19.0000  17.7500  47.2500 Du        
  14244 ****        19.0000  17.7500  47.5000 Du        
  14245 ****        19.0000  17.7500  47.7500 Du        
  14246 ****        19.0000  18.0000  47.0000 Du        
  14247 ****        19.0000  18.0000  47.2500 Du        
  14248 ****        19.0000  18.0000  47.5000 Du        
  14249 ****        19.0000  18.0000  47.7500 Du        
  14250 ****        19.0000  18.2500  47.7500 Du        
  14251 ****        19.0000  20.2500  36.2500 Du        
  14252 ****        19.0000  20.2500  42.2500 Du        
  14253 ****        19.0000  20.5000  36.2500 Du        
  14254 ****        19.0000  20.5000  42.5000 Du        
  14255 ****        19.0000  20.7500  36.2500 Du        
  14256 ****        19.0000  20.7500  42.0000 Du        
  14257 ****        19.0000  20.7500  42.2500 Du        
  14258 ****        19.0000  20.7500  42.5000 Du        
  14259 ****        19.0000  20.7500  42.7500 Du        
  14260 ****        19.0000  21.0000  36.2500 Du        
  14261 ****        19.0000  21.0000  42.0000 Du        
  14262 ****        19.0000  21.0000  42.2500 Du        
  14263 ****        19.0000  21.0000  42.7500 Du        
  14264 ****        19.0000  21.2500  42.0000 Du        
  14265 ****        19.0000  21.2500  42.2500 Du        
  14266 ****        19.0000  21.5000  42.2500 Du        
  14267 ****        19.0000  21.7500  42.2500 Du        
  14268 ****        19.2500 -20.5000  35.2500 Du        
  14269 ****        19.2500 -20.5000  35.5000 Du        
  14270 ****        19.2500 -20.2500  35.0000 Du        
  14271 ****        19.2500 -20.2500  35.2500 Du        
  14272 ****        19.2500 -20.2500  35.5000 Du        
  14273 ****        19.2500 -20.0000  34.7500 Du        
  14274 ****        19.2500 -20.0000  35.0000 Du        
  14275 ****        19.2500 -20.0000  35.2500 Du        
  14276 ****        19.2500 -20.0000  35.5000 Du        
  14277 ****        19.2500 -20.0000  35.7500 Du        
  14278 ****        19.2500 -19.7500  34.7500 Du        
  14279 ****        19.2500 -19.7500  35.0000 Du        
  14280 ****        19.2500 -19.7500  35.2500 Du        
  14281 ****        19.2500 -19.7500  35.5000 Du        
  14282 ****        19.2500 -19.7500  35.7500 Du        
  14283 ****        19.2500 -19.5000  34.7500 Du        
  14284 ****        19.2500 -19.5000  35.0000 Du        
  14285 ****        19.2500 -19.5000  35.2500 Du        
  14286 ****        19.2500 -19.5000  35.5000 Du        
  14287 ****        19.2500 -19.5000  35.7500 Du        
  14288 ****        19.2500 -19.2500  34.5000 Du        
  14289 ****        19.2500 -19.2500  34.7500 Du        
  14290 ****        19.2500 -19.2500  35.0000 Du        
  14291 ****        19.2500 -19.2500  35.2500 Du        
  14292 ****        19.2500 -19.2500  35.5000 Du        
  14293 ****        19.2500 -19.2500  35.7500 Du        
  14294 ****        19.2500 -19.0000  34.5000 Du        
  14295 ****        19.2500 -19.0000  34.7500 Du        
  14296 ****        19.2500 -19.0000  35.0000 Du        
  14297 ****        19.2500 -19.0000  35.2500 Du        
  14298 ****        19.2500 -19.0000  35.5000 Du        
  14299 ****        19.2500 -19.0000  35.7500 Du        
  14300 ****        19.2500 -18.7500  34.5000 Du        
  14301 ****        19.2500 -18.7500  34.7500 Du        
  14302 ****        19.2500 -18.7500  35.0000 Du        
  14303 ****        19.2500 -18.7500  35.2500 Du        
  14304 ****        19.2500 -18.7500  35.5000 Du        
  14305 ****        19.2500 -18.5000  34.5000 Du        
  14306 ****        19.2500 -18.5000  34.7500 Du        
  14307 ****        19.2500 -18.5000  35.0000 Du        
  14308 ****        19.2500 -18.5000  35.2500 Du        
  14309 ****        19.2500 -18.5000  35.5000 Du        
  14310 ****        19.2500 -18.2500  34.5000 Du        
  14311 ****        19.2500 -18.2500  34.7500 Du        
  14312 ****        19.2500 -18.2500  35.0000 Du        
  14313 ****        19.2500 -18.2500  35.2500 Du        
  14314 ****        19.2500 -18.0000  34.5000 Du        
  14315 ****        19.2500 -18.0000  34.7500 Du        
  14316 ****        19.2500 -18.0000  35.0000 Du        
  14317 ****        19.2500 -18.0000  35.2500 Du        
  14318 ****        19.2500 -17.7500  34.5000 Du        
  14319 ****        19.2500 -17.7500  34.7500 Du        
  14320 ****        19.2500 -17.7500  35.0000 Du        
  14321 ****        19.2500 -17.7500  35.2500 Du        
  14322 ****        19.2500 -17.5000  34.2500 Du        
  14323 ****        19.2500 -17.5000  34.5000 Du        
  14324 ****        19.2500 -17.5000  34.7500 Du        
  14325 ****        19.2500 -17.5000  35.0000 Du        
  14326 ****        19.2500 -17.2500  34.2500 Du        
  14327 ****        19.2500 -17.2500  34.5000 Du        
  14328 ****        19.2500 -17.2500  34.7500 Du        
  14329 ****        19.2500 -17.2500  35.0000 Du        
  14330 ****        19.2500 -17.0000  34.2500 Du        
  14331 ****        19.2500 -17.0000  34.5000 Du        
  14332 ****        19.2500 -17.0000  34.7500 Du        
  14333 ****        19.2500 -16.7500  34.2500 Du        
  14334 ****        19.2500 -16.7500  34.5000 Du        
  14335 ****        19.2500 -16.7500  34.7500 Du        
  14336 ****        19.2500 -16.5000  34.0000 Du        
  14337 ****        19.2500 -16.5000  34.2500 Du        
  14338 ****        19.2500 -16.5000  34.5000 Du        
  14339 ****        19.2500 -16.5000  34.7500 Du        
  14340 ****        19.2500 -16.2500  34.0000 Du        
  14341 ****        19.2500 -16.2500  34.2500 Du        
  14342 ****        19.2500 -16.2500  34.5000 Du        
  14343 ****        19.2500 -16.2500  34.7500 Du        
  14344 ****        19.2500 -16.0000  34.2500 Du        
  14345 ****        19.2500 -16.0000  34.5000 Du        
  14346 ****        19.2500  -8.7500  30.5000 Du        
  14347 ****        19.2500  -6.2500  30.7500 Du        
  14348 ****        19.2500  -6.0000  30.7500 Du        
  14349 ****        19.2500  -6.0000  31.0000 Du        
  14350 ****        19.2500   2.2500  23.2500 Du        
  14351 ****        19.2500   2.2500  23.5000 Du        
  14352 ****        19.2500   2.2500  23.7500 Du        
  14353 ****        19.2500   2.2500  24.0000 Du        
  14354 ****        19.2500   2.2500  24.2500 Du        
  14355 ****        19.2500   2.5000  23.5000 Du        
  14356 ****        19.2500   2.5000  23.7500 Du        
  14357 ****        19.2500   2.5000  24.0000 Du        
  14358 ****        19.2500   2.5000  24.2500 Du        
  14359 ****        19.2500   2.7500  23.5000 Du        
  14360 ****        19.2500   2.7500  23.7500 Du        
  14361 ****        19.2500   2.7500  24.0000 Du        
  14362 ****        19.2500   2.7500  24.2500 Du        
  14363 ****        19.2500   3.0000  23.5000 Du        
  14364 ****        19.2500   3.0000  23.7500 Du        
  14365 ****        19.2500   3.0000  24.0000 Du        
  14366 ****        19.2500   3.0000  24.2500 Du        
  14367 ****        19.2500   3.2500  23.7500 Du        
  14368 ****        19.2500   3.2500  24.0000 Du        
  14369 ****        19.2500   3.2500  24.2500 Du        
  14370 ****        19.2500   3.2500  24.5000 Du        
  14371 ****        19.2500   3.5000  23.7500 Du        
  14372 ****        19.2500   3.5000  24.0000 Du        
  14373 ****        19.2500   3.5000  24.2500 Du        
  14374 ****        19.2500   3.5000  24.5000 Du        
  14375 ****        19.2500   3.5000  24.7500 Du        
  14376 ****        19.2500   3.7500  24.0000 Du        
  14377 ****        19.2500   3.7500  24.2500 Du        
  14378 ****        19.2500   3.7500  24.5000 Du        
  14379 ****        19.2500   3.7500  24.7500 Du        
  14380 ****        19.2500   3.7500  25.0000 Du        
  14381 ****        19.2500   4.0000  24.0000 Du        
  14382 ****        19.2500   4.0000  24.2500 Du        
  14383 ****        19.2500   4.0000  24.5000 Du        
  14384 ****        19.2500   4.0000  24.7500 Du        
  14385 ****        19.2500   4.0000  25.0000 Du        
  14386 ****        19.2500   4.2500  24.2500 Du        
  14387 ****        19.2500   4.2500  24.5000 Du        
  14388 ****        19.2500   4.2500  24.7500 Du        
  14389 ****        19.2500   4.2500  25.0000 Du        
  14390 ****        19.2500   4.2500  25.2500 Du        
  14391 ****        19.2500   4.5000  24.7500 Du        
  14392 ****        19.2500   4.5000  25.0000 Du        
  14393 ****        19.2500   4.5000  25.2500 Du        
  14394 ****        19.2500   4.7500  25.0000 Du        
  14395 ****        19.2500   4.7500  25.2500 Du        
  14396 ****        19.2500   5.0000  25.2500 Du        
  14397 ****        19.2500   5.7500  32.5000 Du        
  14398 ****        19.2500   6.0000  32.5000 Du        
  14399 ****        19.2500   9.2500  25.5000 Du        
  14400 ****        19.2500   9.5000  25.5000 Du        
  14401 ****        19.2500   9.7500  25.2500 Du        
  14402 ****        19.2500   9.7500  25.5000 Du        
  14403 ****        19.2500  10.0000  25.2500 Du        
  14404 ****        19.2500  10.0000  25.5000 Du        
  14405 ****        19.2500  14.7500  32.2500 Du        
  14406 ****        19.2500  15.0000  32.2500 Du        
  14407 ****        19.2500  15.2500  32.2500 Du        
  14408 ****        19.2500  15.2500  32.5000 Du        
  14409 ****        19.2500  15.5000  32.2500 Du        
  14410 ****        19.2500  15.5000  32.5000 Du        
  14411 ****        19.2500  15.7500  32.2500 Du        
  14412 ****        19.2500  15.7500  32.5000 Du        
  14413 ****        19.2500  16.5000  47.2500 Du        
  14414 ****        19.2500  16.5000  47.5000 Du        
  14415 ****        19.2500  16.5000  47.7500 Du        
  14416 ****        19.2500  16.7500  47.0000 Du        
  14417 ****        19.2500  16.7500  47.2500 Du        
  14418 ****        19.2500  16.7500  47.5000 Du        
  14419 ****        19.2500  16.7500  47.7500 Du        
  14420 ****        19.2500  17.0000  47.0000 Du        
  14421 ****        19.2500  17.0000  47.2500 Du        
  14422 ****        19.2500  17.0000  47.5000 Du        
  14423 ****        19.2500  17.0000  47.7500 Du        
  14424 ****        19.2500  17.2500  46.7500 Du        
  14425 ****        19.2500  17.2500  47.0000 Du        
  14426 ****        19.2500  17.2500  47.2500 Du        
  14427 ****        19.2500  17.2500  47.5000 Du        
  14428 ****        19.2500  17.2500  47.7500 Du        
  14429 ****        19.2500  17.5000  46.7500 Du        
  14430 ****        19.2500  17.5000  47.0000 Du        
  14431 ****        19.2500  17.5000  47.2500 Du        
  14432 ****        19.2500  17.5000  47.5000 Du        
  14433 ****        19.2500  17.5000  47.7500 Du        
  14434 ****        19.2500  17.7500  46.7500 Du        
  14435 ****        19.2500  17.7500  47.0000 Du        
  14436 ****        19.2500  17.7500  47.2500 Du        
  14437 ****        19.2500  17.7500  47.5000 Du        
  14438 ****        19.2500  17.7500  47.7500 Du        
  14439 ****        19.2500  18.0000  47.2500 Du        
  14440 ****        19.2500  18.0000  47.5000 Du        
  14441 ****        19.2500  18.0000  47.7500 Du        
  14442 ****        19.2500  20.2500  36.2500 Du        
  14443 ****        19.2500  20.2500  42.0000 Du        
  14444 ****        19.2500  20.2500  42.2500 Du        
  14445 ****        19.2500  20.5000  36.2500 Du        
  14446 ****        19.2500  20.5000  41.7500 Du        
  14447 ****        19.2500  20.5000  42.0000 Du        
  14448 ****        19.2500  20.5000  42.2500 Du        
  14449 ****        19.2500  20.5000  42.5000 Du        
  14450 ****        19.2500  20.5000  42.7500 Du        
  14451 ****        19.2500  20.5000  43.0000 Du        
  14452 ****        19.2500  20.7500  41.5000 Du        
  14453 ****        19.2500  20.7500  41.7500 Du        
  14454 ****        19.2500  20.7500  42.0000 Du        
  14455 ****        19.2500  20.7500  42.2500 Du        
  14456 ****        19.2500  20.7500  42.5000 Du        
  14457 ****        19.2500  20.7500  42.7500 Du        
  14458 ****        19.2500  21.0000  41.5000 Du        
  14459 ****        19.2500  21.0000  41.7500 Du        
  14460 ****        19.2500  21.0000  42.0000 Du        
  14461 ****        19.2500  21.0000  42.2500 Du        
  14462 ****        19.2500  21.0000  42.5000 Du        
  14463 ****        19.2500  21.0000  42.7500 Du        
  14464 ****        19.2500  21.2500  41.5000 Du        
  14465 ****        19.2500  21.2500  41.7500 Du        
  14466 ****        19.2500  21.2500  42.0000 Du        
  14467 ****        19.2500  21.2500  42.2500 Du        
  14468 ****        19.2500  21.2500  42.5000 Du        
  14469 ****        19.2500  21.5000  41.7500 Du        
  14470 ****        19.2500  21.5000  42.0000 Du        
  14471 ****        19.2500  21.5000  42.2500 Du        
  14472 ****        19.2500  21.5000  42.5000 Du        
  14473 ****        19.2500  21.7500  41.7500 Du        
  14474 ****        19.2500  21.7500  42.0000 Du        
  14475 ****        19.2500  21.7500  42.2500 Du        
  14476 ****        19.2500  21.7500  42.5000 Du        
  14477 ****        19.2500  22.0000  42.0000 Du        
  14478 ****        19.2500  22.0000  42.2500 Du        
  14479 ****        19.2500  22.2500  42.0000 Du        
  14480 ****        19.2500  22.2500  42.2500 Du        
  14481 ****        19.5000 -20.5000  35.2500 Du        
  14482 ****        19.5000 -20.5000  35.5000 Du        
  14483 ****        19.5000 -20.2500  35.0000 Du        
  14484 ****        19.5000 -20.2500  35.2500 Du        
  14485 ****        19.5000 -20.2500  35.5000 Du        
  14486 ****        19.5000 -20.2500  35.7500 Du        
  14487 ****        19.5000 -20.0000  35.0000 Du        
  14488 ****        19.5000 -20.0000  35.2500 Du        
  14489 ****        19.5000 -20.0000  35.5000 Du        
  14490 ****        19.5000 -20.0000  35.7500 Du        
  14491 ****        19.5000 -19.7500  34.7500 Du        
  14492 ****        19.5000 -19.7500  35.0000 Du        
  14493 ****        19.5000 -19.7500  35.2500 Du        
  14494 ****        19.5000 -19.7500  35.5000 Du        
  14495 ****        19.5000 -19.7500  35.7500 Du        
  14496 ****        19.5000 -19.5000  34.7500 Du        
  14497 ****        19.5000 -19.5000  35.0000 Du        
  14498 ****        19.5000 -19.5000  35.2500 Du        
  14499 ****        19.5000 -19.5000  35.5000 Du        
  14500 ****        19.5000 -19.5000  35.7500 Du        
  14501 ****        19.5000 -19.2500  34.5000 Du        
  14502 ****        19.5000 -19.2500  34.7500 Du        
  14503 ****        19.5000 -19.2500  35.0000 Du        
  14504 ****        19.5000 -19.2500  35.2500 Du        
  14505 ****        19.5000 -19.2500  35.5000 Du        
  14506 ****        19.5000 -19.2500  35.7500 Du        
  14507 ****        19.5000 -19.0000  34.5000 Du        
  14508 ****        19.5000 -19.0000  34.7500 Du        
  14509 ****        19.5000 -19.0000  35.0000 Du        
  14510 ****        19.5000 -19.0000  35.2500 Du        
  14511 ****        19.5000 -19.0000  35.5000 Du        
  14512 ****        19.5000 -19.0000  35.7500 Du        
  14513 ****        19.5000 -18.7500  34.5000 Du        
  14514 ****        19.5000 -18.7500  34.7500 Du        
  14515 ****        19.5000 -18.7500  35.0000 Du        
  14516 ****        19.5000 -18.7500  35.2500 Du        
  14517 ****        19.5000 -18.7500  35.5000 Du        
  14518 ****        19.5000 -18.5000  34.5000 Du        
  14519 ****        19.5000 -18.5000  34.7500 Du        
  14520 ****        19.5000 -18.5000  35.0000 Du        
  14521 ****        19.5000 -18.5000  35.2500 Du        
  14522 ****        19.5000 -18.5000  35.5000 Du        
  14523 ****        19.5000 -18.2500  34.5000 Du        
  14524 ****        19.5000 -18.2500  34.7500 Du        
  14525 ****        19.5000 -18.2500  35.0000 Du        
  14526 ****        19.5000 -18.2500  35.2500 Du        
  14527 ****        19.5000 -18.2500  35.5000 Du        
  14528 ****        19.5000 -18.0000  34.5000 Du        
  14529 ****        19.5000 -18.0000  34.7500 Du        
  14530 ****        19.5000 -18.0000  35.0000 Du        
  14531 ****        19.5000 -18.0000  35.2500 Du        
  14532 ****        19.5000 -17.7500  34.2500 Du        
  14533 ****        19.5000 -17.7500  34.5000 Du        
  14534 ****        19.5000 -17.7500  34.7500 Du        
  14535 ****        19.5000 -17.7500  35.0000 Du        
  14536 ****        19.5000 -17.7500  35.2500 Du        
  14537 ****        19.5000 -17.5000  34.5000 Du        
  14538 ****        19.5000 -17.5000  34.7500 Du        
  14539 ****        19.5000 -17.5000  35.0000 Du        
  14540 ****        19.5000 -17.2500  34.2500 Du        
  14541 ****        19.5000 -17.2500  34.5000 Du        
  14542 ****        19.5000 -17.2500  34.7500 Du        
  14543 ****        19.5000 -17.2500  35.0000 Du        
  14544 ****        19.5000 -17.0000  34.2500 Du        
  14545 ****        19.5000 -17.0000  34.5000 Du        
  14546 ****        19.5000 -17.0000  34.7500 Du        
  14547 ****        19.5000 -17.0000  35.0000 Du        
  14548 ****        19.5000 -16.7500  34.2500 Du        
  14549 ****        19.5000 -16.7500  34.5000 Du        
  14550 ****        19.5000 -16.7500  34.7500 Du        
  14551 ****        19.5000 -16.7500  35.0000 Du        
  14552 ****        19.5000 -16.5000  34.0000 Du        
  14553 ****        19.5000 -16.5000  34.2500 Du        
  14554 ****        19.5000 -16.5000  34.5000 Du        
  14555 ****        19.5000 -16.5000  34.7500 Du        
  14556 ****        19.5000 -16.5000  35.0000 Du        
  14557 ****        19.5000 -16.2500  34.0000 Du        
  14558 ****        19.5000 -16.2500  34.2500 Du        
  14559 ****        19.5000 -16.2500  34.5000 Du        
  14560 ****        19.5000 -16.2500  34.7500 Du        
  14561 ****        19.5000 -16.2500  35.0000 Du        
  14562 ****        19.5000 -16.0000  34.2500 Du        
  14563 ****        19.5000 -16.0000  34.5000 Du        
  14564 ****        19.5000 -16.0000  34.7500 Du        
  14565 ****        19.5000 -16.0000  35.0000 Du        
  14566 ****        19.5000  -8.5000  30.5000 Du        
  14567 ****        19.5000  -8.2500  30.5000 Du        
  14568 ****        19.5000  -8.0000  30.5000 Du        
  14569 ****        19.5000  -7.7500  30.5000 Du        
  14570 ****        19.5000  -7.7500  30.7500 Du        
  14571 ****        19.5000  -7.5000  30.5000 Du        
  14572 ****        19.5000  -7.5000  30.7500 Du        
  14573 ****        19.5000  -7.2500  30.5000 Du        
  14574 ****        19.5000  -7.2500  30.7500 Du        
  14575 ****        19.5000  -7.0000  30.5000 Du        
  14576 ****        19.5000  -7.0000  30.7500 Du        
  14577 ****        19.5000  -7.0000  31.0000 Du        
  14578 ****        19.5000  -6.7500  30.5000 Du        
  14579 ****        19.5000  -6.7500  30.7500 Du        
  14580 ****        19.5000  -6.7500  31.0000 Du        
  14581 ****        19.5000  -6.5000  30.5000 Du        
  14582 ****        19.5000  -6.5000  30.7500 Du        
  14583 ****        19.5000  -6.5000  31.0000 Du        
  14584 ****        19.5000  -6.2500  30.5000 Du        
  14585 ****        19.5000  -6.2500  30.7500 Du        
  14586 ****        19.5000  -6.2500  31.0000 Du        
  14587 ****        19.5000  -6.2500  31.2500 Du        
  14588 ****        19.5000  -6.0000  30.5000 Du        
  14589 ****        19.5000  -6.0000  30.7500 Du        
  14590 ****        19.5000  -6.0000  31.0000 Du        
  14591 ****        19.5000  -6.0000  31.2500 Du        
  14592 ****        19.5000  -6.0000  31.5000 Du        
  14593 ****        19.5000  -5.7500  30.7500 Du        
  14594 ****        19.5000  -5.7500  31.0000 Du        
  14595 ****        19.5000  -5.7500  31.2500 Du        
  14596 ****        19.5000  -5.7500  31.5000 Du        
  14597 ****        19.5000  -5.5000  30.7500 Du        
  14598 ****        19.5000  -5.5000  31.0000 Du        
  14599 ****        19.5000  -5.5000  31.5000 Du        
  14600 ****        19.5000  -5.2500  31.5000 Du        
  14601 ****        19.5000  -5.0000  31.5000 Du        
  14602 ****        19.5000  -4.7500  31.5000 Du        
  14603 ****        19.5000  -4.2500  31.5000 Du        
  14604 ****        19.5000   3.5000  24.0000 Du        
  14605 ****        19.5000   3.5000  24.2500 Du        
  14606 ****        19.5000   3.7500  24.2500 Du        
  14607 ****        19.5000   4.0000  24.2500 Du        
  14608 ****        19.5000   8.7500  25.7500 Du        
  14609 ****        19.5000   9.0000  25.5000 Du        
  14610 ****        19.5000   9.0000  25.7500 Du        
  14611 ****        19.5000   9.2500  25.2500 Du        
  14612 ****        19.5000   9.2500  25.5000 Du        
  14613 ****        19.5000   9.2500  25.7500 Du        
  14614 ****        19.5000   9.5000  25.2500 Du        
  14615 ****        19.5000   9.5000  25.5000 Du        
  14616 ****        19.5000   9.5000  25.7500 Du        
  14617 ****        19.5000   9.7500  25.2500 Du        
  14618 ****        19.5000   9.7500  25.5000 Du        
  14619 ****        19.5000   9.7500  25.7500 Du        
  14620 ****        19.5000  10.0000  25.5000 Du        
  14621 ****        19.5000  14.7500  32.0000 Du        
  14622 ****        19.5000  14.7500  32.2500 Du        
  14623 ****        19.5000  15.0000  32.0000 Du        
  14624 ****        19.5000  15.0000  32.2500 Du        
  14625 ****        19.5000  15.2500  32.0000 Du        
  14626 ****        19.5000  15.2500  32.2500 Du        
  14627 ****        19.5000  16.5000  47.5000 Du        
  14628 ****        19.5000  16.5000  47.7500 Du        
  14629 ****        19.5000  16.7500  47.2500 Du        
  14630 ****        19.5000  16.7500  47.5000 Du        
  14631 ****        19.5000  16.7500  47.7500 Du        
  14632 ****        19.5000  17.0000  47.2500 Du        
  14633 ****        19.5000  17.0000  47.5000 Du        
  14634 ****        19.5000  17.0000  47.7500 Du        
  14635 ****        19.5000  17.2500  47.0000 Du        
  14636 ****        19.5000  17.2500  47.2500 Du        
  14637 ****        19.5000  17.2500  47.5000 Du        
  14638 ****        19.5000  17.2500  47.7500 Du        
  14639 ****        19.5000  17.5000  47.0000 Du        
  14640 ****        19.5000  17.5000  47.2500 Du        
  14641 ****        19.5000  17.5000  47.5000 Du        
  14642 ****        19.5000  17.5000  47.7500 Du        
  14643 ****        19.5000  17.7500  47.0000 Du        
  14644 ****        19.5000  17.7500  47.2500 Du        
  14645 ****        19.5000  17.7500  47.5000 Du        
  14646 ****        19.5000  17.7500  47.7500 Du        
  14647 ****        19.5000  18.0000  47.2500 Du        
  14648 ****        19.5000  18.0000  47.5000 Du        
  14649 ****        19.5000  18.0000  47.7500 Du        
  14650 ****        19.5000  19.7500  36.2500 Du        
  14651 ****        19.5000  20.0000  36.2500 Du        
  14652 ****        19.5000  20.2500  36.2500 Du        
  14653 ****        19.5000  20.2500  41.7500 Du        
  14654 ****        19.5000  20.2500  42.0000 Du        
  14655 ****        19.5000  20.2500  42.2500 Du        
  14656 ****        19.5000  20.2500  42.5000 Du        
  14657 ****        19.5000  20.2500  42.7500 Du        
  14658 ****        19.5000  20.2500  43.0000 Du        
  14659 ****        19.5000  20.5000  41.2500 Du        
  14660 ****        19.5000  20.5000  41.5000 Du        
  14661 ****        19.5000  20.5000  41.7500 Du        
  14662 ****        19.5000  20.5000  42.0000 Du        
  14663 ****        19.5000  20.5000  42.2500 Du        
  14664 ****        19.5000  20.5000  42.5000 Du        
  14665 ****        19.5000  20.5000  42.7500 Du        
  14666 ****        19.5000  20.5000  43.0000 Du        
  14667 ****        19.5000  20.7500  41.2500 Du        
  14668 ****        19.5000  20.7500  41.5000 Du        
  14669 ****        19.5000  20.7500  41.7500 Du        
  14670 ****        19.5000  20.7500  42.0000 Du        
  14671 ****        19.5000  20.7500  42.2500 Du        
  14672 ****        19.5000  20.7500  42.5000 Du        
  14673 ****        19.5000  20.7500  42.7500 Du        
  14674 ****        19.5000  21.0000  41.5000 Du        
  14675 ****        19.5000  21.0000  41.7500 Du        
  14676 ****        19.5000  21.0000  42.0000 Du        
  14677 ****        19.5000  21.0000  42.2500 Du        
  14678 ****        19.5000  21.0000  42.5000 Du        
  14679 ****        19.5000  21.0000  42.7500 Du        
  14680 ****        19.5000  21.2500  41.5000 Du        
  14681 ****        19.5000  21.2500  41.7500 Du        
  14682 ****        19.5000  21.2500  42.0000 Du        
  14683 ****        19.5000  21.2500  42.2500 Du        
  14684 ****        19.5000  21.2500  42.5000 Du        
  14685 ****        19.5000  21.2500  42.7500 Du        
  14686 ****        19.5000  21.5000  41.5000 Du        
  14687 ****        19.5000  21.5000  41.7500 Du        
  14688 ****        19.5000  21.5000  42.0000 Du        
  14689 ****        19.5000  21.5000  42.2500 Du        
  14690 ****        19.5000  21.5000  42.5000 Du        
  14691 ****        19.5000  21.7500  41.5000 Du        
  14692 ****        19.5000  21.7500  41.7500 Du        
  14693 ****        19.5000  21.7500  42.0000 Du        
  14694 ****        19.5000  21.7500  42.2500 Du        
  14695 ****        19.5000  21.7500  42.5000 Du        
  14696 ****        19.5000  22.0000  41.5000 Du        
  14697 ****        19.5000  22.0000  41.7500 Du        
  14698 ****        19.5000  22.0000  42.0000 Du        
  14699 ****        19.5000  22.0000  42.2500 Du        
  14700 ****        19.5000  22.0000  42.5000 Du        
  14701 ****        19.5000  22.2500  41.5000 Du        
  14702 ****        19.5000  22.2500  41.7500 Du        
  14703 ****        19.5000  22.2500  42.0000 Du        
  14704 ****        19.5000  22.2500  42.2500 Du        
  14705 ****        19.5000  22.2500  42.5000 Du        
  14706 ****        19.5000  22.5000  41.5000 Du        
  14707 ****        19.5000  22.5000  41.7500 Du        
  14708 ****        19.5000  22.5000  42.0000 Du        
  14709 ****        19.5000  22.5000  42.2500 Du        
  14710 ****        19.5000  22.7500  41.5000 Du        
  14711 ****        19.5000  22.7500  41.7500 Du        
  14712 ****        19.5000  22.7500  42.0000 Du        
  14713 ****        19.5000  22.7500  42.2500 Du        
  14714 ****        19.5000  23.0000  41.5000 Du        
  14715 ****        19.5000  23.0000  41.7500 Du        
  14716 ****        19.5000  23.0000  42.0000 Du        
  14717 ****        19.5000  23.0000  42.2500 Du        
  14718 ****        19.5000  23.2500  41.5000 Du        
  14719 ****        19.5000  23.2500  41.7500 Du        
  14720 ****        19.5000  23.2500  42.0000 Du        
  14721 ****        19.5000  23.2500  42.2500 Du        
  14722 ****        19.5000  23.2500  42.5000 Du        
  14723 ****        19.5000  23.5000  41.5000 Du        
  14724 ****        19.5000  23.5000  41.7500 Du        
  14725 ****        19.5000  23.5000  42.0000 Du        
  14726 ****        19.5000  23.5000  42.2500 Du        
  14727 ****        19.5000  23.7500  41.7500 Du        
  14728 ****        19.5000  23.7500  42.0000 Du        
  14729 ****        19.5000  23.7500  42.2500 Du        
  14730 ****        19.7500 -20.5000  35.5000 Du        
  14731 ****        19.7500 -20.5000  35.7500 Du        
  14732 ****        19.7500 -20.2500  35.2500 Du        
  14733 ****        19.7500 -20.2500  35.5000 Du        
  14734 ****        19.7500 -20.2500  35.7500 Du        
  14735 ****        19.7500 -20.0000  35.0000 Du        
  14736 ****        19.7500 -20.0000  35.2500 Du        
  14737 ****        19.7500 -20.0000  35.5000 Du        
  14738 ****        19.7500 -20.0000  35.7500 Du        
  14739 ****        19.7500 -19.7500  34.7500 Du        
  14740 ****        19.7500 -19.7500  35.0000 Du        
  14741 ****        19.7500 -19.7500  35.2500 Du        
  14742 ****        19.7500 -19.7500  35.5000 Du        
  14743 ****        19.7500 -19.7500  35.7500 Du        
  14744 ****        19.7500 -19.5000  34.7500 Du        
  14745 ****        19.7500 -19.5000  35.0000 Du        
  14746 ****        19.7500 -19.5000  35.2500 Du        
  14747 ****        19.7500 -19.5000  35.5000 Du        
  14748 ****        19.7500 -19.5000  35.7500 Du        
  14749 ****        19.7500 -19.2500  34.7500 Du        
  14750 ****        19.7500 -19.2500  35.0000 Du        
  14751 ****        19.7500 -19.2500  35.2500 Du        
  14752 ****        19.7500 -19.2500  35.5000 Du        
  14753 ****        19.7500 -19.2500  35.7500 Du        
  14754 ****        19.7500 -19.0000  34.5000 Du        
  14755 ****        19.7500 -19.0000  34.7500 Du        
  14756 ****        19.7500 -19.0000  35.0000 Du        
  14757 ****        19.7500 -19.0000  35.2500 Du        
  14758 ****        19.7500 -19.0000  35.5000 Du        
  14759 ****        19.7500 -19.0000  35.7500 Du        
  14760 ****        19.7500 -18.7500  34.5000 Du        
  14761 ****        19.7500 -18.7500  34.7500 Du        
  14762 ****        19.7500 -18.7500  35.0000 Du        
  14763 ****        19.7500 -18.7500  35.2500 Du        
  14764 ****        19.7500 -18.7500  35.5000 Du        
  14765 ****        19.7500 -18.5000  34.5000 Du        
  14766 ****        19.7500 -18.5000  34.7500 Du        
  14767 ****        19.7500 -18.5000  35.0000 Du        
  14768 ****        19.7500 -18.5000  35.2500 Du        
  14769 ****        19.7500 -18.5000  35.5000 Du        
  14770 ****        19.7500 -18.2500  34.5000 Du        
  14771 ****        19.7500 -18.2500  34.7500 Du        
  14772 ****        19.7500 -18.2500  35.0000 Du        
  14773 ****        19.7500 -18.2500  35.2500 Du        
  14774 ****        19.7500 -18.2500  35.5000 Du        
  14775 ****        19.7500 -18.0000  34.5000 Du        
  14776 ****        19.7500 -18.0000  34.7500 Du        
  14777 ****        19.7500 -18.0000  35.0000 Du        
  14778 ****        19.7500 -18.0000  35.2500 Du        
  14779 ****        19.7500 -17.7500  34.2500 Du        
  14780 ****        19.7500 -17.7500  34.5000 Du        
  14781 ****        19.7500 -17.7500  34.7500 Du        
  14782 ****        19.7500 -17.7500  35.0000 Du        
  14783 ****        19.7500 -17.7500  35.2500 Du        
  14784 ****        19.7500 -17.5000  34.5000 Du        
  14785 ****        19.7500 -17.5000  34.7500 Du        
  14786 ****        19.7500 -17.5000  35.0000 Du        
  14787 ****        19.7500 -17.5000  35.2500 Du        
  14788 ****        19.7500 -17.2500  34.2500 Du        
  14789 ****        19.7500 -17.2500  34.5000 Du        
  14790 ****        19.7500 -17.2500  34.7500 Du        
  14791 ****        19.7500 -17.2500  35.0000 Du        
  14792 ****        19.7500 -17.2500  35.2500 Du        
  14793 ****        19.7500 -17.0000  34.2500 Du        
  14794 ****        19.7500 -17.0000  34.5000 Du        
  14795 ****        19.7500 -17.0000  34.7500 Du        
  14796 ****        19.7500 -17.0000  35.0000 Du        
  14797 ****        19.7500 -17.0000  35.2500 Du        
  14798 ****        19.7500 -16.7500  34.0000 Du        
  14799 ****        19.7500 -16.7500  34.2500 Du        
  14800 ****        19.7500 -16.7500  34.5000 Du        
  14801 ****        19.7500 -16.7500  34.7500 Du        
  14802 ****        19.7500 -16.7500  35.0000 Du        
  14803 ****        19.7500 -16.5000  34.0000 Du        
  14804 ****        19.7500 -16.5000  34.2500 Du        
  14805 ****        19.7500 -16.5000  34.5000 Du        
  14806 ****        19.7500 -16.5000  34.7500 Du        
  14807 ****        19.7500 -16.5000  35.0000 Du        
  14808 ****        19.7500 -16.2500  34.0000 Du        
  14809 ****        19.7500 -16.2500  34.2500 Du        
  14810 ****        19.7500 -16.2500  34.5000 Du        
  14811 ****        19.7500 -16.2500  34.7500 Du        
  14812 ****        19.7500 -16.2500  35.0000 Du        
  14813 ****        19.7500 -16.0000  34.2500 Du        
  14814 ****        19.7500 -16.0000  34.5000 Du        
  14815 ****        19.7500 -16.0000  34.7500 Du        
  14816 ****        19.7500 -16.0000  35.0000 Du        
  14817 ****        19.7500 -15.7500  34.7500 Du        
  14818 ****        19.7500 -15.7500  35.0000 Du        
  14819 ****        19.7500  -8.2500  30.5000 Du        
  14820 ****        19.7500  -8.0000  30.5000 Du        
  14821 ****        19.7500  -7.7500  30.5000 Du        
  14822 ****        19.7500  -7.7500  30.7500 Du        
  14823 ****        19.7500  -7.5000  30.5000 Du        
  14824 ****        19.7500  -7.5000  30.7500 Du        
  14825 ****        19.7500  -7.2500  30.5000 Du        
  14826 ****        19.7500  -7.2500  30.7500 Du        
  14827 ****        19.7500  -7.0000  30.5000 Du        
  14828 ****        19.7500  -7.0000  30.7500 Du        
  14829 ****        19.7500  -7.0000  31.0000 Du        
  14830 ****        19.7500  -6.7500  30.5000 Du        
  14831 ****        19.7500  -6.7500  30.7500 Du        
  14832 ****        19.7500  -6.7500  31.0000 Du        
  14833 ****        19.7500  -6.5000  30.5000 Du        
  14834 ****        19.7500  -6.5000  30.7500 Du        
  14835 ****        19.7500  -6.5000  31.0000 Du        
  14836 ****        19.7500  -6.5000  31.2500 Du        
  14837 ****        19.7500  -6.2500  30.5000 Du        
  14838 ****        19.7500  -6.2500  30.7500 Du        
  14839 ****        19.7500  -6.2500  31.0000 Du        
  14840 ****        19.7500  -6.2500  31.2500 Du        
  14841 ****        19.7500  -6.0000  30.5000 Du        
  14842 ****        19.7500  -6.0000  30.7500 Du        
  14843 ****        19.7500  -6.0000  31.0000 Du        
  14844 ****        19.7500  -6.0000  31.2500 Du        
  14845 ****        19.7500  -6.0000  31.5000 Du        
  14846 ****        19.7500  -5.7500  30.5000 Du        
  14847 ****        19.7500  -5.7500  30.7500 Du        
  14848 ****        19.7500  -5.7500  31.0000 Du        
  14849 ****        19.7500  -5.7500  31.2500 Du        
  14850 ****        19.7500  -5.7500  31.5000 Du        
  14851 ****        19.7500  -5.5000  30.7500 Du        
  14852 ****        19.7500  -5.5000  31.0000 Du        
  14853 ****        19.7500  -5.5000  31.2500 Du        
  14854 ****        19.7500  -5.5000  31.5000 Du        
  14855 ****        19.7500  -5.5000  31.7500 Du        
  14856 ****        19.7500  -5.2500  30.7500 Du        
  14857 ****        19.7500  -5.2500  31.0000 Du        
  14858 ****        19.7500  -5.2500  31.2500 Du        
  14859 ****        19.7500  -5.2500  31.5000 Du        
  14860 ****        19.7500  -5.2500  31.7500 Du        
  14861 ****        19.7500  -5.0000  31.0000 Du        
  14862 ****        19.7500  -5.0000  31.2500 Du        
  14863 ****        19.7500  -5.0000  31.5000 Du        
  14864 ****        19.7500  -5.0000  31.7500 Du        
  14865 ****        19.7500  -4.7500  31.5000 Du        
  14866 ****        19.7500  -4.7500  31.7500 Du        
  14867 ****        19.7500  -4.5000  31.5000 Du        
  14868 ****        19.7500  -4.5000  31.7500 Du        
  14869 ****        19.7500  -4.2500  31.5000 Du        
  14870 ****        19.7500  -4.2500  31.7500 Du        
  14871 ****        19.7500  -4.2500  32.0000 Du        
  14872 ****        19.7500  -4.0000  31.5000 Du        
  14873 ****        19.7500  -4.0000  31.7500 Du        
  14874 ****        19.7500  -4.0000  32.0000 Du        
  14875 ****        19.7500  -3.7500  31.5000 Du        
  14876 ****        19.7500  -3.7500  31.7500 Du        
  14877 ****        19.7500  -3.7500  32.0000 Du        
  14878 ****        19.7500  -3.7500  32.2500 Du        
  14879 ****        19.7500  -3.5000  31.7500 Du        
  14880 ****        19.7500  -3.5000  32.0000 Du        
  14881 ****        19.7500  -3.5000  32.2500 Du        
  14882 ****        19.7500  -3.2500  31.7500 Du        
  14883 ****        19.7500  -3.2500  32.0000 Du        
  14884 ****        19.7500  -3.2500  32.2500 Du        
  14885 ****        19.7500  -3.0000  32.0000 Du        
  14886 ****        19.7500  -3.0000  32.2500 Du        
  14887 ****        19.7500  -3.0000  32.5000 Du        
  14888 ****        19.7500  -2.7500  32.0000 Du        
  14889 ****        19.7500  -2.7500  32.2500 Du        
  14890 ****        19.7500  -2.7500  32.5000 Du        
  14891 ****        19.7500   7.7500  25.7500 Du        
  14892 ****        19.7500   7.7500  26.0000 Du        
  14893 ****        19.7500   7.7500  26.2500 Du        
  14894 ****        19.7500   8.0000  25.7500 Du        
  14895 ****        19.7500   8.0000  26.0000 Du        
  14896 ****        19.7500   8.0000  26.2500 Du        
  14897 ****        19.7500   8.2500  25.7500 Du        
  14898 ****        19.7500   8.2500  26.0000 Du        
  14899 ****        19.7500   8.5000  25.5000 Du        
  14900 ****        19.7500   8.5000  25.7500 Du        
  14901 ****        19.7500   8.5000  26.0000 Du        
  14902 ****        19.7500   8.7500  25.5000 Du        
  14903 ****        19.7500   8.7500  25.7500 Du        
  14904 ****        19.7500   8.7500  26.0000 Du        
  14905 ****        19.7500   9.0000  25.2500 Du        
  14906 ****        19.7500   9.0000  25.5000 Du        
  14907 ****        19.7500   9.0000  25.7500 Du        
  14908 ****        19.7500   9.0000  26.0000 Du        
  14909 ****        19.7500   9.2500  25.2500 Du        
  14910 ****        19.7500   9.2500  25.5000 Du        
  14911 ****        19.7500   9.2500  25.7500 Du        
  14912 ****        19.7500   9.2500  26.0000 Du        
  14913 ****        19.7500   9.5000  25.2500 Du        
  14914 ****        19.7500   9.5000  25.5000 Du        
  14915 ****        19.7500   9.5000  25.7500 Du        
  14916 ****        19.7500   9.5000  26.0000 Du        
  14917 ****        19.7500   9.7500  25.5000 Du        
  14918 ****        19.7500   9.7500  25.7500 Du        
  14919 ****        19.7500   9.7500  26.0000 Du        
  14920 ****        19.7500  14.2500  32.0000 Du        
  14921 ****        19.7500  14.5000  31.7500 Du        
  14922 ****        19.7500  14.5000  32.0000 Du        
  14923 ****        19.7500  14.7500  31.7500 Du        
  14924 ****        19.7500  14.7500  32.0000 Du        
  14925 ****        19.7500  14.7500  32.2500 Du        
  14926 ****        19.7500  15.0000  31.7500 Du        
  14927 ****        19.7500  15.0000  32.0000 Du        
  14928 ****        19.7500  15.0000  32.2500 Du        
  14929 ****        19.7500  15.2500  32.0000 Du        
  14930 ****        19.7500  15.2500  32.2500 Du        
  14931 ****        19.7500  16.5000  47.7500 Du        
  14932 ****        19.7500  16.7500  47.5000 Du        
  14933 ****        19.7500  16.7500  47.7500 Du        
  14934 ****        19.7500  17.0000  47.5000 Du        
  14935 ****        19.7500  17.0000  47.7500 Du        
  14936 ****        19.7500  17.2500  47.2500 Du        
  14937 ****        19.7500  17.2500  47.5000 Du        
  14938 ****        19.7500  17.2500  47.7500 Du        
  14939 ****        19.7500  17.5000  47.2500 Du        
  14940 ****        19.7500  17.5000  47.5000 Du        
  14941 ****        19.7500  17.5000  47.7500 Du        
  14942 ****        19.7500  17.7500  47.2500 Du        
  14943 ****        19.7500  17.7500  47.5000 Du        
  14944 ****        19.7500  17.7500  47.7500 Du        
  14945 ****        19.7500  18.0000  47.5000 Du        
  14946 ****        19.7500  18.0000  47.7500 Du        
  14947 ****        19.7500  19.5000  36.0000 Du        
  14948 ****        19.7500  19.5000  36.2500 Du        
  14949 ****        19.7500  19.7500  36.0000 Du        
  14950 ****        19.7500  19.7500  36.2500 Du        
  14951 ****        19.7500  20.0000  36.0000 Du        
  14952 ****        19.7500  20.0000  36.2500 Du        
  14953 ****        19.7500  20.2500  36.0000 Du        
  14954 ****        19.7500  20.2500  36.2500 Du        
  14955 ****        19.7500  20.2500  42.0000 Du        
  14956 ****        19.7500  20.2500  42.2500 Du        
  14957 ****        19.7500  20.2500  42.5000 Du        
  14958 ****        19.7500  20.2500  42.7500 Du        
  14959 ****        19.7500  20.2500  43.0000 Du        
  14960 ****        19.7500  20.5000  41.5000 Du        
  14961 ****        19.7500  20.5000  41.7500 Du        
  14962 ****        19.7500  20.5000  42.0000 Du        
  14963 ****        19.7500  20.5000  42.2500 Du        
  14964 ****        19.7500  20.5000  42.5000 Du        
  14965 ****        19.7500  20.5000  42.7500 Du        
  14966 ****        19.7500  20.5000  43.0000 Du        
  14967 ****        19.7500  20.7500  41.5000 Du        
  14968 ****        19.7500  20.7500  41.7500 Du        
  14969 ****        19.7500  20.7500  42.0000 Du        
  14970 ****        19.7500  20.7500  42.2500 Du        
  14971 ****        19.7500  20.7500  42.5000 Du        
  14972 ****        19.7500  20.7500  42.7500 Du        
  14973 ****        19.7500  21.0000  41.5000 Du        
  14974 ****        19.7500  21.0000  41.7500 Du        
  14975 ****        19.7500  21.0000  42.0000 Du        
  14976 ****        19.7500  21.0000  42.2500 Du        
  14977 ****        19.7500  21.0000  42.5000 Du        
  14978 ****        19.7500  21.0000  42.7500 Du        
  14979 ****        19.7500  21.2500  41.5000 Du        
  14980 ****        19.7500  21.2500  41.7500 Du        
  14981 ****        19.7500  21.2500  42.0000 Du        
  14982 ****        19.7500  21.2500  42.2500 Du        
  14983 ****        19.7500  21.2500  42.5000 Du        
  14984 ****        19.7500  21.2500  42.7500 Du        
  14985 ****        19.7500  21.5000  41.5000 Du        
  14986 ****        19.7500  21.5000  41.7500 Du        
  14987 ****        19.7500  21.5000  42.0000 Du        
  14988 ****        19.7500  21.5000  42.2500 Du        
  14989 ****        19.7500  21.5000  42.5000 Du        
  14990 ****        19.7500  21.7500  41.5000 Du        
  14991 ****        19.7500  21.7500  41.7500 Du        
  14992 ****        19.7500  21.7500  42.0000 Du        
  14993 ****        19.7500  21.7500  42.2500 Du        
  14994 ****        19.7500  21.7500  42.5000 Du        
  14995 ****        19.7500  22.0000  41.5000 Du        
  14996 ****        19.7500  22.0000  41.7500 Du        
  14997 ****        19.7500  22.0000  42.0000 Du        
  14998 ****        19.7500  22.0000  42.2500 Du        
  14999 ****        19.7500  22.0000  42.5000 Du        
  15000 ****        19.7500  22.2500  41.5000 Du        
  15001 ****        19.7500  22.2500  41.7500 Du        
  15002 ****        19.7500  22.2500  42.0000 Du        
  15003 ****        19.7500  22.2500  42.2500 Du        
  15004 ****        19.7500  22.2500  42.5000 Du        
  15005 ****        19.7500  22.5000  41.5000 Du        
  15006 ****        19.7500  22.5000  41.7500 Du        
  15007 ****        19.7500  22.5000  42.0000 Du        
  15008 ****        19.7500  22.5000  42.2500 Du        
  15009 ****        19.7500  22.7500  41.2500 Du        
  15010 ****        19.7500  22.7500  41.5000 Du        
  15011 ****        19.7500  22.7500  41.7500 Du        
  15012 ****        19.7500  22.7500  42.0000 Du        
  15013 ****        19.7500  22.7500  42.2500 Du        
  15014 ****        19.7500  22.7500  42.5000 Du        
  15015 ****        19.7500  23.0000  41.5000 Du        
  15016 ****        19.7500  23.0000  41.7500 Du        
  15017 ****        19.7500  23.0000  42.0000 Du        
  15018 ****        19.7500  23.0000  42.2500 Du        
  15019 ****        19.7500  23.0000  42.5000 Du        
  15020 ****        19.7500  23.2500  41.2500 Du        
  15021 ****        19.7500  23.2500  41.5000 Du        
  15022 ****        19.7500  23.2500  41.7500 Du        
  15023 ****        19.7500  23.2500  42.0000 Du        
  15024 ****        19.7500  23.2500  42.2500 Du        
  15025 ****        19.7500  23.2500  42.5000 Du        
  15026 ****        19.7500  23.5000  41.5000 Du        
  15027 ****        19.7500  23.5000  41.7500 Du        
  15028 ****        19.7500  23.5000  42.0000 Du        
  15029 ****        19.7500  23.5000  42.2500 Du        
  15030 ****        19.7500  23.5000  42.5000 Du        
  15031 ****        19.7500  23.7500  41.5000 Du        
  15032 ****        19.7500  23.7500  41.7500 Du        
  15033 ****        19.7500  23.7500  42.0000 Du        
  15034 ****        19.7500  23.7500  42.2500 Du        
  15035 ****        19.7500  23.7500  42.5000 Du        
  15036 ****        19.7500  24.0000  41.5000 Du        
  15037 ****        19.7500  24.0000  41.7500 Du        
  15038 ****        19.7500  24.0000  42.0000 Du        
  15039 ****        19.7500  24.0000  42.2500 Du        
  15040 ****        19.7500  24.0000  42.5000 Du        
  15041 ****        19.7500  24.0000  42.7500 Du        
  15042 ****        19.7500  24.2500  41.7500 Du        
  15043 ****        19.7500  24.2500  42.0000 Du        
  15044 ****        19.7500  24.2500  42.2500 Du        
  15045 ****        20.0000 -20.5000  35.5000 Du        
  15046 ****        20.0000 -20.5000  35.7500 Du        
  15047 ****        20.0000 -20.2500  35.2500 Du        
  15048 ****        20.0000 -20.2500  35.5000 Du        
  15049 ****        20.0000 -20.2500  35.7500 Du        
  15050 ****        20.0000 -20.0000  35.0000 Du        
  15051 ****        20.0000 -20.0000  35.2500 Du        
  15052 ****        20.0000 -20.0000  35.5000 Du        
  15053 ****        20.0000 -20.0000  35.7500 Du        
  15054 ****        20.0000 -19.7500  35.0000 Du        
  15055 ****        20.0000 -19.7500  35.2500 Du        
  15056 ****        20.0000 -19.7500  35.5000 Du        
  15057 ****        20.0000 -19.7500  35.7500 Du        
  15058 ****        20.0000 -19.5000  34.7500 Du        
  15059 ****        20.0000 -19.5000  35.0000 Du        
  15060 ****        20.0000 -19.5000  35.2500 Du        
  15061 ****        20.0000 -19.5000  35.5000 Du        
  15062 ****        20.0000 -19.5000  35.7500 Du        
  15063 ****        20.0000 -19.2500  34.7500 Du        
  15064 ****        20.0000 -19.2500  35.0000 Du        
  15065 ****        20.0000 -19.2500  35.2500 Du        
  15066 ****        20.0000 -19.2500  35.5000 Du        
  15067 ****        20.0000 -19.2500  35.7500 Du        
  15068 ****        20.0000 -19.0000  34.7500 Du        
  15069 ****        20.0000 -19.0000  35.0000 Du        
  15070 ****        20.0000 -19.0000  35.2500 Du        
  15071 ****        20.0000 -19.0000  35.5000 Du        
  15072 ****        20.0000 -19.0000  35.7500 Du        
  15073 ****        20.0000 -18.7500  34.5000 Du        
  15074 ****        20.0000 -18.7500  34.7500 Du        
  15075 ****        20.0000 -18.7500  35.0000 Du        
  15076 ****        20.0000 -18.7500  35.2500 Du        
  15077 ****        20.0000 -18.7500  35.5000 Du        
  15078 ****        20.0000 -18.7500  35.7500 Du        
  15079 ****        20.0000 -18.5000  34.5000 Du        
  15080 ****        20.0000 -18.5000  34.7500 Du        
  15081 ****        20.0000 -18.5000  35.0000 Du        
  15082 ****        20.0000 -18.5000  35.2500 Du        
  15083 ****        20.0000 -18.5000  35.5000 Du        
  15084 ****        20.0000 -18.2500  34.5000 Du        
  15085 ****        20.0000 -18.2500  34.7500 Du        
  15086 ****        20.0000 -18.2500  35.0000 Du        
  15087 ****        20.0000 -18.2500  35.2500 Du        
  15088 ****        20.0000 -18.2500  35.5000 Du        
  15089 ****        20.0000 -18.0000  34.5000 Du        
  15090 ****        20.0000 -18.0000  34.7500 Du        
  15091 ****        20.0000 -18.0000  35.0000 Du        
  15092 ****        20.0000 -18.0000  35.2500 Du        
  15093 ****        20.0000 -18.0000  35.5000 Du        
  15094 ****        20.0000 -17.7500  34.2500 Du        
  15095 ****        20.0000 -17.7500  34.5000 Du        
  15096 ****        20.0000 -17.7500  34.7500 Du        
  15097 ****        20.0000 -17.7500  35.0000 Du        
  15098 ****        20.0000 -17.7500  35.2500 Du        
  15099 ****        20.0000 -17.5000  34.5000 Du        
  15100 ****        20.0000 -17.5000  34.7500 Du        
  15101 ****        20.0000 -17.5000  35.0000 Du        
  15102 ****        20.0000 -17.5000  35.2500 Du        
  15103 ****        20.0000 -17.2500  34.2500 Du        
  15104 ****        20.0000 -17.2500  34.5000 Du        
  15105 ****        20.0000 -17.2500  34.7500 Du        
  15106 ****        20.0000 -17.2500  35.0000 Du        
  15107 ****        20.0000 -17.2500  35.2500 Du        
  15108 ****        20.0000 -17.0000  34.0000 Du        
  15109 ****        20.0000 -17.0000  34.2500 Du        
  15110 ****        20.0000 -17.0000  34.5000 Du        
  15111 ****        20.0000 -17.0000  34.7500 Du        
  15112 ****        20.0000 -17.0000  35.0000 Du        
  15113 ****        20.0000 -17.0000  35.2500 Du        
  15114 ****        20.0000 -16.7500  34.0000 Du        
  15115 ****        20.0000 -16.7500  34.2500 Du        
  15116 ****        20.0000 -16.7500  34.5000 Du        
  15117 ****        20.0000 -16.7500  34.7500 Du        
  15118 ****        20.0000 -16.7500  35.0000 Du        
  15119 ****        20.0000 -16.7500  35.2500 Du        
  15120 ****        20.0000 -16.5000  34.0000 Du        
  15121 ****        20.0000 -16.5000  34.2500 Du        
  15122 ****        20.0000 -16.5000  34.5000 Du        
  15123 ****        20.0000 -16.5000  34.7500 Du        
  15124 ****        20.0000 -16.5000  35.0000 Du        
  15125 ****        20.0000 -16.5000  35.2500 Du        
  15126 ****        20.0000 -16.2500  34.0000 Du        
  15127 ****        20.0000 -16.2500  34.2500 Du        
  15128 ****        20.0000 -16.2500  34.5000 Du        
  15129 ****        20.0000 -16.2500  34.7500 Du        
  15130 ****        20.0000 -16.2500  35.0000 Du        
  15131 ****        20.0000 -16.2500  35.2500 Du        
  15132 ****        20.0000 -16.0000  34.0000 Du        
  15133 ****        20.0000 -16.0000  34.2500 Du        
  15134 ****        20.0000 -16.0000  34.5000 Du        
  15135 ****        20.0000 -16.0000  34.7500 Du        
  15136 ****        20.0000 -16.0000  35.0000 Du        
  15137 ****        20.0000 -16.0000  35.2500 Du        
  15138 ****        20.0000 -15.7500  34.5000 Du        
  15139 ****        20.0000 -15.7500  34.7500 Du        
  15140 ****        20.0000 -15.7500  35.0000 Du        
  15141 ****        20.0000 -15.7500  35.2500 Du        
  15142 ****        20.0000 -15.5000  35.2500 Du        
  15143 ****        20.0000  -7.5000  30.7500 Du        
  15144 ****        20.0000  -7.2500  30.7500 Du        
  15145 ****        20.0000  -7.0000  30.5000 Du        
  15146 ****        20.0000  -7.0000  30.7500 Du        
  15147 ****        20.0000  -7.0000  31.0000 Du        
  15148 ****        20.0000  -6.7500  30.5000 Du        
  15149 ****        20.0000  -6.7500  30.7500 Du        
  15150 ****        20.0000  -6.7500  31.0000 Du        
  15151 ****        20.0000  -6.5000  30.5000 Du        
  15152 ****        20.0000  -6.5000  30.7500 Du        
  15153 ****        20.0000  -6.5000  31.0000 Du        
  15154 ****        20.0000  -6.5000  31.2500 Du        
  15155 ****        20.0000  -6.2500  30.5000 Du        
  15156 ****        20.0000  -6.2500  30.7500 Du        
  15157 ****        20.0000  -6.2500  31.0000 Du        
  15158 ****        20.0000  -6.2500  31.2500 Du        
  15159 ****        20.0000  -6.2500  31.5000 Du        
  15160 ****        20.0000  -6.0000  30.5000 Du        
  15161 ****        20.0000  -6.0000  30.7500 Du        
  15162 ****        20.0000  -6.0000  31.0000 Du        
  15163 ****        20.0000  -6.0000  31.2500 Du        
  15164 ****        20.0000  -6.0000  31.5000 Du        
  15165 ****        20.0000  -5.7500  30.7500 Du        
  15166 ****        20.0000  -5.7500  31.0000 Du        
  15167 ****        20.0000  -5.7500  31.2500 Du        
  15168 ****        20.0000  -5.7500  31.5000 Du        
  15169 ****        20.0000  -5.7500  31.7500 Du        
  15170 ****        20.0000  -5.5000  30.7500 Du        
  15171 ****        20.0000  -5.5000  31.0000 Du        
  15172 ****        20.0000  -5.5000  31.2500 Du        
  15173 ****        20.0000  -5.5000  31.5000 Du        
  15174 ****        20.0000  -5.5000  31.7500 Du        
  15175 ****        20.0000  -5.2500  31.0000 Du        
  15176 ****        20.0000  -5.2500  31.2500 Du        
  15177 ****        20.0000  -5.2500  31.5000 Du        
  15178 ****        20.0000  -5.2500  31.7500 Du        
  15179 ****        20.0000  -5.0000  31.2500 Du        
  15180 ****        20.0000  -5.0000  31.5000 Du        
  15181 ****        20.0000  -5.0000  31.7500 Du        
  15182 ****        20.0000  -4.7500  31.5000 Du        
  15183 ****        20.0000  -4.7500  31.7500 Du        
  15184 ****        20.0000  -4.7500  32.0000 Du        
  15185 ****        20.0000  -4.5000  31.5000 Du        
  15186 ****        20.0000  -4.5000  31.7500 Du        
  15187 ****        20.0000  -4.5000  32.0000 Du        
  15188 ****        20.0000  -4.2500  31.5000 Du        
  15189 ****        20.0000  -4.2500  31.7500 Du        
  15190 ****        20.0000  -4.2500  32.0000 Du        
  15191 ****        20.0000  -4.0000  31.5000 Du        
  15192 ****        20.0000  -4.0000  31.7500 Du        
  15193 ****        20.0000  -4.0000  32.0000 Du        
  15194 ****        20.0000  -4.0000  32.2500 Du        
  15195 ****        20.0000  -3.7500  31.5000 Du        
  15196 ****        20.0000  -3.7500  31.7500 Du        
  15197 ****        20.0000  -3.7500  32.0000 Du        
  15198 ****        20.0000  -3.7500  32.2500 Du        
  15199 ****        20.0000  -3.5000  31.5000 Du        
  15200 ****        20.0000  -3.5000  31.7500 Du        
  15201 ****        20.0000  -3.5000  32.0000 Du        
  15202 ****        20.0000  -3.5000  32.2500 Du        
  15203 ****        20.0000  -3.2500  31.5000 Du        
  15204 ****        20.0000  -3.2500  31.7500 Du        
  15205 ****        20.0000  -3.2500  32.0000 Du        
  15206 ****        20.0000  -3.2500  32.2500 Du        
  15207 ****        20.0000  -3.2500  32.5000 Du        
  15208 ****        20.0000  -3.0000  31.7500 Du        
  15209 ****        20.0000  -3.0000  32.0000 Du        
  15210 ****        20.0000  -3.0000  32.2500 Du        
  15211 ****        20.0000  -3.0000  32.5000 Du        
  15212 ****        20.0000  -2.7500  31.7500 Du        
  15213 ****        20.0000  -2.7500  32.0000 Du        
  15214 ****        20.0000  -2.7500  32.2500 Du        
  15215 ****        20.0000  -2.7500  32.5000 Du        
  15216 ****        20.0000  -2.7500  32.7500 Du        
  15217 ****        20.0000  -2.5000  32.5000 Du        
  15218 ****        20.0000  -2.5000  32.7500 Du        
  15219 ****        20.0000  -2.2500  32.7500 Du        
  15220 ****        20.0000   7.2500  25.7500 Du        
  15221 ****        20.0000   7.2500  26.0000 Du        
  15222 ****        20.0000   7.5000  25.7500 Du        
  15223 ****        20.0000   7.5000  26.0000 Du        
  15224 ****        20.0000   7.5000  26.2500 Du        
  15225 ****        20.0000   7.7500  25.5000 Du        
  15226 ****        20.0000   7.7500  25.7500 Du        
  15227 ****        20.0000   7.7500  26.0000 Du        
  15228 ****        20.0000   7.7500  26.2500 Du        
  15229 ****        20.0000   8.0000  25.5000 Du        
  15230 ****        20.0000   8.0000  25.7500 Du        
  15231 ****        20.0000   8.0000  26.0000 Du        
  15232 ****        20.0000   8.0000  26.2500 Du        
  15233 ****        20.0000   8.2500  25.5000 Du        
  15234 ****        20.0000   8.2500  25.7500 Du        
  15235 ****        20.0000   8.2500  26.0000 Du        
  15236 ****        20.0000   8.2500  26.2500 Du        
  15237 ****        20.0000   8.5000  25.2500 Du        
  15238 ****        20.0000   8.5000  25.5000 Du        
  15239 ****        20.0000   8.5000  25.7500 Du        
  15240 ****        20.0000   8.5000  26.0000 Du        
  15241 ****        20.0000   8.5000  26.2500 Du        
  15242 ****        20.0000   8.7500  25.2500 Du        
  15243 ****        20.0000   8.7500  25.5000 Du        
  15244 ****        20.0000   8.7500  25.7500 Du        
  15245 ****        20.0000   8.7500  26.0000 Du        
  15246 ****        20.0000   8.7500  26.2500 Du        
  15247 ****        20.0000   9.0000  25.2500 Du        
  15248 ****        20.0000   9.0000  25.5000 Du        
  15249 ****        20.0000   9.0000  25.7500 Du        
  15250 ****        20.0000   9.0000  26.0000 Du        
  15251 ****        20.0000   9.2500  25.2500 Du        
  15252 ****        20.0000   9.2500  25.5000 Du        
  15253 ****        20.0000   9.2500  25.7500 Du        
  15254 ****        20.0000   9.2500  26.0000 Du        
  15255 ****        20.0000   9.5000  25.5000 Du        
  15256 ****        20.0000   9.5000  25.7500 Du        
  15257 ****        20.0000   9.5000  26.0000 Du        
  15258 ****        20.0000   9.7500  25.7500 Du        
  15259 ****        20.0000   9.7500  26.0000 Du        
  15260 ****        20.0000  14.0000  31.7500 Du        
  15261 ****        20.0000  14.0000  32.0000 Du        
  15262 ****        20.0000  14.2500  31.7500 Du        
  15263 ****        20.0000  14.2500  32.0000 Du        
  15264 ****        20.0000  14.5000  31.5000 Du        
  15265 ****        20.0000  14.5000  31.7500 Du        
  15266 ****        20.0000  14.5000  32.0000 Du        
  15267 ****        20.0000  14.7500  31.5000 Du        
  15268 ****        20.0000  14.7500  31.7500 Du        
  15269 ****        20.0000  14.7500  32.0000 Du        
  15270 ****        20.0000  15.0000  31.5000 Du        
  15271 ****        20.0000  15.0000  31.7500 Du        
  15272 ****        20.0000  15.0000  32.0000 Du        
  15273 ****        20.0000  15.0000  32.2500 Du        
  15274 ****        20.0000  15.2500  31.7500 Du        
  15275 ****        20.0000  15.2500  32.0000 Du        
  15276 ****        20.0000  15.2500  32.2500 Du        
  15277 ****        20.0000  15.5000  31.7500 Du        
  15278 ****        20.0000  15.5000  32.0000 Du        
  15279 ****        20.0000  15.5000  32.2500 Du        
  15280 ****        20.0000  16.7500  47.7500 Du        
  15281 ****        20.0000  17.0000  47.7500 Du        
  15282 ****        20.0000  17.2500  47.5000 Du        
  15283 ****        20.0000  17.2500  47.7500 Du        
  15284 ****        20.0000  17.5000  47.5000 Du        
  15285 ****        20.0000  17.5000  47.7500 Du        
  15286 ****        20.0000  17.7500  47.2500 Du        
  15287 ****        20.0000  17.7500  47.5000 Du        
  15288 ****        20.0000  17.7500  47.7500 Du        
  15289 ****        20.0000  18.0000  47.5000 Du        
  15290 ****        20.0000  18.0000  47.7500 Du        
  15291 ****        20.0000  19.5000  35.7500 Du        
  15292 ****        20.0000  19.5000  36.0000 Du        
  15293 ****        20.0000  19.5000  36.2500 Du        
  15294 ****        20.0000  19.5000  36.7500 Du        
  15295 ****        20.0000  19.7500  36.0000 Du        
  15296 ****        20.0000  19.7500  36.2500 Du        
  15297 ****        20.0000  20.0000  36.0000 Du        
  15298 ****        20.0000  20.0000  36.2500 Du        
  15299 ****        20.0000  20.2500  42.0000 Du        
  15300 ****        20.0000  20.2500  42.2500 Du        
  15301 ****        20.0000  20.2500  42.5000 Du        
  15302 ****        20.0000  20.2500  42.7500 Du        
  15303 ****        20.0000  20.5000  41.7500 Du        
  15304 ****        20.0000  20.5000  42.0000 Du        
  15305 ****        20.0000  20.5000  42.2500 Du        
  15306 ****        20.0000  20.5000  42.5000 Du        
  15307 ****        20.0000  20.5000  42.7500 Du        
  15308 ****        20.0000  20.5000  43.0000 Du        
  15309 ****        20.0000  20.7500  41.7500 Du        
  15310 ****        20.0000  20.7500  42.0000 Du        
  15311 ****        20.0000  20.7500  42.2500 Du        
  15312 ****        20.0000  20.7500  42.5000 Du        
  15313 ****        20.0000  20.7500  42.7500 Du        
  15314 ****        20.0000  21.0000  41.7500 Du        
  15315 ****        20.0000  21.0000  42.0000 Du        
  15316 ****        20.0000  21.0000  42.2500 Du        
  15317 ****        20.0000  21.0000  42.5000 Du        
  15318 ****        20.0000  21.0000  42.7500 Du        
  15319 ****        20.0000  21.2500  41.7500 Du        
  15320 ****        20.0000  21.2500  42.0000 Du        
  15321 ****        20.0000  21.2500  42.2500 Du        
  15322 ****        20.0000  21.2500  42.5000 Du        
  15323 ****        20.0000  21.5000  41.7500 Du        
  15324 ****        20.0000  21.5000  42.0000 Du        
  15325 ****        20.0000  21.5000  42.2500 Du        
  15326 ****        20.0000  21.5000  42.5000 Du        
  15327 ****        20.0000  21.7500  41.7500 Du        
  15328 ****        20.0000  21.7500  42.0000 Du        
  15329 ****        20.0000  21.7500  42.2500 Du        
  15330 ****        20.0000  21.7500  42.5000 Du        
  15331 ****        20.0000  22.0000  41.5000 Du        
  15332 ****        20.0000  22.0000  41.7500 Du        
  15333 ****        20.0000  22.0000  42.0000 Du        
  15334 ****        20.0000  22.0000  42.2500 Du        
  15335 ****        20.0000  22.2500  41.5000 Du        
  15336 ****        20.0000  22.2500  41.7500 Du        
  15337 ****        20.0000  22.2500  42.0000 Du        
  15338 ****        20.0000  22.2500  42.2500 Du        
  15339 ****        20.0000  22.5000  41.5000 Du        
  15340 ****        20.0000  22.5000  41.7500 Du        
  15341 ****        20.0000  22.5000  42.0000 Du        
  15342 ****        20.0000  22.5000  42.2500 Du        
  15343 ****        20.0000  22.7500  41.2500 Du        
  15344 ****        20.0000  22.7500  41.5000 Du        
  15345 ****        20.0000  22.7500  41.7500 Du        
  15346 ****        20.0000  22.7500  42.0000 Du        
  15347 ****        20.0000  22.7500  42.2500 Du        
  15348 ****        20.0000  22.7500  42.5000 Du        
  15349 ****        20.0000  23.0000  41.2500 Du        
  15350 ****        20.0000  23.0000  41.5000 Du        
  15351 ****        20.0000  23.0000  41.7500 Du        
  15352 ****        20.0000  23.0000  42.0000 Du        
  15353 ****        20.0000  23.0000  42.2500 Du        
  15354 ****        20.0000  23.0000  42.5000 Du        
  15355 ****        20.0000  23.2500  41.2500 Du        
  15356 ****        20.0000  23.2500  41.5000 Du        
  15357 ****        20.0000  23.2500  41.7500 Du        
  15358 ****        20.0000  23.2500  42.0000 Du        
  15359 ****        20.0000  23.2500  42.2500 Du        
  15360 ****        20.0000  23.2500  42.5000 Du        
  15361 ****        20.0000  23.5000  41.5000 Du        
  15362 ****        20.0000  23.5000  41.7500 Du        
  15363 ****        20.0000  23.5000  42.0000 Du        
  15364 ****        20.0000  23.5000  42.2500 Du        
  15365 ****        20.0000  23.5000  42.5000 Du        
  15366 ****        20.0000  23.7500  41.5000 Du        
  15367 ****        20.0000  23.7500  41.7500 Du        
  15368 ****        20.0000  23.7500  42.0000 Du        
  15369 ****        20.0000  23.7500  42.2500 Du        
  15370 ****        20.0000  23.7500  42.5000 Du        
  15371 ****        20.0000  23.7500  42.7500 Du        
  15372 ****        20.0000  24.0000  41.5000 Du        
  15373 ****        20.0000  24.0000  41.7500 Du        
  15374 ****        20.0000  24.0000  42.0000 Du        
  15375 ****        20.0000  24.0000  42.2500 Du        
  15376 ****        20.0000  24.0000  42.5000 Du        
  15377 ****        20.0000  24.0000  42.7500 Du        
  15378 ****        20.0000  24.0000  43.0000 Du        
  15379 ****        20.0000  24.2500  41.5000 Du        
  15380 ****        20.0000  24.2500  41.7500 Du        
  15381 ****        20.0000  24.2500  42.0000 Du        
  15382 ****        20.0000  24.2500  42.2500 Du        
  15383 ****        20.0000  24.2500  42.5000 Du        
  15384 ****        20.0000  24.5000  41.7500 Du        
  15385 ****        20.0000  24.5000  42.0000 Du        
  15386 ****        20.0000  24.5000  42.2500 Du        
  15387 ****        20.0000  24.5000  42.5000 Du        
  15388 ****        20.2500 -20.5000  35.5000 Du        
  15389 ****        20.2500 -20.5000  35.7500 Du        
  15390 ****        20.2500 -20.2500  35.2500 Du        
  15391 ****        20.2500 -20.2500  35.5000 Du        
  15392 ****        20.2500 -20.2500  35.7500 Du        
  15393 ****        20.2500 -20.0000  35.0000 Du        
  15394 ****        20.2500 -20.0000  35.2500 Du        
  15395 ****        20.2500 -20.0000  35.5000 Du        
  15396 ****        20.2500 -20.0000  35.7500 Du        
  15397 ****        20.2500 -19.7500  35.0000 Du        
  15398 ****        20.2500 -19.7500  35.2500 Du        
  15399 ****        20.2500 -19.7500  35.5000 Du        
  15400 ****        20.2500 -19.7500  35.7500 Du        
  15401 ****        20.2500 -19.5000  35.0000 Du        
  15402 ****        20.2500 -19.5000  35.2500 Du        
  15403 ****        20.2500 -19.5000  35.5000 Du        
  15404 ****        20.2500 -19.5000  35.7500 Du        
  15405 ****        20.2500 -19.2500  34.7500 Du        
  15406 ****        20.2500 -19.2500  35.0000 Du        
  15407 ****        20.2500 -19.2500  35.2500 Du        
  15408 ****        20.2500 -19.2500  35.5000 Du        
  15409 ****        20.2500 -19.2500  35.7500 Du        
  15410 ****        20.2500 -19.0000  34.7500 Du        
  15411 ****        20.2500 -19.0000  35.0000 Du        
  15412 ****        20.2500 -19.0000  35.2500 Du        
  15413 ****        20.2500 -19.0000  35.5000 Du        
  15414 ****        20.2500 -19.0000  35.7500 Du        
  15415 ****        20.2500 -18.7500  34.7500 Du        
  15416 ****        20.2500 -18.7500  35.0000 Du        
  15417 ****        20.2500 -18.7500  35.2500 Du        
  15418 ****        20.2500 -18.7500  35.5000 Du        
  15419 ****        20.2500 -18.7500  35.7500 Du        
  15420 ****        20.2500 -18.5000  34.5000 Du        
  15421 ****        20.2500 -18.5000  34.7500 Du        
  15422 ****        20.2500 -18.5000  35.0000 Du        
  15423 ****        20.2500 -18.5000  35.2500 Du        
  15424 ****        20.2500 -18.5000  35.5000 Du        
  15425 ****        20.2500 -18.5000  35.7500 Du        
  15426 ****        20.2500 -18.2500  34.5000 Du        
  15427 ****        20.2500 -18.2500  34.7500 Du        
  15428 ****        20.2500 -18.2500  35.0000 Du        
  15429 ****        20.2500 -18.2500  35.2500 Du        
  15430 ****        20.2500 -18.2500  35.5000 Du        
  15431 ****        20.2500 -18.0000  34.5000 Du        
  15432 ****        20.2500 -18.0000  34.7500 Du        
  15433 ****        20.2500 -18.0000  35.0000 Du        
  15434 ****        20.2500 -18.0000  35.2500 Du        
  15435 ****        20.2500 -18.0000  35.5000 Du        
  15436 ****        20.2500 -17.7500  34.5000 Du        
  15437 ****        20.2500 -17.7500  34.7500 Du        
  15438 ****        20.2500 -17.7500  35.0000 Du        
  15439 ****        20.2500 -17.7500  35.2500 Du        
  15440 ****        20.2500 -17.7500  35.5000 Du        
  15441 ****        20.2500 -17.5000  34.5000 Du        
  15442 ****        20.2500 -17.5000  34.7500 Du        
  15443 ****        20.2500 -17.5000  35.0000 Du        
  15444 ****        20.2500 -17.5000  35.2500 Du        
  15445 ****        20.2500 -17.5000  42.5000 Du        
  15446 ****        20.2500 -17.5000  42.7500 Du        
  15447 ****        20.2500 -17.2500  34.2500 Du        
  15448 ****        20.2500 -17.2500  34.5000 Du        
  15449 ****        20.2500 -17.2500  34.7500 Du        
  15450 ****        20.2500 -17.2500  35.0000 Du        
  15451 ****        20.2500 -17.2500  35.2500 Du        
  15452 ****        20.2500 -17.2500  42.2500 Du        
  15453 ****        20.2500 -17.2500  42.5000 Du        
  15454 ****        20.2500 -17.2500  42.7500 Du        
  15455 ****        20.2500 -17.0000  34.2500 Du        
  15456 ****        20.2500 -17.0000  34.5000 Du        
  15457 ****        20.2500 -17.0000  34.7500 Du        
  15458 ****        20.2500 -17.0000  35.0000 Du        
  15459 ****        20.2500 -17.0000  35.2500 Du        
  15460 ****        20.2500 -17.0000  42.2500 Du        
  15461 ****        20.2500 -17.0000  42.5000 Du        
  15462 ****        20.2500 -17.0000  42.7500 Du        
  15463 ****        20.2500 -16.7500  34.0000 Du        
  15464 ****        20.2500 -16.7500  34.2500 Du        
  15465 ****        20.2500 -16.7500  34.5000 Du        
  15466 ****        20.2500 -16.7500  34.7500 Du        
  15467 ****        20.2500 -16.7500  35.0000 Du        
  15468 ****        20.2500 -16.7500  35.2500 Du        
  15469 ****        20.2500 -16.7500  42.5000 Du        
  15470 ****        20.2500 -16.7500  42.7500 Du        
  15471 ****        20.2500 -16.5000  34.0000 Du        
  15472 ****        20.2500 -16.5000  34.2500 Du        
  15473 ****        20.2500 -16.5000  34.5000 Du        
  15474 ****        20.2500 -16.5000  34.7500 Du        
  15475 ****        20.2500 -16.5000  35.0000 Du        
  15476 ****        20.2500 -16.5000  35.2500 Du        
  15477 ****        20.2500 -16.2500  34.0000 Du        
  15478 ****        20.2500 -16.2500  34.2500 Du        
  15479 ****        20.2500 -16.2500  34.5000 Du        
  15480 ****        20.2500 -16.2500  34.7500 Du        
  15481 ****        20.2500 -16.2500  35.0000 Du        
  15482 ****        20.2500 -16.2500  35.2500 Du        
  15483 ****        20.2500 -16.0000  34.0000 Du        
  15484 ****        20.2500 -16.0000  34.2500 Du        
  15485 ****        20.2500 -16.0000  34.5000 Du        
  15486 ****        20.2500 -16.0000  34.7500 Du        
  15487 ****        20.2500 -16.0000  35.0000 Du        
  15488 ****        20.2500 -16.0000  35.2500 Du        
  15489 ****        20.2500 -16.0000  35.5000 Du        
  15490 ****        20.2500 -15.7500  34.5000 Du        
  15491 ****        20.2500 -15.7500  34.7500 Du        
  15492 ****        20.2500 -15.7500  35.0000 Du        
  15493 ****        20.2500 -15.7500  35.2500 Du        
  15494 ****        20.2500 -15.7500  35.5000 Du        
  15495 ****        20.2500 -15.5000  34.7500 Du        
  15496 ****        20.2500 -15.5000  35.0000 Du        
  15497 ****        20.2500 -15.5000  35.2500 Du        
  15498 ****        20.2500 -15.5000  35.5000 Du        
  15499 ****        20.2500  -7.0000  30.7500 Du        
  15500 ****        20.2500  -6.7500  30.7500 Du        
  15501 ****        20.2500  -6.7500  31.0000 Du        
  15502 ****        20.2500  -6.5000  30.7500 Du        
  15503 ****        20.2500  -6.5000  31.0000 Du        
  15504 ****        20.2500  -6.5000  31.2500 Du        
  15505 ****        20.2500  -6.2500  30.7500 Du        
  15506 ****        20.2500  -6.2500  31.0000 Du        
  15507 ****        20.2500  -6.2500  31.2500 Du        
  15508 ****        20.2500  -6.2500  31.5000 Du        
  15509 ****        20.2500  -6.0000  30.7500 Du        
  15510 ****        20.2500  -6.0000  31.0000 Du        
  15511 ****        20.2500  -6.0000  31.2500 Du        
  15512 ****        20.2500  -6.0000  31.5000 Du        
  15513 ****        20.2500  -6.0000  31.7500 Du        
  15514 ****        20.2500  -5.7500  31.0000 Du        
  15515 ****        20.2500  -5.7500  31.2500 Du        
  15516 ****        20.2500  -5.7500  31.5000 Du        
  15517 ****        20.2500  -5.7500  31.7500 Du        
  15518 ****        20.2500  -5.5000  31.5000 Du        
  15519 ****        20.2500  -5.5000  31.7500 Du        
  15520 ****        20.2500  -5.2500  31.5000 Du        
  15521 ****        20.2500  -5.2500  31.7500 Du        
  15522 ****        20.2500  -5.2500  32.0000 Du        
  15523 ****        20.2500  -5.0000  31.5000 Du        
  15524 ****        20.2500  -5.0000  31.7500 Du        
  15525 ****        20.2500  -5.0000  32.0000 Du        
  15526 ****        20.2500  -4.7500  31.5000 Du        
  15527 ****        20.2500  -4.7500  31.7500 Du        
  15528 ****        20.2500  -4.7500  32.0000 Du        
  15529 ****        20.2500  -4.5000  31.5000 Du        
  15530 ****        20.2500  -4.5000  31.7500 Du        
  15531 ****        20.2500  -4.5000  32.0000 Du        
  15532 ****        20.2500  -4.2500  31.5000 Du        
  15533 ****        20.2500  -4.2500  31.7500 Du        
  15534 ****        20.2500  -4.2500  32.0000 Du        
  15535 ****        20.2500  -4.0000  31.5000 Du        
  15536 ****        20.2500  -4.0000  31.7500 Du        
  15537 ****        20.2500  -4.0000  32.0000 Du        
  15538 ****        20.2500  -4.0000  32.2500 Du        
  15539 ****        20.2500  -3.7500  31.5000 Du        
  15540 ****        20.2500  -3.7500  31.7500 Du        
  15541 ****        20.2500  -3.7500  32.0000 Du        
  15542 ****        20.2500  -3.7500  32.2500 Du        
  15543 ****        20.2500  -3.5000  31.7500 Du        
  15544 ****        20.2500  -3.5000  32.0000 Du        
  15545 ****        20.2500  -3.5000  32.2500 Du        
  15546 ****        20.2500  -3.5000  32.5000 Du        
  15547 ****        20.2500  -3.2500  31.7500 Du        
  15548 ****        20.2500  -3.2500  32.0000 Du        
  15549 ****        20.2500  -3.2500  32.2500 Du        
  15550 ****        20.2500  -3.2500  32.5000 Du        
  15551 ****        20.2500  -3.0000  32.0000 Du        
  15552 ****        20.2500  -3.0000  32.2500 Du        
  15553 ****        20.2500  -3.0000  32.5000 Du        
  15554 ****        20.2500  -3.0000  32.7500 Du        
  15555 ****        20.2500  -2.7500  32.2500 Du        
  15556 ****        20.2500  -2.7500  32.5000 Du        
  15557 ****        20.2500  -2.7500  32.7500 Du        
  15558 ****        20.2500  -2.5000  32.5000 Du        
  15559 ****        20.2500  -2.5000  32.7500 Du        
  15560 ****        20.2500  -2.2500  32.7500 Du        
  15561 ****        20.2500  -1.0000  36.2500 Du        
  15562 ****        20.2500  -1.0000  36.5000 Du        
  15563 ****        20.2500  -0.7500  36.0000 Du        
  15564 ****        20.2500  -0.7500  36.2500 Du        
  15565 ****        20.2500  -0.7500  36.5000 Du        
  15566 ****        20.2500  -0.7500  36.7500 Du        
  15567 ****        20.2500  -0.5000  36.2500 Du        
  15568 ****        20.2500  -0.5000  36.5000 Du        
  15569 ****        20.2500  -0.2500  36.5000 Du        
  15570 ****        20.2500   7.2500  25.7500 Du        
  15571 ****        20.2500   7.2500  26.0000 Du        
  15572 ****        20.2500   7.5000  25.5000 Du        
  15573 ****        20.2500   7.5000  25.7500 Du        
  15574 ****        20.2500   7.5000  26.0000 Du        
  15575 ****        20.2500   7.5000  26.2500 Du        
  15576 ****        20.2500   7.7500  25.5000 Du        
  15577 ****        20.2500   7.7500  25.7500 Du        
  15578 ****        20.2500   7.7500  26.0000 Du        
  15579 ****        20.2500   7.7500  26.2500 Du        
  15580 ****        20.2500   8.0000  25.2500 Du        
  15581 ****        20.2500   8.0000  25.5000 Du        
  15582 ****        20.2500   8.0000  25.7500 Du        
  15583 ****        20.2500   8.0000  26.0000 Du        
  15584 ****        20.2500   8.0000  26.2500 Du        
  15585 ****        20.2500   8.2500  25.2500 Du        
  15586 ****        20.2500   8.2500  25.5000 Du        
  15587 ****        20.2500   8.2500  25.7500 Du        
  15588 ****        20.2500   8.2500  26.0000 Du        
  15589 ****        20.2500   8.2500  26.2500 Du        
  15590 ****        20.2500   8.5000  25.2500 Du        
  15591 ****        20.2500   8.5000  25.5000 Du        
  15592 ****        20.2500   8.5000  25.7500 Du        
  15593 ****        20.2500   8.5000  26.0000 Du        
  15594 ****        20.2500   8.5000  26.2500 Du        
  15595 ****        20.2500   8.7500  25.2500 Du        
  15596 ****        20.2500   8.7500  25.5000 Du        
  15597 ****        20.2500   8.7500  25.7500 Du        
  15598 ****        20.2500   8.7500  26.0000 Du        
  15599 ****        20.2500   8.7500  26.2500 Du        
  15600 ****        20.2500   9.0000  25.5000 Du        
  15601 ****        20.2500   9.0000  25.7500 Du        
  15602 ****        20.2500   9.0000  26.0000 Du        
  15603 ****        20.2500   9.0000  26.2500 Du        
  15604 ****        20.2500   9.2500  25.7500 Du        
  15605 ****        20.2500   9.2500  26.0000 Du        
  15606 ****        20.2500   9.2500  26.2500 Du        
  15607 ****        20.2500   9.5000  26.0000 Du        
  15608 ****        20.2500   9.5000  26.2500 Du        
  15609 ****        20.2500  10.0000  37.7500 Du        
  15610 ****        20.2500  10.0000  38.0000 Du        
  15611 ****        20.2500  10.0000  38.5000 Du        
  15612 ****        20.2500  10.2500  38.0000 Du        
  15613 ****        20.2500  10.2500  38.2500 Du        
  15614 ****        20.2500  10.2500  38.5000 Du        
  15615 ****        20.2500  14.0000  31.2500 Du        
  15616 ****        20.2500  14.0000  31.5000 Du        
  15617 ****        20.2500  14.0000  31.7500 Du        
  15618 ****        20.2500  14.2500  31.2500 Du        
  15619 ****        20.2500  14.2500  31.5000 Du        
  15620 ****        20.2500  14.2500  31.7500 Du        
  15621 ****        20.2500  14.2500  32.0000 Du        
  15622 ****        20.2500  14.5000  31.2500 Du        
  15623 ****        20.2500  14.5000  31.5000 Du        
  15624 ****        20.2500  14.5000  31.7500 Du        
  15625 ****        20.2500  14.5000  32.0000 Du        
  15626 ****        20.2500  14.7500  31.2500 Du        
  15627 ****        20.2500  14.7500  31.5000 Du        
  15628 ****        20.2500  14.7500  31.7500 Du        
  15629 ****        20.2500  14.7500  32.0000 Du        
  15630 ****        20.2500  15.0000  31.5000 Du        
  15631 ****        20.2500  15.0000  31.7500 Du        
  15632 ****        20.2500  15.0000  32.0000 Du        
  15633 ****        20.2500  15.2500  31.5000 Du        
  15634 ****        20.2500  15.2500  31.7500 Du        
  15635 ****        20.2500  15.2500  32.0000 Du        
  15636 ****        20.2500  15.2500  32.2500 Du        
  15637 ****        20.2500  15.5000  31.7500 Du        
  15638 ****        20.2500  15.5000  32.0000 Du        
  15639 ****        20.2500  15.5000  32.2500 Du        
  15640 ****        20.2500  17.2500  47.7500 Du        
  15641 ****        20.2500  17.5000  47.5000 Du        
  15642 ****        20.2500  17.5000  47.7500 Du        
  15643 ****        20.2500  17.7500  47.5000 Du        
  15644 ****        20.2500  17.7500  47.7500 Du        
  15645 ****        20.2500  18.0000  47.7500 Du        
  15646 ****        20.2500  19.2500  36.0000 Du        
  15647 ****        20.2500  19.5000  35.7500 Du        
  15648 ****        20.2500  19.5000  36.0000 Du        
  15649 ****        20.2500  19.5000  36.2500 Du        
  15650 ****        20.2500  19.5000  36.5000 Du        
  15651 ****        20.2500  19.7500  35.7500 Du        
  15652 ****        20.2500  19.7500  36.0000 Du        
  15653 ****        20.2500  19.7500  36.2500 Du        
  15654 ****        20.2500  20.0000  36.0000 Du        
  15655 ****        20.2500  20.5000  42.0000 Du        
  15656 ****        20.2500  20.5000  42.2500 Du        
  15657 ****        20.2500  20.5000  42.5000 Du        
  15658 ****        20.2500  20.5000  42.7500 Du        
  15659 ****        20.2500  20.7500  42.0000 Du        
  15660 ****        20.2500  20.7500  42.2500 Du        
  15661 ****        20.2500  20.7500  42.5000 Du        
  15662 ****        20.2500  20.7500  42.7500 Du        
  15663 ****        20.2500  21.0000  42.0000 Du        
  15664 ****        20.2500  21.0000  42.2500 Du        
  15665 ****        20.2500  21.0000  42.5000 Du        
  15666 ****        20.2500  21.0000  42.7500 Du        
  15667 ****        20.2500  21.2500  42.0000 Du        
  15668 ****        20.2500  21.2500  42.2500 Du        
  15669 ****        20.2500  21.2500  42.5000 Du        
  15670 ****        20.2500  21.5000  42.0000 Du        
  15671 ****        20.2500  21.5000  42.2500 Du        
  15672 ****        20.2500  21.5000  42.5000 Du        
  15673 ****        20.2500  21.7500  42.0000 Du        
  15674 ****        20.2500  21.7500  42.2500 Du        
  15675 ****        20.2500  22.0000  41.7500 Du        
  15676 ****        20.2500  22.0000  42.0000 Du        
  15677 ****        20.2500  22.0000  42.2500 Du        
  15678 ****        20.2500  22.2500  41.7500 Du        
  15679 ****        20.2500  22.2500  42.0000 Du        
  15680 ****        20.2500  22.2500  42.2500 Du        
  15681 ****        20.2500  22.5000  41.7500 Du        
  15682 ****        20.2500  22.5000  42.0000 Du        
  15683 ****        20.2500  22.5000  42.2500 Du        
  15684 ****        20.2500  22.7500  41.5000 Du        
  15685 ****        20.2500  22.7500  41.7500 Du        
  15686 ****        20.2500  22.7500  42.0000 Du        
  15687 ****        20.2500  22.7500  42.2500 Du        
  15688 ****        20.2500  23.0000  41.5000 Du        
  15689 ****        20.2500  23.0000  41.7500 Du        
  15690 ****        20.2500  23.0000  42.0000 Du        
  15691 ****        20.2500  23.0000  42.2500 Du        
  15692 ****        20.2500  23.0000  42.5000 Du        
  15693 ****        20.2500  23.2500  41.5000 Du        
  15694 ****        20.2500  23.2500  41.7500 Du        
  15695 ****        20.2500  23.2500  42.0000 Du        
  15696 ****        20.2500  23.2500  42.2500 Du        
  15697 ****        20.2500  23.2500  42.5000 Du        
  15698 ****        20.2500  23.5000  41.5000 Du        
  15699 ****        20.2500  23.5000  41.7500 Du        
  15700 ****        20.2500  23.5000  42.0000 Du        
  15701 ****        20.2500  23.5000  42.2500 Du        
  15702 ****        20.2500  23.5000  42.5000 Du        
  15703 ****        20.2500  23.7500  41.5000 Du        
  15704 ****        20.2500  23.7500  41.7500 Du        
  15705 ****        20.2500  23.7500  42.0000 Du        
  15706 ****        20.2500  23.7500  42.2500 Du        
  15707 ****        20.2500  23.7500  42.5000 Du        
  15708 ****        20.2500  23.7500  42.7500 Du        
  15709 ****        20.2500  24.0000  41.2500 Du        
  15710 ****        20.2500  24.0000  41.5000 Du        
  15711 ****        20.2500  24.0000  41.7500 Du        
  15712 ****        20.2500  24.0000  42.0000 Du        
  15713 ****        20.2500  24.0000  42.2500 Du        
  15714 ****        20.2500  24.0000  42.5000 Du        
  15715 ****        20.2500  24.0000  42.7500 Du        
  15716 ****        20.2500  24.2500  41.5000 Du        
  15717 ****        20.2500  24.2500  41.7500 Du        
  15718 ****        20.2500  24.2500  42.0000 Du        
  15719 ****        20.2500  24.2500  42.2500 Du        
  15720 ****        20.2500  24.2500  42.5000 Du        
  15721 ****        20.2500  24.5000  41.7500 Du        
  15722 ****        20.2500  24.5000  42.0000 Du        
  15723 ****        20.2500  24.5000  42.2500 Du        
  15724 ****        20.2500  24.5000  42.5000 Du        
  15725 ****        20.5000 -20.2500  35.5000 Du        
  15726 ****        20.5000 -20.0000  35.5000 Du        
  15727 ****        20.5000 -20.0000  35.7500 Du        
  15728 ****        20.5000 -19.7500  35.2500 Du        
  15729 ****        20.5000 -19.7500  35.5000 Du        
  15730 ****        20.5000 -19.7500  35.7500 Du        
  15731 ****        20.5000 -19.5000  35.0000 Du        
  15732 ****        20.5000 -19.5000  35.2500 Du        
  15733 ****        20.5000 -19.5000  35.5000 Du        
  15734 ****        20.5000 -19.5000  35.7500 Du        
  15735 ****        20.5000 -19.2500  35.0000 Du        
  15736 ****        20.5000 -19.2500  35.2500 Du        
  15737 ****        20.5000 -19.2500  35.5000 Du        
  15738 ****        20.5000 -19.2500  35.7500 Du        
  15739 ****        20.5000 -19.0000  35.0000 Du        
  15740 ****        20.5000 -19.0000  35.2500 Du        
  15741 ****        20.5000 -19.0000  35.5000 Du        
  15742 ****        20.5000 -19.0000  35.7500 Du        
  15743 ****        20.5000 -18.7500  34.7500 Du        
  15744 ****        20.5000 -18.7500  35.0000 Du        
  15745 ****        20.5000 -18.7500  35.2500 Du        
  15746 ****        20.5000 -18.7500  35.5000 Du        
  15747 ****        20.5000 -18.7500  35.7500 Du        
  15748 ****        20.5000 -18.5000  34.7500 Du        
  15749 ****        20.5000 -18.5000  35.0000 Du        
  15750 ****        20.5000 -18.5000  35.2500 Du        
  15751 ****        20.5000 -18.5000  35.5000 Du        
  15752 ****        20.5000 -18.2500  34.7500 Du        
  15753 ****        20.5000 -18.2500  35.0000 Du        
  15754 ****        20.5000 -18.2500  35.2500 Du        
  15755 ****        20.5000 -18.2500  35.5000 Du        
  15756 ****        20.5000 -18.0000  34.5000 Du        
  15757 ****        20.5000 -18.0000  34.7500 Du        
  15758 ****        20.5000 -18.0000  35.0000 Du        
  15759 ****        20.5000 -18.0000  35.2500 Du        
  15760 ****        20.5000 -18.0000  35.5000 Du        
  15761 ****        20.5000 -18.0000  42.5000 Du        
  15762 ****        20.5000 -18.0000  42.7500 Du        
  15763 ****        20.5000 -17.7500  34.5000 Du        
  15764 ****        20.5000 -17.7500  34.7500 Du        
  15765 ****        20.5000 -17.7500  35.0000 Du        
  15766 ****        20.5000 -17.7500  35.2500 Du        
  15767 ****        20.5000 -17.7500  35.5000 Du        
  15768 ****        20.5000 -17.7500  42.5000 Du        
  15769 ****        20.5000 -17.7500  42.7500 Du        
  15770 ****        20.5000 -17.5000  34.5000 Du        
  15771 ****        20.5000 -17.5000  34.7500 Du        
  15772 ****        20.5000 -17.5000  35.0000 Du        
  15773 ****        20.5000 -17.5000  35.2500 Du        
  15774 ****        20.5000 -17.5000  35.5000 Du        
  15775 ****        20.5000 -17.5000  42.2500 Du        
  15776 ****        20.5000 -17.5000  42.5000 Du        
  15777 ****        20.5000 -17.5000  42.7500 Du        
  15778 ****        20.5000 -17.2500  34.5000 Du        
  15779 ****        20.5000 -17.2500  34.7500 Du        
  15780 ****        20.5000 -17.2500  35.0000 Du        
  15781 ****        20.5000 -17.2500  35.2500 Du        
  15782 ****        20.5000 -17.2500  42.2500 Du        
  15783 ****        20.5000 -17.2500  42.5000 Du        
  15784 ****        20.5000 -17.2500  42.7500 Du        
  15785 ****        20.5000 -17.0000  34.2500 Du        
  15786 ****        20.5000 -17.0000  34.5000 Du        
  15787 ****        20.5000 -17.0000  34.7500 Du        
  15788 ****        20.5000 -17.0000  35.0000 Du        
  15789 ****        20.5000 -17.0000  35.2500 Du        
  15790 ****        20.5000 -17.0000  42.2500 Du        
  15791 ****        20.5000 -17.0000  42.5000 Du        
  15792 ****        20.5000 -17.0000  42.7500 Du        
  15793 ****        20.5000 -16.7500  34.2500 Du        
  15794 ****        20.5000 -16.7500  34.5000 Du        
  15795 ****        20.5000 -16.7500  34.7500 Du        
  15796 ****        20.5000 -16.7500  35.0000 Du        
  15797 ****        20.5000 -16.7500  35.2500 Du        
  15798 ****        20.5000 -16.7500  42.0000 Du        
  15799 ****        20.5000 -16.7500  42.2500 Du        
  15800 ****        20.5000 -16.7500  42.5000 Du        
  15801 ****        20.5000 -16.7500  42.7500 Du        
  15802 ****        20.5000 -16.5000  34.0000 Du        
  15803 ****        20.5000 -16.5000  34.2500 Du        
  15804 ****        20.5000 -16.5000  34.5000 Du        
  15805 ****        20.5000 -16.5000  34.7500 Du        
  15806 ****        20.5000 -16.5000  35.0000 Du        
  15807 ****        20.5000 -16.5000  35.2500 Du        
  15808 ****        20.5000 -16.5000  42.2500 Du        
  15809 ****        20.5000 -16.5000  42.5000 Du        
  15810 ****        20.5000 -16.5000  42.7500 Du        
  15811 ****        20.5000 -16.2500  34.0000 Du        
  15812 ****        20.5000 -16.2500  34.2500 Du        
  15813 ****        20.5000 -16.2500  34.5000 Du        
  15814 ****        20.5000 -16.2500  34.7500 Du        
  15815 ****        20.5000 -16.2500  35.0000 Du        
  15816 ****        20.5000 -16.2500  35.2500 Du        
  15817 ****        20.5000 -16.2500  35.5000 Du        
  15818 ****        20.5000 -16.0000  34.0000 Du        
  15819 ****        20.5000 -16.0000  34.2500 Du        
  15820 ****        20.5000 -16.0000  34.5000 Du        
  15821 ****        20.5000 -16.0000  34.7500 Du        
  15822 ****        20.5000 -16.0000  35.0000 Du        
  15823 ****        20.5000 -16.0000  35.2500 Du        
  15824 ****        20.5000 -16.0000  35.5000 Du        
  15825 ****        20.5000 -15.7500  34.2500 Du        
  15826 ****        20.5000 -15.7500  34.5000 Du        
  15827 ****        20.5000 -15.7500  34.7500 Du        
  15828 ****        20.5000 -15.7500  35.0000 Du        
  15829 ****        20.5000 -15.7500  35.2500 Du        
  15830 ****        20.5000 -15.7500  35.5000 Du        
  15831 ****        20.5000 -15.5000  34.5000 Du        
  15832 ****        20.5000 -15.5000  34.7500 Du        
  15833 ****        20.5000 -15.5000  35.0000 Du        
  15834 ****        20.5000 -15.5000  35.2500 Du        
  15835 ****        20.5000 -15.5000  35.5000 Du        
  15836 ****        20.5000 -15.2500  35.2500 Du        
  15837 ****        20.5000 -15.2500  35.5000 Du        
  15838 ****        20.5000  -6.2500  31.0000 Du        
  15839 ****        20.5000  -6.2500  31.2500 Du        
  15840 ****        20.5000  -6.2500  31.5000 Du        
  15841 ****        20.5000  -6.0000  31.0000 Du        
  15842 ****        20.5000  -6.0000  31.2500 Du        
  15843 ****        20.5000  -6.0000  31.5000 Du        
  15844 ****        20.5000  -6.0000  31.7500 Du        
  15845 ****        20.5000  -5.7500  31.2500 Du        
  15846 ****        20.5000  -5.7500  31.5000 Du        
  15847 ****        20.5000  -5.7500  31.7500 Du        
  15848 ****        20.5000  -5.7500  32.0000 Du        
  15849 ****        20.5000  -5.5000  31.5000 Du        
  15850 ****        20.5000  -5.5000  31.7500 Du        
  15851 ****        20.5000  -5.5000  32.0000 Du        
  15852 ****        20.5000  -5.2500  31.5000 Du        
  15853 ****        20.5000  -5.2500  31.7500 Du        
  15854 ****        20.5000  -5.2500  32.0000 Du        
  15855 ****        20.5000  -5.0000  31.5000 Du        
  15856 ****        20.5000  -5.0000  31.7500 Du        
  15857 ****        20.5000  -5.0000  32.0000 Du        
  15858 ****        20.5000  -4.7500  31.5000 Du        
  15859 ****        20.5000  -4.7500  31.7500 Du        
  15860 ****        20.5000  -4.7500  32.0000 Du        
  15861 ****        20.5000  -3.2500  32.5000 Du        
  15862 ****        20.5000  -3.0000  32.5000 Du        
  15863 ****        20.5000  -1.2500  36.2500 Du        
  15864 ****        20.5000  -1.2500  36.5000 Du        
  15865 ****        20.5000  -1.0000  35.7500 Du        
  15866 ****        20.5000  -1.0000  36.0000 Du        
  15867 ****        20.5000  -1.0000  36.2500 Du        
  15868 ****        20.5000  -1.0000  36.5000 Du        
  15869 ****        20.5000  -1.0000  36.7500 Du        
  15870 ****        20.5000  -0.7500  35.5000 Du        
  15871 ****        20.5000  -0.7500  35.7500 Du        
  15872 ****        20.5000  -0.7500  36.0000 Du        
  15873 ****        20.5000  -0.7500  36.2500 Du        
  15874 ****        20.5000  -0.7500  36.5000 Du        
  15875 ****        20.5000  -0.7500  36.7500 Du        
  15876 ****        20.5000  -0.5000  35.7500 Du        
  15877 ****        20.5000  -0.5000  36.0000 Du        
  15878 ****        20.5000  -0.5000  36.2500 Du        
  15879 ****        20.5000  -0.5000  36.5000 Du        
  15880 ****        20.5000  -0.5000  36.7500 Du        
  15881 ****        20.5000  -0.2500  35.7500 Du        
  15882 ****        20.5000  -0.2500  36.0000 Du        
  15883 ****        20.5000  -0.2500  36.2500 Du        
  15884 ****        20.5000  -0.2500  36.5000 Du        
  15885 ****        20.5000  -0.2500  36.7500 Du        
  15886 ****        20.5000   0.0000  36.0000 Du        
  15887 ****        20.5000   0.0000  36.2500 Du        
  15888 ****        20.5000   0.0000  36.5000 Du        
  15889 ****        20.5000   0.0000  36.7500 Du        
  15890 ****        20.5000   0.2500  36.2500 Du        
  15891 ****        20.5000   0.2500  36.5000 Du        
  15892 ****        20.5000   0.2500  36.7500 Du        
  15893 ****        20.5000   0.5000  36.5000 Du        
  15894 ****        20.5000   0.5000  36.7500 Du        
  15895 ****        20.5000   0.7500  36.5000 Du        
  15896 ****        20.5000   0.7500  36.7500 Du        
  15897 ****        20.5000   7.2500  25.5000 Du        
  15898 ****        20.5000   7.2500  25.7500 Du        
  15899 ****        20.5000   7.5000  25.2500 Du        
  15900 ****        20.5000   7.5000  25.7500 Du        
  15901 ****        20.5000   7.7500  25.2500 Du        
  15902 ****        20.5000   7.7500  25.5000 Du        
  15903 ****        20.5000   7.7500  25.7500 Du        
  15904 ****        20.5000   7.7500  26.0000 Du        
  15905 ****        20.5000   7.7500  26.2500 Du        
  15906 ****        20.5000   8.0000  25.5000 Du        
  15907 ****        20.5000   8.0000  25.7500 Du        
  15908 ****        20.5000   8.0000  26.0000 Du        
  15909 ****        20.5000   8.0000  26.2500 Du        
  15910 ****        20.5000   8.2500  25.5000 Du        
  15911 ****        20.5000   8.2500  25.7500 Du        
  15912 ****        20.5000   8.2500  26.0000 Du        
  15913 ****        20.5000   8.5000  25.7500 Du        
  15914 ****        20.5000   8.5000  26.0000 Du        
  15915 ****        20.5000   8.5000  26.2500 Du        
  15916 ****        20.5000   8.7500  26.0000 Du        
  15917 ****        20.5000   8.7500  26.2500 Du        
  15918 ****        20.5000   9.5000  37.7500 Du        
  15919 ****        20.5000   9.5000  38.0000 Du        
  15920 ****        20.5000   9.7500  37.5000 Du        
  15921 ****        20.5000   9.7500  37.7500 Du        
  15922 ****        20.5000   9.7500  38.0000 Du        
  15923 ****        20.5000   9.7500  38.2500 Du        
  15924 ****        20.5000   9.7500  38.5000 Du        
  15925 ****        20.5000   9.7500  38.7500 Du        
  15926 ****        20.5000  10.0000  37.7500 Du        
  15927 ****        20.5000  10.0000  38.0000 Du        
  15928 ****        20.5000  10.0000  38.2500 Du        
  15929 ****        20.5000  10.0000  38.5000 Du        
  15930 ****        20.5000  10.0000  38.7500 Du        
  15931 ****        20.5000  10.2500  38.2500 Du        
  15932 ****        20.5000  10.2500  38.5000 Du        
  15933 ****        20.5000  10.2500  38.7500 Du        
  15934 ****        20.5000  13.7500  31.0000 Du        
  15935 ****        20.5000  13.7500  31.2500 Du        
  15936 ****        20.5000  14.0000  31.0000 Du        
  15937 ****        20.5000  14.0000  31.2500 Du        
  15938 ****        20.5000  14.2500  31.0000 Du        
  15939 ****        20.5000  14.2500  31.2500 Du        
  15940 ****        20.5000  14.5000  31.0000 Du        
  15941 ****        20.5000  14.5000  31.2500 Du        
  15942 ****        20.5000  14.5000  31.5000 Du        
  15943 ****        20.5000  14.5000  31.7500 Du        
  15944 ****        20.5000  14.7500  31.0000 Du        
  15945 ****        20.5000  14.7500  31.2500 Du        
  15946 ****        20.5000  14.7500  31.5000 Du        
  15947 ****        20.5000  14.7500  31.7500 Du        
  15948 ****        20.5000  14.7500  32.0000 Du        
  15949 ****        20.5000  15.0000  31.0000 Du        
  15950 ****        20.5000  15.0000  31.2500 Du        
  15951 ****        20.5000  15.0000  31.5000 Du        
  15952 ****        20.5000  15.0000  31.7500 Du        
  15953 ****        20.5000  15.0000  32.0000 Du        
  15954 ****        20.5000  15.2500  31.2500 Du        
  15955 ****        20.5000  15.2500  31.5000 Du        
  15956 ****        20.5000  15.2500  31.7500 Du        
  15957 ****        20.5000  15.2500  32.0000 Du        
  15958 ****        20.5000  15.5000  31.7500 Du        
  15959 ****        20.5000  15.5000  32.0000 Du        
  15960 ****        20.5000  17.7500  47.7500 Du        
  15961 ****        20.5000  18.7500  35.7500 Du        
  15962 ****        20.5000  19.0000  35.2500 Du        
  15963 ****        20.5000  19.0000  35.5000 Du        
  15964 ****        20.5000  19.0000  35.7500 Du        
  15965 ****        20.5000  19.0000  36.0000 Du        
  15966 ****        20.5000  19.2500  35.5000 Du        
  15967 ****        20.5000  19.2500  35.7500 Du        
  15968 ****        20.5000  19.2500  36.0000 Du        
  15969 ****        20.5000  19.2500  36.2500 Du        
  15970 ****        20.5000  19.2500  36.5000 Du        
  15971 ****        20.5000  19.5000  35.5000 Du        
  15972 ****        20.5000  19.5000  35.7500 Du        
  15973 ****        20.5000  19.5000  36.0000 Du        
  15974 ****        20.5000  19.5000  36.2500 Du        
  15975 ****        20.5000  19.5000  36.5000 Du        
  15976 ****        20.5000  19.7500  35.7500 Du        
  15977 ****        20.5000  19.7500  36.0000 Du        
  15978 ****        20.5000  19.7500  36.2500 Du        
  15979 ****        20.5000  20.0000  35.7500 Du        
  15980 ****        20.5000  20.0000  36.0000 Du        
  15981 ****        20.5000  20.5000  42.0000 Du        
  15982 ****        20.5000  20.5000  42.2500 Du        
  15983 ****        20.5000  20.5000  42.5000 Du        
  15984 ****        20.5000  20.5000  42.7500 Du        
  15985 ****        20.5000  20.7500  42.0000 Du        
  15986 ****        20.5000  20.7500  42.2500 Du        
  15987 ****        20.5000  20.7500  42.5000 Du        
  15988 ****        20.5000  20.7500  42.7500 Du        
  15989 ****        20.5000  21.0000  42.0000 Du        
  15990 ****        20.5000  21.0000  42.2500 Du        
  15991 ****        20.5000  21.0000  42.5000 Du        
  15992 ****        20.5000  21.0000  42.7500 Du        
  15993 ****        20.5000  21.2500  42.0000 Du        
  15994 ****        20.5000  21.2500  42.2500 Du        
  15995 ****        20.5000  21.2500  42.5000 Du        
  15996 ****        20.5000  21.5000  42.0000 Du        
  15997 ****        20.5000  21.5000  42.2500 Du        
  15998 ****        20.5000  21.5000  42.5000 Du        
  15999 ****        20.5000  21.7500  42.0000 Du        
  16000 ****        20.5000  21.7500  42.2500 Du        
  16001 ****        20.5000  21.7500  42.5000 Du        
  16002 ****        20.5000  22.0000  42.0000 Du        
  16003 ****        20.5000  22.0000  42.2500 Du        
  16004 ****        20.5000  22.2500  42.0000 Du        
  16005 ****        20.5000  22.2500  42.2500 Du        
  16006 ****        20.5000  22.5000  41.7500 Du        
  16007 ****        20.5000  22.5000  42.0000 Du        
  16008 ****        20.5000  22.5000  42.2500 Du        
  16009 ****        20.5000  22.7500  41.7500 Du        
  16010 ****        20.5000  22.7500  42.0000 Du        
  16011 ****        20.5000  22.7500  42.2500 Du        
  16012 ****        20.5000  23.0000  41.5000 Du        
  16013 ****        20.5000  23.0000  41.7500 Du        
  16014 ****        20.5000  23.0000  42.0000 Du        
  16015 ****        20.5000  23.0000  42.2500 Du        
  16016 ****        20.5000  23.2500  41.5000 Du        
  16017 ****        20.5000  23.2500  41.7500 Du        
  16018 ****        20.5000  23.2500  42.0000 Du        
  16019 ****        20.5000  23.2500  42.2500 Du        
  16020 ****        20.5000  23.2500  42.5000 Du        
  16021 ****        20.5000  23.5000  41.5000 Du        
  16022 ****        20.5000  23.5000  41.7500 Du        
  16023 ****        20.5000  23.5000  42.0000 Du        
  16024 ****        20.5000  23.5000  42.2500 Du        
  16025 ****        20.5000  23.5000  42.5000 Du        
  16026 ****        20.5000  23.7500  41.5000 Du        
  16027 ****        20.5000  23.7500  41.7500 Du        
  16028 ****        20.5000  23.7500  42.0000 Du        
  16029 ****        20.5000  23.7500  42.2500 Du        
  16030 ****        20.5000  23.7500  42.5000 Du        
  16031 ****        20.5000  23.7500  42.7500 Du        
  16032 ****        20.5000  24.0000  41.5000 Du        
  16033 ****        20.5000  24.0000  41.7500 Du        
  16034 ****        20.5000  24.0000  42.0000 Du        
  16035 ****        20.5000  24.0000  42.2500 Du        
  16036 ****        20.5000  24.0000  42.5000 Du        
  16037 ****        20.5000  24.0000  42.7500 Du        
  16038 ****        20.5000  24.2500  41.5000 Du        
  16039 ****        20.5000  24.2500  41.7500 Du        
  16040 ****        20.5000  24.2500  42.0000 Du        
  16041 ****        20.5000  24.2500  42.2500 Du        
  16042 ****        20.5000  24.2500  42.5000 Du        
  16043 ****        20.5000  24.5000  41.5000 Du        
  16044 ****        20.5000  24.5000  41.7500 Du        
  16045 ****        20.5000  24.5000  42.0000 Du        
  16046 ****        20.5000  24.5000  42.2500 Du        
  16047 ****        20.5000  24.5000  42.5000 Du        
  16048 ****        20.5000  24.7500  41.5000 Du        
  16049 ****        20.5000  25.0000  41.5000 Du        
  16050 ****        20.7500 -20.2500  35.5000 Du        
  16051 ****        20.7500 -20.2500  35.7500 Du        
  16052 ****        20.7500 -20.0000  35.5000 Du        
  16053 ****        20.7500 -20.0000  35.7500 Du        
  16054 ****        20.7500 -19.7500  35.2500 Du        
  16055 ****        20.7500 -19.7500  35.5000 Du        
  16056 ****        20.7500 -19.7500  35.7500 Du        
  16057 ****        20.7500 -19.5000  35.0000 Du        
  16058 ****        20.7500 -19.5000  35.2500 Du        
  16059 ****        20.7500 -19.5000  35.5000 Du        
  16060 ****        20.7500 -19.5000  35.7500 Du        
  16061 ****        20.7500 -19.2500  35.0000 Du        
  16062 ****        20.7500 -19.2500  35.2500 Du        
  16063 ****        20.7500 -19.2500  35.5000 Du        
  16064 ****        20.7500 -19.2500  35.7500 Du        
  16065 ****        20.7500 -19.0000  35.0000 Du        
  16066 ****        20.7500 -19.0000  35.2500 Du        
  16067 ****        20.7500 -19.0000  35.5000 Du        
  16068 ****        20.7500 -19.0000  35.7500 Du        
  16069 ****        20.7500 -18.7500  34.7500 Du        
  16070 ****        20.7500 -18.7500  35.0000 Du        
  16071 ****        20.7500 -18.7500  35.2500 Du        
  16072 ****        20.7500 -18.7500  35.5000 Du        
  16073 ****        20.7500 -18.7500  35.7500 Du        
  16074 ****        20.7500 -18.5000  34.7500 Du        
  16075 ****        20.7500 -18.5000  35.0000 Du        
  16076 ****        20.7500 -18.5000  35.2500 Du        
  16077 ****        20.7500 -18.5000  35.5000 Du        
  16078 ****        20.7500 -18.2500  34.7500 Du        
  16079 ****        20.7500 -18.2500  35.0000 Du        
  16080 ****        20.7500 -18.2500  35.2500 Du        
  16081 ****        20.7500 -18.2500  35.5000 Du        
  16082 ****        20.7500 -18.2500  42.5000 Du        
  16083 ****        20.7500 -18.2500  42.7500 Du        
  16084 ****        20.7500 -18.0000  34.7500 Du        
  16085 ****        20.7500 -18.0000  35.0000 Du        
  16086 ****        20.7500 -18.0000  35.2500 Du        
  16087 ****        20.7500 -18.0000  35.5000 Du        
  16088 ****        20.7500 -18.0000  42.5000 Du        
  16089 ****        20.7500 -18.0000  42.7500 Du        
  16090 ****        20.7500 -17.7500  34.5000 Du        
  16091 ****        20.7500 -17.7500  34.7500 Du        
  16092 ****        20.7500 -17.7500  35.0000 Du        
  16093 ****        20.7500 -17.7500  35.2500 Du        
  16094 ****        20.7500 -17.7500  35.5000 Du        
  16095 ****        20.7500 -17.7500  42.2500 Du        
  16096 ****        20.7500 -17.7500  42.5000 Du        
  16097 ****        20.7500 -17.7500  42.7500 Du        
  16098 ****        20.7500 -17.5000  34.5000 Du        
  16099 ****        20.7500 -17.5000  34.7500 Du        
  16100 ****        20.7500 -17.5000  35.0000 Du        
  16101 ****        20.7500 -17.5000  35.2500 Du        
  16102 ****        20.7500 -17.5000  35.5000 Du        
  16103 ****        20.7500 -17.5000  42.2500 Du        
  16104 ****        20.7500 -17.5000  42.5000 Du        
  16105 ****        20.7500 -17.5000  42.7500 Du        
  16106 ****        20.7500 -17.2500  34.5000 Du        
  16107 ****        20.7500 -17.2500  34.7500 Du        
  16108 ****        20.7500 -17.2500  35.0000 Du        
  16109 ****        20.7500 -17.2500  35.2500 Du        
  16110 ****        20.7500 -17.2500  35.5000 Du        
  16111 ****        20.7500 -17.2500  42.2500 Du        
  16112 ****        20.7500 -17.2500  42.5000 Du        
  16113 ****        20.7500 -17.2500  42.7500 Du        
  16114 ****        20.7500 -17.0000  34.2500 Du        
  16115 ****        20.7500 -17.0000  34.5000 Du        
  16116 ****        20.7500 -17.0000  34.7500 Du        
  16117 ****        20.7500 -17.0000  35.0000 Du        
  16118 ****        20.7500 -17.0000  35.2500 Du        
  16119 ****        20.7500 -17.0000  35.5000 Du        
  16120 ****        20.7500 -17.0000  42.0000 Du        
  16121 ****        20.7500 -17.0000  42.2500 Du        
  16122 ****        20.7500 -17.0000  42.5000 Du        
  16123 ****        20.7500 -17.0000  42.7500 Du        
  16124 ****        20.7500 -16.7500  34.2500 Du        
  16125 ****        20.7500 -16.7500  34.5000 Du        
  16126 ****        20.7500 -16.7500  34.7500 Du        
  16127 ****        20.7500 -16.7500  35.0000 Du        
  16128 ****        20.7500 -16.7500  35.2500 Du        
  16129 ****        20.7500 -16.7500  35.5000 Du        
  16130 ****        20.7500 -16.7500  42.0000 Du        
  16131 ****        20.7500 -16.7500  42.2500 Du        
  16132 ****        20.7500 -16.7500  42.5000 Du        
  16133 ****        20.7500 -16.7500  42.7500 Du        
  16134 ****        20.7500 -16.5000  34.0000 Du        
  16135 ****        20.7500 -16.5000  34.2500 Du        
  16136 ****        20.7500 -16.5000  34.5000 Du        
  16137 ****        20.7500 -16.5000  34.7500 Du        
  16138 ****        20.7500 -16.5000  35.0000 Du        
  16139 ****        20.7500 -16.5000  35.2500 Du        
  16140 ****        20.7500 -16.5000  35.5000 Du        
  16141 ****        20.7500 -16.5000  42.0000 Du        
  16142 ****        20.7500 -16.5000  42.2500 Du        
  16143 ****        20.7500 -16.5000  42.5000 Du        
  16144 ****        20.7500 -16.5000  42.7500 Du        
  16145 ****        20.7500 -16.2500  34.0000 Du        
  16146 ****        20.7500 -16.2500  34.2500 Du        
  16147 ****        20.7500 -16.2500  34.5000 Du        
  16148 ****        20.7500 -16.2500  34.7500 Du        
  16149 ****        20.7500 -16.2500  35.0000 Du        
  16150 ****        20.7500 -16.2500  35.2500 Du        
  16151 ****        20.7500 -16.2500  35.5000 Du        
  16152 ****        20.7500 -16.2500  42.0000 Du        
  16153 ****        20.7500 -16.2500  42.2500 Du        
  16154 ****        20.7500 -16.2500  42.5000 Du        
  16155 ****        20.7500 -16.0000  34.0000 Du        
  16156 ****        20.7500 -16.0000  34.2500 Du        
  16157 ****        20.7500 -16.0000  34.5000 Du        
  16158 ****        20.7500 -16.0000  34.7500 Du        
  16159 ****        20.7500 -16.0000  35.0000 Du        
  16160 ****        20.7500 -16.0000  35.2500 Du        
  16161 ****        20.7500 -16.0000  35.5000 Du        
  16162 ****        20.7500 -15.7500  34.0000 Du        
  16163 ****        20.7500 -15.7500  34.2500 Du        
  16164 ****        20.7500 -15.7500  34.5000 Du        
  16165 ****        20.7500 -15.7500  34.7500 Du        
  16166 ****        20.7500 -15.7500  35.0000 Du        
  16167 ****        20.7500 -15.7500  35.2500 Du        
  16168 ****        20.7500 -15.7500  35.5000 Du        
  16169 ****        20.7500 -15.5000  34.2500 Du        
  16170 ****        20.7500 -15.5000  34.5000 Du        
  16171 ****        20.7500 -15.5000  34.7500 Du        
  16172 ****        20.7500 -15.5000  35.0000 Du        
  16173 ****        20.7500 -15.5000  35.2500 Du        
  16174 ****        20.7500 -15.5000  35.5000 Du        
  16175 ****        20.7500 -15.2500  34.7500 Du        
  16176 ****        20.7500 -15.2500  35.0000 Du        
  16177 ****        20.7500 -15.2500  35.2500 Du        
  16178 ****        20.7500 -15.2500  35.5000 Du        
  16179 ****        20.7500  -6.2500  31.2500 Du        
  16180 ****        20.7500  -6.2500  31.5000 Du        
  16181 ****        20.7500  -6.0000  31.0000 Du        
  16182 ****        20.7500  -6.0000  31.2500 Du        
  16183 ****        20.7500  -6.0000  31.5000 Du        
  16184 ****        20.7500  -6.0000  31.7500 Du        
  16185 ****        20.7500  -6.0000  32.0000 Du        
  16186 ****        20.7500  -5.7500  31.2500 Du        
  16187 ****        20.7500  -5.7500  31.5000 Du        
  16188 ****        20.7500  -5.7500  31.7500 Du        
  16189 ****        20.7500  -5.7500  32.0000 Du        
  16190 ****        20.7500  -5.5000  31.5000 Du        
  16191 ****        20.7500  -5.5000  31.7500 Du        
  16192 ****        20.7500  -5.5000  32.0000 Du        
  16193 ****        20.7500  -5.2500  31.5000 Du        
  16194 ****        20.7500  -5.2500  31.7500 Du        
  16195 ****        20.7500  -5.2500  32.0000 Du        
  16196 ****        20.7500  -5.0000  31.5000 Du        
  16197 ****        20.7500  -5.0000  31.7500 Du        
  16198 ****        20.7500  -5.0000  32.0000 Du        
  16199 ****        20.7500  -5.0000  32.2500 Du        
  16200 ****        20.7500  -4.7500  31.5000 Du        
  16201 ****        20.7500  -4.7500  31.7500 Du        
  16202 ****        20.7500  -4.7500  32.0000 Du        
  16203 ****        20.7500  -4.7500  32.2500 Du        
  16204 ****        20.7500  -4.2500  32.0000 Du        
  16205 ****        20.7500  -4.0000  32.2500 Du        
  16206 ****        20.7500  -4.0000  32.5000 Du        
  16207 ****        20.7500  -3.7500  32.2500 Du        
  16208 ****        20.7500  -3.7500  32.5000 Du        
  16209 ****        20.7500  -3.5000  32.5000 Du        
  16210 ****        20.7500  -3.2500  32.5000 Du        
  16211 ****        20.7500  -3.2500  32.7500 Du        
  16212 ****        20.7500  -3.0000  32.5000 Du        
  16213 ****        20.7500  -3.0000  32.7500 Du        
  16214 ****        20.7500  -2.7500  32.7500 Du        
  16215 ****        20.7500  -2.7500  33.0000 Du        
  16216 ****        20.7500  -1.2500  35.2500 Du        
  16217 ****        20.7500  -1.2500  35.5000 Du        
  16218 ****        20.7500  -1.2500  35.7500 Du        
  16219 ****        20.7500  -1.2500  36.0000 Du        
  16220 ****        20.7500  -1.2500  36.2500 Du        
  16221 ****        20.7500  -1.2500  36.5000 Du        
  16222 ****        20.7500  -1.2500  36.7500 Du        
  16223 ****        20.7500  -1.0000  35.0000 Du        
  16224 ****        20.7500  -1.0000  35.2500 Du        
  16225 ****        20.7500  -1.0000  35.5000 Du        
  16226 ****        20.7500  -1.0000  35.7500 Du        
  16227 ****        20.7500  -1.0000  36.0000 Du        
  16228 ****        20.7500  -1.0000  36.2500 Du        
  16229 ****        20.7500  -1.0000  36.5000 Du        
  16230 ****        20.7500  -1.0000  36.7500 Du        
  16231 ****        20.7500  -0.7500  35.0000 Du        
  16232 ****        20.7500  -0.7500  35.2500 Du        
  16233 ****        20.7500  -0.7500  35.5000 Du        
  16234 ****        20.7500  -0.7500  35.7500 Du        
  16235 ****        20.7500  -0.7500  36.0000 Du        
  16236 ****        20.7500  -0.7500  36.2500 Du        
  16237 ****        20.7500  -0.7500  36.5000 Du        
  16238 ****        20.7500  -0.7500  36.7500 Du        
  16239 ****        20.7500  -0.5000  35.2500 Du        
  16240 ****        20.7500  -0.5000  35.5000 Du        
  16241 ****        20.7500  -0.5000  35.7500 Du        
  16242 ****        20.7500  -0.5000  36.0000 Du        
  16243 ****        20.7500  -0.5000  36.2500 Du        
  16244 ****        20.7500  -0.5000  36.5000 Du        
  16245 ****        20.7500  -0.5000  36.7500 Du        
  16246 ****        20.7500  -0.2500  35.5000 Du        
  16247 ****        20.7500  -0.2500  35.7500 Du        
  16248 ****        20.7500  -0.2500  36.0000 Du        
  16249 ****        20.7500  -0.2500  36.2500 Du        
  16250 ****        20.7500  -0.2500  36.5000 Du        
  16251 ****        20.7500  -0.2500  36.7500 Du        
  16252 ****        20.7500  -0.2500  37.0000 Du        
  16253 ****        20.7500   0.0000  35.5000 Du        
  16254 ****        20.7500   0.0000  35.7500 Du        
  16255 ****        20.7500   0.0000  36.0000 Du        
  16256 ****        20.7500   0.0000  36.2500 Du        
  16257 ****        20.7500   0.0000  36.5000 Du        
  16258 ****        20.7500   0.0000  36.7500 Du        
  16259 ****        20.7500   0.0000  37.0000 Du        
  16260 ****        20.7500   0.2500  35.7500 Du        
  16261 ****        20.7500   0.2500  36.0000 Du        
  16262 ****        20.7500   0.2500  36.2500 Du        
  16263 ****        20.7500   0.2500  36.5000 Du        
  16264 ****        20.7500   0.2500  36.7500 Du        
  16265 ****        20.7500   0.2500  37.0000 Du        
  16266 ****        20.7500   0.5000  35.7500 Du        
  16267 ****        20.7500   0.5000  36.0000 Du        
  16268 ****        20.7500   0.5000  36.2500 Du        
  16269 ****        20.7500   0.5000  36.5000 Du        
  16270 ****        20.7500   0.5000  36.7500 Du        
  16271 ****        20.7500   0.5000  37.0000 Du        
  16272 ****        20.7500   0.7500  36.0000 Du        
  16273 ****        20.7500   0.7500  36.2500 Du        
  16274 ****        20.7500   0.7500  36.5000 Du        
  16275 ****        20.7500   0.7500  36.7500 Du        
  16276 ****        20.7500   0.7500  37.0000 Du        
  16277 ****        20.7500   1.0000  36.2500 Du        
  16278 ****        20.7500   1.0000  36.5000 Du        
  16279 ****        20.7500   7.0000  25.5000 Du        
  16280 ****        20.7500   7.0000  25.7500 Du        
  16281 ****        20.7500   7.2500  25.2500 Du        
  16282 ****        20.7500   7.2500  25.5000 Du        
  16283 ****        20.7500   7.2500  25.7500 Du        
  16284 ****        20.7500   7.5000  25.2500 Du        
  16285 ****        20.7500   7.5000  25.5000 Du        
  16286 ****        20.7500   7.5000  25.7500 Du        
  16287 ****        20.7500   7.5000  26.0000 Du        
  16288 ****        20.7500   7.7500  25.2500 Du        
  16289 ****        20.7500   7.7500  25.7500 Du        
  16290 ****        20.7500   7.7500  26.0000 Du        
  16291 ****        20.7500   9.0000  37.2500 Du        
  16292 ****        20.7500   9.0000  37.5000 Du        
  16293 ****        20.7500   9.0000  37.7500 Du        
  16294 ****        20.7500   9.0000  38.0000 Du        
  16295 ****        20.7500   9.2500  37.2500 Du        
  16296 ****        20.7500   9.2500  37.5000 Du        
  16297 ****        20.7500   9.2500  37.7500 Du        
  16298 ****        20.7500   9.2500  38.0000 Du        
  16299 ****        20.7500   9.2500  38.2500 Du        
  16300 ****        20.7500   9.2500  38.5000 Du        
  16301 ****        20.7500   9.2500  38.7500 Du        
  16302 ****        20.7500   9.5000  37.7500 Du        
  16303 ****        20.7500   9.5000  38.0000 Du        
  16304 ****        20.7500   9.5000  38.2500 Du        
  16305 ****        20.7500   9.5000  38.5000 Du        
  16306 ****        20.7500   9.5000  38.7500 Du        
  16307 ****        20.7500   9.5000  39.0000 Du        
  16308 ****        20.7500   9.7500  37.7500 Du        
  16309 ****        20.7500   9.7500  38.0000 Du        
  16310 ****        20.7500   9.7500  38.2500 Du        
  16311 ****        20.7500   9.7500  38.5000 Du        
  16312 ****        20.7500   9.7500  38.7500 Du        
  16313 ****        20.7500   9.7500  39.0000 Du        
  16314 ****        20.7500  10.0000  37.7500 Du        
  16315 ****        20.7500  10.0000  38.0000 Du        
  16316 ****        20.7500  10.0000  38.2500 Du        
  16317 ****        20.7500  10.0000  38.5000 Du        
  16318 ****        20.7500  10.0000  38.7500 Du        
  16319 ****        20.7500  10.2500  38.2500 Du        
  16320 ****        20.7500  10.2500  38.5000 Du        
  16321 ****        20.7500  10.2500  38.7500 Du        
  16322 ****        20.7500  13.5000  30.7500 Du        
  16323 ****        20.7500  13.5000  31.0000 Du        
  16324 ****        20.7500  13.5000  31.2500 Du        
  16325 ****        20.7500  13.7500  30.5000 Du        
  16326 ****        20.7500  13.7500  30.7500 Du        
  16327 ****        20.7500  13.7500  31.0000 Du        
  16328 ****        20.7500  13.7500  31.2500 Du        
  16329 ****        20.7500  14.0000  30.5000 Du        
  16330 ****        20.7500  14.0000  30.7500 Du        
  16331 ****        20.7500  14.0000  31.0000 Du        
  16332 ****        20.7500  14.0000  31.2500 Du        
  16333 ****        20.7500  14.0000  31.5000 Du        
  16334 ****        20.7500  14.2500  30.7500 Du        
  16335 ****        20.7500  14.2500  31.0000 Du        
  16336 ****        20.7500  14.2500  31.2500 Du        
  16337 ****        20.7500  14.2500  31.5000 Du        
  16338 ****        20.7500  14.5000  30.7500 Du        
  16339 ****        20.7500  14.5000  31.0000 Du        
  16340 ****        20.7500  14.5000  31.2500 Du        
  16341 ****        20.7500  14.5000  31.5000 Du        
  16342 ****        20.7500  14.5000  31.7500 Du        
  16343 ****        20.7500  14.7500  30.7500 Du        
  16344 ****        20.7500  14.7500  31.0000 Du        
  16345 ****        20.7500  14.7500  31.2500 Du        
  16346 ****        20.7500  14.7500  31.5000 Du        
  16347 ****        20.7500  14.7500  31.7500 Du        
  16348 ****        20.7500  14.7500  32.0000 Du        
  16349 ****        20.7500  15.0000  30.7500 Du        
  16350 ****        20.7500  15.0000  31.0000 Du        
  16351 ****        20.7500  15.0000  31.2500 Du        
  16352 ****        20.7500  15.0000  31.5000 Du        
  16353 ****        20.7500  15.0000  31.7500 Du        
  16354 ****        20.7500  15.0000  32.0000 Du        
  16355 ****        20.7500  15.2500  31.0000 Du        
  16356 ****        20.7500  15.2500  31.2500 Du        
  16357 ****        20.7500  15.2500  31.5000 Du        
  16358 ****        20.7500  15.2500  31.7500 Du        
  16359 ****        20.7500  15.2500  32.0000 Du        
  16360 ****        20.7500  15.5000  31.2500 Du        
  16361 ****        20.7500  15.5000  31.5000 Du        
  16362 ****        20.7500  15.5000  31.7500 Du        
  16363 ****        20.7500  15.5000  32.0000 Du        
  16364 ****        20.7500  15.5000  32.2500 Du        
  16365 ****        20.7500  15.7500  31.7500 Du        
  16366 ****        20.7500  15.7500  32.0000 Du        
  16367 ****        20.7500  15.7500  32.2500 Du        
  16368 ****        20.7500  18.5000  35.2500 Du        
  16369 ****        20.7500  18.7500  35.0000 Du        
  16370 ****        20.7500  18.7500  35.2500 Du        
  16371 ****        20.7500  18.7500  35.5000 Du        
  16372 ****        20.7500  18.7500  35.7500 Du        
  16373 ****        20.7500  19.0000  35.0000 Du        
  16374 ****        20.7500  19.0000  35.2500 Du        
  16375 ****        20.7500  19.0000  35.5000 Du        
  16376 ****        20.7500  19.0000  35.7500 Du        
  16377 ****        20.7500  19.0000  36.0000 Du        
  16378 ****        20.7500  19.0000  36.2500 Du        
  16379 ****        20.7500  19.2500  35.2500 Du        
  16380 ****        20.7500  19.2500  35.5000 Du        
  16381 ****        20.7500  19.2500  35.7500 Du        
  16382 ****        20.7500  19.2500  36.0000 Du        
  16383 ****        20.7500  19.2500  36.2500 Du        
  16384 ****        20.7500  19.5000  35.2500 Du        
  16385 ****        20.7500  19.5000  35.5000 Du        
  16386 ****        20.7500  19.5000  35.7500 Du        
  16387 ****        20.7500  19.5000  36.0000 Du        
  16388 ****        20.7500  19.5000  36.2500 Du        
  16389 ****        20.7500  19.7500  35.5000 Du        
  16390 ****        20.7500  19.7500  35.7500 Du        
  16391 ****        20.7500  19.7500  36.0000 Du        
  16392 ****        20.7500  19.7500  36.2500 Du        
  16393 ****        20.7500  20.0000  35.5000 Du        
  16394 ****        20.7500  20.0000  35.7500 Du        
  16395 ****        20.7500  20.0000  36.0000 Du        
  16396 ****        20.7500  20.5000  42.2500 Du        
  16397 ****        20.7500  20.5000  42.5000 Du        
  16398 ****        20.7500  20.5000  42.7500 Du        
  16399 ****        20.7500  20.7500  42.2500 Du        
  16400 ****        20.7500  20.7500  42.5000 Du        
  16401 ****        20.7500  20.7500  42.7500 Du        
  16402 ****        20.7500  21.0000  42.2500 Du        
  16403 ****        20.7500  21.0000  42.5000 Du        
  16404 ****        20.7500  21.2500  42.2500 Du        
  16405 ****        20.7500  21.2500  42.5000 Du        
  16406 ****        20.7500  21.5000  42.2500 Du        
  16407 ****        20.7500  21.7500  42.2500 Du        
  16408 ****        20.7500  22.0000  42.2500 Du        
  16409 ****        20.7500  22.2500  42.2500 Du        
  16410 ****        20.7500  22.5000  42.0000 Du        
  16411 ****        20.7500  22.5000  42.2500 Du        
  16412 ****        20.7500  22.7500  41.7500 Du        
  16413 ****        20.7500  22.7500  42.0000 Du        
  16414 ****        20.7500  22.7500  42.2500 Du        
  16415 ****        20.7500  23.0000  41.7500 Du        
  16416 ****        20.7500  23.0000  42.0000 Du        
  16417 ****        20.7500  23.0000  42.2500 Du        
  16418 ****        20.7500  23.2500  41.5000 Du        
  16419 ****        20.7500  23.2500  41.7500 Du        
  16420 ****        20.7500  23.2500  42.0000 Du        
  16421 ****        20.7500  23.2500  42.2500 Du        
  16422 ****        20.7500  23.5000  41.5000 Du        
  16423 ****        20.7500  23.5000  41.7500 Du        
  16424 ****        20.7500  23.5000  42.0000 Du        
  16425 ****        20.7500  23.5000  42.2500 Du        
  16426 ****        20.7500  23.5000  42.5000 Du        
  16427 ****        20.7500  23.7500  41.5000 Du        
  16428 ****        20.7500  23.7500  41.7500 Du        
  16429 ****        20.7500  23.7500  42.0000 Du        
  16430 ****        20.7500  23.7500  42.2500 Du        
  16431 ****        20.7500  23.7500  42.5000 Du        
  16432 ****        20.7500  24.0000  41.5000 Du        
  16433 ****        20.7500  24.0000  41.7500 Du        
  16434 ****        20.7500  24.0000  42.0000 Du        
  16435 ****        20.7500  24.0000  42.2500 Du        
  16436 ****        20.7500  24.0000  42.5000 Du        
  16437 ****        20.7500  24.0000  42.7500 Du        
  16438 ****        20.7500  24.2500  41.5000 Du        
  16439 ****        20.7500  24.2500  41.7500 Du        
  16440 ****        20.7500  24.2500  42.0000 Du        
  16441 ****        20.7500  24.2500  42.2500 Du        
  16442 ****        20.7500  24.2500  42.5000 Du        
  16443 ****        20.7500  24.5000  41.5000 Du        
  16444 ****        20.7500  24.5000  41.7500 Du        
  16445 ****        20.7500  24.5000  42.0000 Du        
  16446 ****        20.7500  24.5000  42.2500 Du        
  16447 ****        20.7500  24.5000  42.5000 Du        
  16448 ****        20.7500  24.7500  41.2500 Du        
  16449 ****        20.7500  24.7500  41.5000 Du        
  16450 ****        20.7500  25.0000  41.2500 Du        
  16451 ****        20.7500  25.0000  41.5000 Du        
  16452 ****        21.0000 -20.0000  35.5000 Du        
  16453 ****        21.0000 -20.0000  35.7500 Du        
  16454 ****        21.0000 -19.7500  35.5000 Du        
  16455 ****        21.0000 -19.7500  35.7500 Du        
  16456 ****        21.0000 -19.5000  35.2500 Du        
  16457 ****        21.0000 -19.5000  35.5000 Du        
  16458 ****        21.0000 -19.5000  35.7500 Du        
  16459 ****        21.0000 -19.2500  35.0000 Du        
  16460 ****        21.0000 -19.2500  35.2500 Du        
  16461 ****        21.0000 -19.2500  35.5000 Du        
  16462 ****        21.0000 -19.0000  35.0000 Du        
  16463 ****        21.0000 -19.0000  35.2500 Du        
  16464 ****        21.0000 -19.0000  35.5000 Du        
  16465 ****        21.0000 -18.7500  35.0000 Du        
  16466 ****        21.0000 -18.7500  35.2500 Du        
  16467 ****        21.0000 -18.7500  42.7500 Du        
  16468 ****        21.0000 -18.5000  35.0000 Du        
  16469 ****        21.0000 -18.5000  35.2500 Du        
  16470 ****        21.0000 -18.5000  35.5000 Du        
  16471 ****        21.0000 -18.5000  42.5000 Du        
  16472 ****        21.0000 -18.5000  42.7500 Du        
  16473 ****        21.0000 -18.2500  35.0000 Du        
  16474 ****        21.0000 -18.2500  35.2500 Du        
  16475 ****        21.0000 -18.2500  42.5000 Du        
  16476 ****        21.0000 -18.2500  42.7500 Du        
  16477 ****        21.0000 -18.0000  35.0000 Du        
  16478 ****        21.0000 -18.0000  35.2500 Du        
  16479 ****        21.0000 -18.0000  42.2500 Du        
  16480 ****        21.0000 -18.0000  42.5000 Du        
  16481 ****        21.0000 -18.0000  42.7500 Du        
  16482 ****        21.0000 -17.7500  34.7500 Du        
  16483 ****        21.0000 -17.7500  35.0000 Du        
  16484 ****        21.0000 -17.7500  35.2500 Du        
  16485 ****        21.0000 -17.7500  42.2500 Du        
  16486 ****        21.0000 -17.7500  42.5000 Du        
  16487 ****        21.0000 -17.7500  42.7500 Du        
  16488 ****        21.0000 -17.5000  34.5000 Du        
  16489 ****        21.0000 -17.5000  34.7500 Du        
  16490 ****        21.0000 -17.5000  35.0000 Du        
  16491 ****        21.0000 -17.5000  35.2500 Du        
  16492 ****        21.0000 -17.5000  42.2500 Du        
  16493 ****        21.0000 -17.5000  42.5000 Du        
  16494 ****        21.0000 -17.5000  42.7500 Du        
  16495 ****        21.0000 -17.2500  34.5000 Du        
  16496 ****        21.0000 -17.2500  34.7500 Du        
  16497 ****        21.0000 -17.2500  35.0000 Du        
  16498 ****        21.0000 -17.2500  35.2500 Du        
  16499 ****        21.0000 -17.2500  42.0000 Du        
  16500 ****        21.0000 -17.2500  42.2500 Du        
  16501 ****        21.0000 -17.2500  42.5000 Du        
  16502 ****        21.0000 -17.2500  42.7500 Du        
  16503 ****        21.0000 -17.0000  34.2500 Du        
  16504 ****        21.0000 -17.0000  34.5000 Du        
  16505 ****        21.0000 -17.0000  34.7500 Du        
  16506 ****        21.0000 -17.0000  35.0000 Du        
  16507 ****        21.0000 -17.0000  35.2500 Du        
  16508 ****        21.0000 -17.0000  42.0000 Du        
  16509 ****        21.0000 -17.0000  42.2500 Du        
  16510 ****        21.0000 -17.0000  42.5000 Du        
  16511 ****        21.0000 -17.0000  42.7500 Du        
  16512 ****        21.0000 -16.7500  34.2500 Du        
  16513 ****        21.0000 -16.7500  34.5000 Du        
  16514 ****        21.0000 -16.7500  34.7500 Du        
  16515 ****        21.0000 -16.7500  35.0000 Du        
  16516 ****        21.0000 -16.7500  35.2500 Du        
  16517 ****        21.0000 -16.7500  42.0000 Du        
  16518 ****        21.0000 -16.7500  42.2500 Du        
  16519 ****        21.0000 -16.7500  42.5000 Du        
  16520 ****        21.0000 -16.7500  42.7500 Du        
  16521 ****        21.0000 -16.5000  34.0000 Du        
  16522 ****        21.0000 -16.5000  34.2500 Du        
  16523 ****        21.0000 -16.5000  34.5000 Du        
  16524 ****        21.0000 -16.5000  34.7500 Du        
  16525 ****        21.0000 -16.5000  35.0000 Du        
  16526 ****        21.0000 -16.5000  35.2500 Du        
  16527 ****        21.0000 -16.5000  35.5000 Du        
  16528 ****        21.0000 -16.5000  42.0000 Du        
  16529 ****        21.0000 -16.5000  42.2500 Du        
  16530 ****        21.0000 -16.5000  42.5000 Du        
  16531 ****        21.0000 -16.5000  42.7500 Du        
  16532 ****        21.0000 -16.2500  34.0000 Du        
  16533 ****        21.0000 -16.2500  34.2500 Du        
  16534 ****        21.0000 -16.2500  34.5000 Du        
  16535 ****        21.0000 -16.2500  34.7500 Du        
  16536 ****        21.0000 -16.2500  35.0000 Du        
  16537 ****        21.0000 -16.2500  35.2500 Du        
  16538 ****        21.0000 -16.2500  35.5000 Du        
  16539 ****        21.0000 -16.2500  42.0000 Du        
  16540 ****        21.0000 -16.2500  42.2500 Du        
  16541 ****        21.0000 -16.2500  42.5000 Du        
  16542 ****        21.0000 -16.2500  42.7500 Du        
  16543 ****        21.0000 -16.0000  34.0000 Du        
  16544 ****        21.0000 -16.0000  34.2500 Du        
  16545 ****        21.0000 -16.0000  34.5000 Du        
  16546 ****        21.0000 -16.0000  34.7500 Du        
  16547 ****        21.0000 -16.0000  35.0000 Du        
  16548 ****        21.0000 -16.0000  35.2500 Du        
  16549 ****        21.0000 -16.0000  35.5000 Du        
  16550 ****        21.0000 -15.7500  34.0000 Du        
  16551 ****        21.0000 -15.7500  34.2500 Du        
  16552 ****        21.0000 -15.7500  34.5000 Du        
  16553 ****        21.0000 -15.7500  34.7500 Du        
  16554 ****        21.0000 -15.7500  35.0000 Du        
  16555 ****        21.0000 -15.7500  35.2500 Du        
  16556 ****        21.0000 -15.7500  35.5000 Du        
  16557 ****        21.0000 -15.5000  34.0000 Du        
  16558 ****        21.0000 -15.5000  34.2500 Du        
  16559 ****        21.0000 -15.5000  34.5000 Du        
  16560 ****        21.0000 -15.5000  34.7500 Du        
  16561 ****        21.0000 -15.5000  35.0000 Du        
  16562 ****        21.0000 -15.5000  35.2500 Du        
  16563 ****        21.0000 -15.5000  35.5000 Du        
  16564 ****        21.0000 -15.2500  34.5000 Du        
  16565 ****        21.0000 -15.2500  34.7500 Du        
  16566 ****        21.0000 -15.2500  35.0000 Du        
  16567 ****        21.0000 -15.2500  35.2500 Du        
  16568 ****        21.0000  -6.2500  31.2500 Du        
  16569 ****        21.0000  -6.2500  31.5000 Du        
  16570 ****        21.0000  -6.2500  31.7500 Du        
  16571 ****        21.0000  -6.0000  31.2500 Du        
  16572 ****        21.0000  -6.0000  31.5000 Du        
  16573 ****        21.0000  -6.0000  31.7500 Du        
  16574 ****        21.0000  -6.0000  32.0000 Du        
  16575 ****        21.0000  -5.7500  31.2500 Du        
  16576 ****        21.0000  -5.7500  31.5000 Du        
  16577 ****        21.0000  -5.7500  31.7500 Du        
  16578 ****        21.0000  -5.7500  32.0000 Du        
  16579 ****        21.0000  -5.7500  32.2500 Du        
  16580 ****        21.0000  -5.5000  31.5000 Du        
  16581 ****        21.0000  -5.5000  31.7500 Du        
  16582 ****        21.0000  -5.5000  32.0000 Du        
  16583 ****        21.0000  -5.5000  32.2500 Du        
  16584 ****        21.0000  -5.2500  31.5000 Du        
  16585 ****        21.0000  -5.2500  31.7500 Du        
  16586 ****        21.0000  -5.2500  32.0000 Du        
  16587 ****        21.0000  -5.2500  32.2500 Du        
  16588 ****        21.0000  -5.0000  31.5000 Du        
  16589 ****        21.0000  -5.0000  31.7500 Du        
  16590 ****        21.0000  -5.0000  32.0000 Du        
  16591 ****        21.0000  -5.0000  32.2500 Du        
  16592 ****        21.0000  -4.7500  31.7500 Du        
  16593 ****        21.0000  -4.7500  32.0000 Du        
  16594 ****        21.0000  -4.7500  32.2500 Du        
  16595 ****        21.0000  -4.7500  32.5000 Du        
  16596 ****        21.0000  -4.5000  32.0000 Du        
  16597 ****        21.0000  -4.5000  32.2500 Du        
  16598 ****        21.0000  -4.5000  32.5000 Du        
  16599 ****        21.0000  -4.2500  32.0000 Du        
  16600 ****        21.0000  -4.2500  32.2500 Du        
  16601 ****        21.0000  -4.2500  32.5000 Du        
  16602 ****        21.0000  -4.0000  32.0000 Du        
  16603 ****        21.0000  -4.0000  32.2500 Du        
  16604 ****        21.0000  -4.0000  32.5000 Du        
  16605 ****        21.0000  -4.0000  32.7500 Du        
  16606 ****        21.0000  -3.7500  32.2500 Du        
  16607 ****        21.0000  -3.7500  32.5000 Du        
  16608 ****        21.0000  -3.7500  32.7500 Du        
  16609 ****        21.0000  -3.5000  32.5000 Du        
  16610 ****        21.0000  -3.5000  32.7500 Du        
  16611 ****        21.0000  -3.2500  32.5000 Du        
  16612 ****        21.0000  -3.2500  32.7500 Du        
  16613 ****        21.0000  -3.2500  33.0000 Du        
  16614 ****        21.0000  -3.0000  32.7500 Du        
  16615 ****        21.0000  -3.0000  33.0000 Du        
  16616 ****        21.0000  -3.0000  33.2500 Du        
  16617 ****        21.0000  -2.7500  32.7500 Du        
  16618 ****        21.0000  -2.7500  33.0000 Du        
  16619 ****        21.0000  -2.7500  33.2500 Du        
  16620 ****        21.0000  -2.7500  33.5000 Du        
  16621 ****        21.0000  -2.5000  33.5000 Du        
  16622 ****        21.0000  -2.2500  33.5000 Du        
  16623 ****        21.0000  -2.2500  33.7500 Du        
  16624 ****        21.0000  -2.0000  33.5000 Du        
  16625 ****        21.0000  -2.0000  33.7500 Du        
  16626 ****        21.0000  -2.0000  34.0000 Du        
  16627 ****        21.0000  -1.7500  33.7500 Du        
  16628 ****        21.0000  -1.7500  34.0000 Du        
  16629 ****        21.0000  -1.5000  34.5000 Du        
  16630 ****        21.0000  -1.5000  35.0000 Du        
  16631 ****        21.0000  -1.5000  35.2500 Du        
  16632 ****        21.0000  -1.5000  35.5000 Du        
  16633 ****        21.0000  -1.5000  35.7500 Du        
  16634 ****        21.0000  -1.5000  36.0000 Du        
  16635 ****        21.0000  -1.5000  36.2500 Du        
  16636 ****        21.0000  -1.2500  34.5000 Du        
  16637 ****        21.0000  -1.2500  34.7500 Du        
  16638 ****        21.0000  -1.2500  35.0000 Du        
  16639 ****        21.0000  -1.2500  35.2500 Du        
  16640 ****        21.0000  -1.2500  35.5000 Du        
  16641 ****        21.0000  -1.2500  35.7500 Du        
  16642 ****        21.0000  -1.2500  36.0000 Du        
  16643 ****        21.0000  -1.2500  36.2500 Du        
  16644 ****        21.0000  -1.2500  36.5000 Du        
  16645 ****        21.0000  -1.2500  36.7500 Du        
  16646 ****        21.0000  -1.0000  34.5000 Du        
  16647 ****        21.0000  -1.0000  34.7500 Du        
  16648 ****        21.0000  -1.0000  35.0000 Du        
  16649 ****        21.0000  -1.0000  35.2500 Du        
  16650 ****        21.0000  -1.0000  35.5000 Du        
  16651 ****        21.0000  -1.0000  35.7500 Du        
  16652 ****        21.0000  -1.0000  36.0000 Du        
  16653 ****        21.0000  -1.0000  36.2500 Du        
  16654 ****        21.0000  -1.0000  36.5000 Du        
  16655 ****        21.0000  -1.0000  36.7500 Du        
  16656 ****        21.0000  -1.0000  37.0000 Du        
  16657 ****        21.0000  -0.7500  34.7500 Du        
  16658 ****        21.0000  -0.7500  35.0000 Du        
  16659 ****        21.0000  -0.7500  35.2500 Du        
  16660 ****        21.0000  -0.7500  35.5000 Du        
  16661 ****        21.0000  -0.7500  35.7500 Du        
  16662 ****        21.0000  -0.7500  36.0000 Du        
  16663 ****        21.0000  -0.7500  36.2500 Du        
  16664 ****        21.0000  -0.7500  36.5000 Du        
  16665 ****        21.0000  -0.7500  36.7500 Du        
  16666 ****        21.0000  -0.7500  37.0000 Du        
  16667 ****        21.0000  -0.5000  35.0000 Du        
  16668 ****        21.0000  -0.5000  35.2500 Du        
  16669 ****        21.0000  -0.5000  35.5000 Du        
  16670 ****        21.0000  -0.5000  35.7500 Du        
  16671 ****        21.0000  -0.5000  36.0000 Du        
  16672 ****        21.0000  -0.5000  36.2500 Du        
  16673 ****        21.0000  -0.5000  36.5000 Du        
  16674 ****        21.0000  -0.5000  36.7500 Du        
  16675 ****        21.0000  -0.5000  37.0000 Du        
  16676 ****        21.0000  -0.2500  35.0000 Du        
  16677 ****        21.0000  -0.2500  35.2500 Du        
  16678 ****        21.0000  -0.2500  35.5000 Du        
  16679 ****        21.0000  -0.2500  35.7500 Du        
  16680 ****        21.0000  -0.2500  36.0000 Du        
  16681 ****        21.0000  -0.2500  36.2500 Du        
  16682 ****        21.0000  -0.2500  36.5000 Du        
  16683 ****        21.0000  -0.2500  36.7500 Du        
  16684 ****        21.0000  -0.2500  37.0000 Du        
  16685 ****        21.0000   0.0000  35.2500 Du        
  16686 ****        21.0000   0.0000  35.5000 Du        
  16687 ****        21.0000   0.0000  35.7500 Du        
  16688 ****        21.0000   0.0000  36.0000 Du        
  16689 ****        21.0000   0.0000  36.2500 Du        
  16690 ****        21.0000   0.0000  36.5000 Du        
  16691 ****        21.0000   0.0000  36.7500 Du        
  16692 ****        21.0000   0.0000  37.0000 Du        
  16693 ****        21.0000   0.2500  35.2500 Du        
  16694 ****        21.0000   0.2500  35.5000 Du        
  16695 ****        21.0000   0.2500  35.7500 Du        
  16696 ****        21.0000   0.2500  36.0000 Du        
  16697 ****        21.0000   0.2500  36.2500 Du        
  16698 ****        21.0000   0.2500  36.5000 Du        
  16699 ****        21.0000   0.2500  36.7500 Du        
  16700 ****        21.0000   0.2500  37.0000 Du        
  16701 ****        21.0000   0.2500  37.2500 Du        
  16702 ****        21.0000   0.5000  35.5000 Du        
  16703 ****        21.0000   0.5000  35.7500 Du        
  16704 ****        21.0000   0.5000  36.0000 Du        
  16705 ****        21.0000   0.5000  36.2500 Du        
  16706 ****        21.0000   0.5000  36.5000 Du        
  16707 ****        21.0000   0.5000  36.7500 Du        
  16708 ****        21.0000   0.5000  37.0000 Du        
  16709 ****        21.0000   0.5000  37.2500 Du        
  16710 ****        21.0000   0.7500  35.5000 Du        
  16711 ****        21.0000   0.7500  35.7500 Du        
  16712 ****        21.0000   0.7500  36.0000 Du        
  16713 ****        21.0000   0.7500  36.2500 Du        
  16714 ****        21.0000   0.7500  36.5000 Du        
  16715 ****        21.0000   0.7500  36.7500 Du        
  16716 ****        21.0000   0.7500  37.0000 Du        
  16717 ****        21.0000   0.7500  37.2500 Du        
  16718 ****        21.0000   1.0000  35.7500 Du        
  16719 ****        21.0000   1.0000  36.0000 Du        
  16720 ****        21.0000   1.0000  36.2500 Du        
  16721 ****        21.0000   1.0000  36.5000 Du        
  16722 ****        21.0000   1.0000  36.7500 Du        
  16723 ****        21.0000   1.0000  37.0000 Du        
  16724 ****        21.0000   1.2500  36.0000 Du        
  16725 ****        21.0000   6.5000  25.2500 Du        
  16726 ****        21.0000   6.7500  25.2500 Du        
  16727 ****        21.0000   6.7500  25.5000 Du        
  16728 ****        21.0000   7.0000  25.2500 Du        
  16729 ****        21.0000   7.0000  25.5000 Du        
  16730 ****        21.0000   7.0000  25.7500 Du        
  16731 ****        21.0000   7.2500  25.2500 Du        
  16732 ****        21.0000   7.2500  25.5000 Du        
  16733 ****        21.0000   7.2500  25.7500 Du        
  16734 ****        21.0000   7.5000  25.2500 Du        
  16735 ****        21.0000   9.0000  37.5000 Du        
  16736 ****        21.0000   9.0000  37.7500 Du        
  16737 ****        21.0000   9.0000  38.0000 Du        
  16738 ****        21.0000   9.0000  38.2500 Du        
  16739 ****        21.0000   9.0000  38.5000 Du        
  16740 ****        21.0000   9.2500  37.5000 Du        
  16741 ****        21.0000   9.2500  37.7500 Du        
  16742 ****        21.0000   9.2500  38.0000 Du        
  16743 ****        21.0000   9.2500  38.2500 Du        
  16744 ****        21.0000   9.2500  38.5000 Du        
  16745 ****        21.0000   9.2500  38.7500 Du        
  16746 ****        21.0000   9.2500  39.0000 Du        
  16747 ****        21.0000   9.5000  37.7500 Du        
  16748 ****        21.0000   9.5000  38.0000 Du        
  16749 ****        21.0000   9.5000  38.2500 Du        
  16750 ****        21.0000   9.5000  38.5000 Du        
  16751 ****        21.0000   9.5000  38.7500 Du        
  16752 ****        21.0000   9.5000  39.0000 Du        
  16753 ****        21.0000   9.7500  37.7500 Du        
  16754 ****        21.0000   9.7500  38.0000 Du        
  16755 ****        21.0000   9.7500  38.2500 Du        
  16756 ****        21.0000   9.7500  38.5000 Du        
  16757 ****        21.0000   9.7500  38.7500 Du        
  16758 ****        21.0000   9.7500  39.0000 Du        
  16759 ****        21.0000  10.0000  38.0000 Du        
  16760 ****        21.0000  10.0000  38.2500 Du        
  16761 ****        21.0000  10.0000  38.5000 Du        
  16762 ****        21.0000  10.0000  38.7500 Du        
  16763 ****        21.0000  10.2500  38.5000 Du        
  16764 ****        21.0000  13.0000  30.7500 Du        
  16765 ****        21.0000  13.0000  31.0000 Du        
  16766 ****        21.0000  13.2500  30.2500 Du        
  16767 ****        21.0000  13.2500  30.7500 Du        
  16768 ****        21.0000  13.2500  31.0000 Du        
  16769 ****        21.0000  13.2500  31.2500 Du        
  16770 ****        21.0000  13.5000  30.0000 Du        
  16771 ****        21.0000  13.5000  30.2500 Du        
  16772 ****        21.0000  13.5000  30.5000 Du        
  16773 ****        21.0000  13.5000  30.7500 Du        
  16774 ****        21.0000  13.5000  31.0000 Du        
  16775 ****        21.0000  13.5000  31.2500 Du        
  16776 ****        21.0000  13.7500  30.0000 Du        
  16777 ****        21.0000  13.7500  30.2500 Du        
  16778 ****        21.0000  13.7500  30.5000 Du        
  16779 ****        21.0000  13.7500  30.7500 Du        
  16780 ****        21.0000  13.7500  31.0000 Du        
  16781 ****        21.0000  13.7500  31.2500 Du        
  16782 ****        21.0000  13.7500  31.5000 Du        
  16783 ****        21.0000  14.0000  30.2500 Du        
  16784 ****        21.0000  14.0000  30.5000 Du        
  16785 ****        21.0000  14.0000  30.7500 Du        
  16786 ****        21.0000  14.0000  31.0000 Du        
  16787 ****        21.0000  14.0000  31.2500 Du        
  16788 ****        21.0000  14.0000  31.5000 Du        
  16789 ****        21.0000  14.2500  30.2500 Du        
  16790 ****        21.0000  14.2500  30.5000 Du        
  16791 ****        21.0000  14.2500  30.7500 Du        
  16792 ****        21.0000  14.2500  31.0000 Du        
  16793 ****        21.0000  14.2500  31.2500 Du        
  16794 ****        21.0000  14.2500  31.5000 Du        
  16795 ****        21.0000  14.5000  30.5000 Du        
  16796 ****        21.0000  14.5000  30.7500 Du        
  16797 ****        21.0000  14.5000  31.0000 Du        
  16798 ****        21.0000  14.5000  31.2500 Du        
  16799 ****        21.0000  14.5000  31.5000 Du        
  16800 ****        21.0000  14.5000  31.7500 Du        
  16801 ****        21.0000  14.7500  30.5000 Du        
  16802 ****        21.0000  14.7500  30.7500 Du        
  16803 ****        21.0000  14.7500  31.0000 Du        
  16804 ****        21.0000  14.7500  31.2500 Du        
  16805 ****        21.0000  14.7500  31.5000 Du        
  16806 ****        21.0000  14.7500  31.7500 Du        
  16807 ****        21.0000  14.7500  32.0000 Du        
  16808 ****        21.0000  15.0000  30.7500 Du        
  16809 ****        21.0000  15.0000  31.0000 Du        
  16810 ****        21.0000  15.0000  31.2500 Du        
  16811 ****        21.0000  15.0000  31.5000 Du        
  16812 ****        21.0000  15.0000  31.7500 Du        
  16813 ****        21.0000  15.0000  32.0000 Du        
  16814 ****        21.0000  15.0000  32.2500 Du        
  16815 ****        21.0000  15.2500  30.7500 Du        
  16816 ****        21.0000  15.2500  31.0000 Du        
  16817 ****        21.0000  15.2500  31.2500 Du        
  16818 ****        21.0000  15.2500  31.5000 Du        
  16819 ****        21.0000  15.2500  31.7500 Du        
  16820 ****        21.0000  15.2500  32.0000 Du        
  16821 ****        21.0000  15.2500  32.2500 Du        
  16822 ****        21.0000  15.5000  31.0000 Du        
  16823 ****        21.0000  15.5000  31.2500 Du        
  16824 ****        21.0000  15.5000  31.5000 Du        
  16825 ****        21.0000  15.5000  31.7500 Du        
  16826 ****        21.0000  15.5000  32.0000 Du        
  16827 ****        21.0000  15.5000  32.2500 Du        
  16828 ****        21.0000  15.7500  31.5000 Du        
  16829 ****        21.0000  15.7500  31.7500 Du        
  16830 ****        21.0000  15.7500  32.0000 Du        
  16831 ****        21.0000  15.7500  32.2500 Du        
  16832 ****        21.0000  16.0000  32.0000 Du        
  16833 ****        21.0000  16.0000  32.2500 Du        
  16834 ****        21.0000  18.5000  35.0000 Du        
  16835 ****        21.0000  18.5000  35.2500 Du        
  16836 ****        21.0000  18.5000  35.5000 Du        
  16837 ****        21.0000  18.7500  34.7500 Du        
  16838 ****        21.0000  18.7500  35.0000 Du        
  16839 ****        21.0000  18.7500  35.2500 Du        
  16840 ****        21.0000  18.7500  35.5000 Du        
  16841 ****        21.0000  18.7500  35.7500 Du        
  16842 ****        21.0000  18.7500  36.0000 Du        
  16843 ****        21.0000  19.0000  34.7500 Du        
  16844 ****        21.0000  19.0000  35.0000 Du        
  16845 ****        21.0000  19.0000  35.2500 Du        
  16846 ****        21.0000  19.0000  35.5000 Du        
  16847 ****        21.0000  19.0000  35.7500 Du        
  16848 ****        21.0000  19.0000  36.0000 Du        
  16849 ****        21.0000  19.2500  35.0000 Du        
  16850 ****        21.0000  19.2500  35.2500 Du        
  16851 ****        21.0000  19.2500  35.5000 Du        
  16852 ****        21.0000  19.2500  35.7500 Du        
  16853 ****        21.0000  19.2500  36.0000 Du        
  16854 ****        21.0000  19.5000  35.0000 Du        
  16855 ****        21.0000  19.5000  35.2500 Du        
  16856 ****        21.0000  19.5000  35.5000 Du        
  16857 ****        21.0000  19.5000  35.7500 Du        
  16858 ****        21.0000  19.5000  36.0000 Du        
  16859 ****        21.0000  19.7500  35.2500 Du        
  16860 ****        21.0000  19.7500  35.5000 Du        
  16861 ****        21.0000  19.7500  35.7500 Du        
  16862 ****        21.0000  19.7500  36.0000 Du        
  16863 ****        21.0000  20.0000  35.2500 Du        
  16864 ****        21.0000  20.0000  35.5000 Du        
  16865 ****        21.0000  20.0000  35.7500 Du        
  16866 ****        21.0000  20.5000  42.5000 Du        
  16867 ****        21.0000  20.5000  42.7500 Du        
  16868 ****        21.0000  20.7500  42.5000 Du        
  16869 ****        21.0000  20.7500  42.7500 Du        
  16870 ****        21.0000  21.0000  42.5000 Du        
  16871 ****        21.0000  23.0000  42.0000 Du        
  16872 ****        21.0000  23.0000  42.2500 Du        
  16873 ****        21.0000  23.2500  41.7500 Du        
  16874 ****        21.0000  23.2500  42.0000 Du        
  16875 ****        21.0000  23.2500  42.2500 Du        
  16876 ****        21.0000  23.5000  41.5000 Du        
  16877 ****        21.0000  23.5000  41.7500 Du        
  16878 ****        21.0000  23.5000  42.0000 Du        
  16879 ****        21.0000  23.5000  42.2500 Du        
  16880 ****        21.0000  23.7500  41.5000 Du        
  16881 ****        21.0000  23.7500  41.7500 Du        
  16882 ****        21.0000  23.7500  42.0000 Du        
  16883 ****        21.0000  23.7500  42.2500 Du        
  16884 ****        21.0000  23.7500  42.5000 Du        
  16885 ****        21.0000  24.0000  41.5000 Du        
  16886 ****        21.0000  24.0000  41.7500 Du        
  16887 ****        21.0000  24.0000  42.0000 Du        
  16888 ****        21.0000  24.0000  42.2500 Du        
  16889 ****        21.0000  24.0000  42.5000 Du        
  16890 ****        21.0000  24.2500  41.5000 Du        
  16891 ****        21.0000  24.2500  41.7500 Du        
  16892 ****        21.0000  24.2500  42.0000 Du        
  16893 ****        21.0000  24.2500  42.2500 Du        
  16894 ****        21.0000  24.2500  42.5000 Du        
  16895 ****        21.0000  24.5000  41.5000 Du        
  16896 ****        21.0000  24.5000  41.7500 Du        
  16897 ****        21.0000  24.5000  42.0000 Du        
  16898 ****        21.0000  24.5000  42.2500 Du        
  16899 ****        21.0000  24.5000  42.5000 Du        
  16900 ****        21.0000  24.7500  41.5000 Du        
  16901 ****        21.0000  25.0000  41.5000 Du        
  16902 ****        21.2500 -19.2500  42.7500 Du        
  16903 ****        21.2500 -19.2500  43.0000 Du        
  16904 ****        21.2500 -19.0000  42.7500 Du        
  16905 ****        21.2500 -19.0000  43.0000 Du        
  16906 ****        21.2500 -18.7500  42.5000 Du        
  16907 ****        21.2500 -18.7500  42.7500 Du        
  16908 ****        21.2500 -18.7500  43.0000 Du        
  16909 ****        21.2500 -18.5000  42.5000 Du        
  16910 ****        21.2500 -18.5000  42.7500 Du        
  16911 ****        21.2500 -18.2500  42.5000 Du        
  16912 ****        21.2500 -18.2500  42.7500 Du        
  16913 ****        21.2500 -18.0000  42.2500 Du        
  16914 ****        21.2500 -18.0000  42.5000 Du        
  16915 ****        21.2500 -18.0000  42.7500 Du        
  16916 ****        21.2500 -17.7500  42.2500 Du        
  16917 ****        21.2500 -17.7500  42.5000 Du        
  16918 ****        21.2500 -17.7500  42.7500 Du        
  16919 ****        21.2500 -17.5000  42.2500 Du        
  16920 ****        21.2500 -17.5000  42.5000 Du        
  16921 ****        21.2500 -17.5000  42.7500 Du        
  16922 ****        21.2500 -17.2500  42.0000 Du        
  16923 ****        21.2500 -17.2500  42.2500 Du        
  16924 ****        21.2500 -17.2500  42.5000 Du        
  16925 ****        21.2500 -17.2500  42.7500 Du        
  16926 ****        21.2500 -17.0000  34.5000 Du        
  16927 ****        21.2500 -17.0000  34.7500 Du        
  16928 ****        21.2500 -17.0000  42.0000 Du        
  16929 ****        21.2500 -17.0000  42.2500 Du        
  16930 ****        21.2500 -17.0000  42.5000 Du        
  16931 ****        21.2500 -17.0000  42.7500 Du        
  16932 ****        21.2500 -16.7500  34.2500 Du        
  16933 ****        21.2500 -16.7500  34.5000 Du        
  16934 ****        21.2500 -16.7500  34.7500 Du        
  16935 ****        21.2500 -16.7500  35.0000 Du        
  16936 ****        21.2500 -16.7500  42.0000 Du        
  16937 ****        21.2500 -16.7500  42.2500 Du        
  16938 ****        21.2500 -16.7500  42.5000 Du        
  16939 ****        21.2500 -16.7500  42.7500 Du        
  16940 ****        21.2500 -16.5000  34.2500 Du        
  16941 ****        21.2500 -16.5000  34.5000 Du        
  16942 ****        21.2500 -16.5000  34.7500 Du        
  16943 ****        21.2500 -16.5000  35.0000 Du        
  16944 ****        21.2500 -16.5000  35.2500 Du        
  16945 ****        21.2500 -16.5000  41.7500 Du        
  16946 ****        21.2500 -16.5000  42.0000 Du        
  16947 ****        21.2500 -16.5000  42.2500 Du        
  16948 ****        21.2500 -16.5000  42.5000 Du        
  16949 ****        21.2500 -16.5000  42.7500 Du        
  16950 ****        21.2500 -16.2500  34.0000 Du        
  16951 ****        21.2500 -16.2500  34.2500 Du        
  16952 ****        21.2500 -16.2500  34.5000 Du        
  16953 ****        21.2500 -16.2500  34.7500 Du        
  16954 ****        21.2500 -16.2500  35.0000 Du        
  16955 ****        21.2500 -16.2500  35.2500 Du        
  16956 ****        21.2500 -16.2500  42.0000 Du        
  16957 ****        21.2500 -16.2500  42.2500 Du        
  16958 ****        21.2500 -16.2500  42.5000 Du        
  16959 ****        21.2500 -16.2500  42.7500 Du        
  16960 ****        21.2500 -16.0000  34.0000 Du        
  16961 ****        21.2500 -16.0000  34.2500 Du        
  16962 ****        21.2500 -16.0000  34.5000 Du        
  16963 ****        21.2500 -16.0000  34.7500 Du        
  16964 ****        21.2500 -16.0000  35.0000 Du        
  16965 ****        21.2500 -16.0000  35.2500 Du        
  16966 ****        21.2500 -15.7500  34.0000 Du        
  16967 ****        21.2500 -15.7500  34.2500 Du        
  16968 ****        21.2500 -15.7500  34.5000 Du        
  16969 ****        21.2500 -15.7500  34.7500 Du        
  16970 ****        21.2500 -15.7500  35.0000 Du        
  16971 ****        21.2500 -15.7500  35.2500 Du        
  16972 ****        21.2500 -15.5000  34.0000 Du        
  16973 ****        21.2500 -15.5000  34.2500 Du        
  16974 ****        21.2500 -15.5000  34.5000 Du        
  16975 ****        21.2500 -15.5000  34.7500 Du        
  16976 ****        21.2500 -15.5000  35.0000 Du        
  16977 ****        21.2500 -15.5000  35.2500 Du        
  16978 ****        21.2500 -15.2500  34.0000 Du        
  16979 ****        21.2500 -15.2500  34.2500 Du        
  16980 ****        21.2500 -15.2500  34.5000 Du        
  16981 ****        21.2500 -15.2500  34.7500 Du        
  16982 ****        21.2500 -15.2500  35.0000 Du        
  16983 ****        21.2500 -15.2500  35.2500 Du        
  16984 ****        21.2500  -6.5000  31.5000 Du        
  16985 ****        21.2500  -6.2500  31.5000 Du        
  16986 ****        21.2500  -6.2500  31.7500 Du        
  16987 ****        21.2500  -6.2500  32.0000 Du        
  16988 ****        21.2500  -6.0000  31.5000 Du        
  16989 ****        21.2500  -6.0000  31.7500 Du        
  16990 ****        21.2500  -6.0000  32.0000 Du        
  16991 ****        21.2500  -6.0000  32.2500 Du        
  16992 ****        21.2500  -5.7500  31.5000 Du        
  16993 ****        21.2500  -5.7500  31.7500 Du        
  16994 ****        21.2500  -5.7500  32.0000 Du        
  16995 ****        21.2500  -5.7500  32.2500 Du        
  16996 ****        21.2500  -5.7500  32.5000 Du        
  16997 ****        21.2500  -5.5000  31.5000 Du        
  16998 ****        21.2500  -5.5000  31.7500 Du        
  16999 ****        21.2500  -5.5000  32.0000 Du        
  17000 ****        21.2500  -5.5000  32.2500 Du        
  17001 ****        21.2500  -5.5000  32.5000 Du        
  17002 ****        21.2500  -5.2500  31.5000 Du        
  17003 ****        21.2500  -5.2500  31.7500 Du        
  17004 ****        21.2500  -5.2500  32.0000 Du        
  17005 ****        21.2500  -5.2500  32.2500 Du        
  17006 ****        21.2500  -5.2500  32.5000 Du        
  17007 ****        21.2500  -5.0000  31.5000 Du        
  17008 ****        21.2500  -5.0000  31.7500 Du        
  17009 ****        21.2500  -5.0000  32.0000 Du        
  17010 ****        21.2500  -5.0000  32.2500 Du        
  17011 ****        21.2500  -5.0000  32.5000 Du        
  17012 ****        21.2500  -4.7500  31.7500 Du        
  17013 ****        21.2500  -4.7500  32.0000 Du        
  17014 ****        21.2500  -4.7500  32.2500 Du        
  17015 ****        21.2500  -4.7500  32.5000 Du        
  17016 ****        21.2500  -4.5000  32.0000 Du        
  17017 ****        21.2500  -4.5000  32.2500 Du        
  17018 ****        21.2500  -4.5000  32.5000 Du        
  17019 ****        21.2500  -4.5000  32.7500 Du        
  17020 ****        21.2500  -4.2500  32.0000 Du        
  17021 ****        21.2500  -4.2500  32.2500 Du        
  17022 ****        21.2500  -4.2500  32.5000 Du        
  17023 ****        21.2500  -4.2500  32.7500 Du        
  17024 ****        21.2500  -4.0000  32.2500 Du        
  17025 ****        21.2500  -4.0000  32.5000 Du        
  17026 ****        21.2500  -4.0000  32.7500 Du        
  17027 ****        21.2500  -3.7500  32.2500 Du        
  17028 ****        21.2500  -3.7500  32.5000 Du        
  17029 ****        21.2500  -3.7500  32.7500 Du        
  17030 ****        21.2500  -3.7500  33.0000 Du        
  17031 ****        21.2500  -3.5000  32.5000 Du        
  17032 ****        21.2500  -3.5000  32.7500 Du        
  17033 ****        21.2500  -3.5000  33.0000 Du        
  17034 ****        21.2500  -3.2500  32.5000 Du        
  17035 ****        21.2500  -3.2500  32.7500 Du        
  17036 ****        21.2500  -3.2500  33.0000 Du        
  17037 ****        21.2500  -3.2500  33.2500 Du        
  17038 ****        21.2500  -3.0000  32.5000 Du        
  17039 ****        21.2500  -3.0000  32.7500 Du        
  17040 ****        21.2500  -3.0000  33.0000 Du        
  17041 ****        21.2500  -3.0000  33.2500 Du        
  17042 ****        21.2500  -3.0000  33.5000 Du        
  17043 ****        21.2500  -2.7500  32.7500 Du        
  17044 ****        21.2500  -2.7500  33.0000 Du        
  17045 ****        21.2500  -2.7500  33.2500 Du        
  17046 ****        21.2500  -2.7500  33.5000 Du        
  17047 ****        21.2500  -2.5000  33.5000 Du        
  17048 ****        21.2500  -2.5000  33.7500 Du        
  17049 ****        21.2500  -2.2500  33.5000 Du        
  17050 ****        21.2500  -2.2500  33.7500 Du        
  17051 ****        21.2500  -2.2500  34.0000 Du        
  17052 ****        21.2500  -2.0000  33.5000 Du        
  17053 ****        21.2500  -2.0000  33.7500 Du        
  17054 ****        21.2500  -2.0000  34.0000 Du        
  17055 ****        21.2500  -2.0000  34.2500 Du        
  17056 ****        21.2500  -1.7500  33.5000 Du        
  17057 ****        21.2500  -1.7500  33.7500 Du        
  17058 ****        21.2500  -1.7500  34.0000 Du        
  17059 ****        21.2500  -1.7500  34.2500 Du        
  17060 ****        21.2500  -1.7500  34.5000 Du        
  17061 ****        21.2500  -1.5000  34.5000 Du        
  17062 ****        21.2500  -1.5000  34.7500 Du        
  17063 ****        21.2500  -1.5000  35.0000 Du        
  17064 ****        21.2500  -1.5000  35.2500 Du        
  17065 ****        21.2500  -1.5000  35.5000 Du        
  17066 ****        21.2500  -1.5000  35.7500 Du        
  17067 ****        21.2500  -1.5000  36.0000 Du        
  17068 ****        21.2500  -1.5000  36.2500 Du        
  17069 ****        21.2500  -1.2500  34.2500 Du        
  17070 ****        21.2500  -1.2500  34.5000 Du        
  17071 ****        21.2500  -1.2500  34.7500 Du        
  17072 ****        21.2500  -1.2500  35.0000 Du        
  17073 ****        21.2500  -1.2500  35.2500 Du        
  17074 ****        21.2500  -1.2500  35.5000 Du        
  17075 ****        21.2500  -1.2500  35.7500 Du        
  17076 ****        21.2500  -1.2500  36.0000 Du        
  17077 ****        21.2500  -1.2500  36.2500 Du        
  17078 ****        21.2500  -1.2500  36.5000 Du        
  17079 ****        21.2500  -1.2500  36.7500 Du        
  17080 ****        21.2500  -1.0000  34.5000 Du        
  17081 ****        21.2500  -1.0000  34.7500 Du        
  17082 ****        21.2500  -1.0000  35.0000 Du        
  17083 ****        21.2500  -1.0000  35.2500 Du        
  17084 ****        21.2500  -1.0000  35.5000 Du        
  17085 ****        21.2500  -1.0000  35.7500 Du        
  17086 ****        21.2500  -1.0000  36.0000 Du        
  17087 ****        21.2500  -1.0000  36.2500 Du        
  17088 ****        21.2500  -1.0000  36.5000 Du        
  17089 ****        21.2500  -1.0000  36.7500 Du        
  17090 ****        21.2500  -1.0000  37.0000 Du        
  17091 ****        21.2500  -0.7500  34.5000 Du        
  17092 ****        21.2500  -0.7500  34.7500 Du        
  17093 ****        21.2500  -0.7500  35.0000 Du        
  17094 ****        21.2500  -0.7500  35.2500 Du        
  17095 ****        21.2500  -0.7500  35.5000 Du        
  17096 ****        21.2500  -0.7500  35.7500 Du        
  17097 ****        21.2500  -0.7500  36.0000 Du        
  17098 ****        21.2500  -0.7500  36.2500 Du        
  17099 ****        21.2500  -0.7500  36.5000 Du        
  17100 ****        21.2500  -0.7500  36.7500 Du        
  17101 ****        21.2500  -0.7500  37.0000 Du        
  17102 ****        21.2500  -0.5000  34.5000 Du        
  17103 ****        21.2500  -0.5000  34.7500 Du        
  17104 ****        21.2500  -0.5000  35.0000 Du        
  17105 ****        21.2500  -0.5000  35.2500 Du        
  17106 ****        21.2500  -0.5000  35.5000 Du        
  17107 ****        21.2500  -0.5000  35.7500 Du        
  17108 ****        21.2500  -0.5000  36.0000 Du        
  17109 ****        21.2500  -0.5000  36.2500 Du        
  17110 ****        21.2500  -0.5000  36.5000 Du        
  17111 ****        21.2500  -0.5000  36.7500 Du        
  17112 ****        21.2500  -0.5000  37.0000 Du        
  17113 ****        21.2500  -0.2500  34.7500 Du        
  17114 ****        21.2500  -0.2500  35.0000 Du        
  17115 ****        21.2500  -0.2500  35.2500 Du        
  17116 ****        21.2500  -0.2500  35.5000 Du        
  17117 ****        21.2500  -0.2500  35.7500 Du        
  17118 ****        21.2500  -0.2500  36.0000 Du        
  17119 ****        21.2500  -0.2500  36.2500 Du        
  17120 ****        21.2500  -0.2500  36.5000 Du        
  17121 ****        21.2500  -0.2500  36.7500 Du        
  17122 ****        21.2500  -0.2500  37.0000 Du        
  17123 ****        21.2500  -0.2500  37.2500 Du        
  17124 ****        21.2500   0.0000  34.7500 Du        
  17125 ****        21.2500   0.0000  35.0000 Du        
  17126 ****        21.2500   0.0000  35.2500 Du        
  17127 ****        21.2500   0.0000  35.5000 Du        
  17128 ****        21.2500   0.0000  35.7500 Du        
  17129 ****        21.2500   0.0000  36.0000 Du        
  17130 ****        21.2500   0.0000  36.2500 Du        
  17131 ****        21.2500   0.0000  36.5000 Du        
  17132 ****        21.2500   0.0000  36.7500 Du        
  17133 ****        21.2500   0.0000  37.0000 Du        
  17134 ****        21.2500   0.0000  37.2500 Du        
  17135 ****        21.2500   0.2500  35.0000 Du        
  17136 ****        21.2500   0.2500  35.2500 Du        
  17137 ****        21.2500   0.2500  35.5000 Du        
  17138 ****        21.2500   0.2500  35.7500 Du        
  17139 ****        21.2500   0.2500  36.0000 Du        
  17140 ****        21.2500   0.2500  36.2500 Du        
  17141 ****        21.2500   0.2500  36.5000 Du        
  17142 ****        21.2500   0.2500  36.7500 Du        
  17143 ****        21.2500   0.2500  37.0000 Du        
  17144 ****        21.2500   0.2500  37.2500 Du        
  17145 ****        21.2500   0.5000  35.2500 Du        
  17146 ****        21.2500   0.5000  35.5000 Du        
  17147 ****        21.2500   0.5000  35.7500 Du        
  17148 ****        21.2500   0.5000  36.0000 Du        
  17149 ****        21.2500   0.5000  36.2500 Du        
  17150 ****        21.2500   0.5000  36.5000 Du        
  17151 ****        21.2500   0.5000  36.7500 Du        
  17152 ****        21.2500   0.5000  37.0000 Du        
  17153 ****        21.2500   0.5000  37.2500 Du        
  17154 ****        21.2500   0.5000  37.5000 Du        
  17155 ****        21.2500   0.7500  35.2500 Du        
  17156 ****        21.2500   0.7500  35.5000 Du        
  17157 ****        21.2500   0.7500  35.7500 Du        
  17158 ****        21.2500   0.7500  36.0000 Du        
  17159 ****        21.2500   0.7500  36.2500 Du        
  17160 ****        21.2500   0.7500  36.5000 Du        
  17161 ****        21.2500   0.7500  36.7500 Du        
  17162 ****        21.2500   0.7500  37.0000 Du        
  17163 ****        21.2500   0.7500  37.2500 Du        
  17164 ****        21.2500   0.7500  37.5000 Du        
  17165 ****        21.2500   1.0000  35.2500 Du        
  17166 ****        21.2500   1.0000  35.5000 Du        
  17167 ****        21.2500   1.0000  35.7500 Du        
  17168 ****        21.2500   1.0000  36.0000 Du        
  17169 ****        21.2500   1.0000  36.2500 Du        
  17170 ****        21.2500   1.0000  36.5000 Du        
  17171 ****        21.2500   1.0000  36.7500 Du        
  17172 ****        21.2500   1.0000  37.0000 Du        
  17173 ****        21.2500   1.0000  37.2500 Du        
  17174 ****        21.2500   1.0000  37.5000 Du        
  17175 ****        21.2500   1.2500  35.5000 Du        
  17176 ****        21.2500   1.2500  35.7500 Du        
  17177 ****        21.2500   1.2500  36.0000 Du        
  17178 ****        21.2500   6.5000  25.2500 Du        
  17179 ****        21.2500   6.7500  25.2500 Du        
  17180 ****        21.2500   6.7500  25.5000 Du        
  17181 ****        21.2500   7.0000  25.2500 Du        
  17182 ****        21.2500   7.0000  25.5000 Du        
  17183 ****        21.2500   8.7500  37.5000 Du        
  17184 ****        21.2500   8.7500  37.7500 Du        
  17185 ****        21.2500   9.0000  37.5000 Du        
  17186 ****        21.2500   9.0000  37.7500 Du        
  17187 ****        21.2500   9.0000  38.0000 Du        
  17188 ****        21.2500   9.0000  38.2500 Du        
  17189 ****        21.2500   9.0000  38.5000 Du        
  17190 ****        21.2500   9.0000  38.7500 Du        
  17191 ****        21.2500   9.2500  37.7500 Du        
  17192 ****        21.2500   9.2500  38.0000 Du        
  17193 ****        21.2500   9.2500  38.2500 Du        
  17194 ****        21.2500   9.2500  38.5000 Du        
  17195 ****        21.2500   9.2500  38.7500 Du        
  17196 ****        21.2500   9.2500  39.0000 Du        
  17197 ****        21.2500   9.5000  37.7500 Du        
  17198 ****        21.2500   9.5000  38.0000 Du        
  17199 ****        21.2500   9.5000  38.2500 Du        
  17200 ****        21.2500   9.5000  38.5000 Du        
  17201 ****        21.2500   9.5000  38.7500 Du        
  17202 ****        21.2500   9.5000  39.0000 Du        
  17203 ****        21.2500   9.7500  38.0000 Du        
  17204 ****        21.2500   9.7500  38.2500 Du        
  17205 ****        21.2500   9.7500  38.5000 Du        
  17206 ****        21.2500   9.7500  38.7500 Du        
  17207 ****        21.2500   9.7500  39.0000 Du        
  17208 ****        21.2500  10.0000  38.2500 Du        
  17209 ****        21.2500  10.0000  38.5000 Du        
  17210 ****        21.2500  10.0000  38.7500 Du        
  17211 ****        21.2500  12.5000  30.0000 Du        
  17212 ****        21.2500  12.7500  29.7500 Du        
  17213 ****        21.2500  12.7500  30.0000 Du        
  17214 ****        21.2500  12.7500  30.2500 Du        
  17215 ****        21.2500  12.7500  30.5000 Du        
  17216 ****        21.2500  12.7500  30.7500 Du        
  17217 ****        21.2500  13.0000  29.5000 Du        
  17218 ****        21.2500  13.0000  29.7500 Du        
  17219 ****        21.2500  13.0000  30.0000 Du        
  17220 ****        21.2500  13.0000  30.2500 Du        
  17221 ****        21.2500  13.0000  30.5000 Du        
  17222 ****        21.2500  13.0000  30.7500 Du        
  17223 ****        21.2500  13.0000  31.0000 Du        
  17224 ****        21.2500  13.2500  29.7500 Du        
  17225 ****        21.2500  13.2500  30.0000 Du        
  17226 ****        21.2500  13.2500  30.2500 Du        
  17227 ****        21.2500  13.2500  30.5000 Du        
  17228 ****        21.2500  13.2500  30.7500 Du        
  17229 ****        21.2500  13.2500  31.0000 Du        
  17230 ****        21.2500  13.5000  29.7500 Du        
  17231 ****        21.2500  13.5000  30.0000 Du        
  17232 ****        21.2500  13.5000  30.2500 Du        
  17233 ****        21.2500  13.5000  30.5000 Du        
  17234 ****        21.2500  13.5000  30.7500 Du        
  17235 ****        21.2500  13.5000  31.0000 Du        
  17236 ****        21.2500  13.5000  31.2500 Du        
  17237 ****        21.2500  13.7500  29.7500 Du        
  17238 ****        21.2500  13.7500  30.0000 Du        
  17239 ****        21.2500  13.7500  30.2500 Du        
  17240 ****        21.2500  13.7500  30.5000 Du        
  17241 ****        21.2500  13.7500  30.7500 Du        
  17242 ****        21.2500  13.7500  31.0000 Du        
  17243 ****        21.2500  13.7500  31.2500 Du        
  17244 ****        21.2500  14.0000  30.0000 Du        
  17245 ****        21.2500  14.0000  30.2500 Du        
  17246 ****        21.2500  14.0000  30.5000 Du        
  17247 ****        21.2500  14.0000  30.7500 Du        
  17248 ****        21.2500  14.0000  31.0000 Du        
  17249 ****        21.2500  14.0000  31.2500 Du        
  17250 ****        21.2500  14.0000  31.5000 Du        
  17251 ****        21.2500  14.2500  30.0000 Du        
  17252 ****        21.2500  14.2500  30.2500 Du        
  17253 ****        21.2500  14.2500  30.5000 Du        
  17254 ****        21.2500  14.2500  30.7500 Du        
  17255 ****        21.2500  14.2500  31.0000 Du        
  17256 ****        21.2500  14.2500  31.2500 Du        
  17257 ****        21.2500  14.2500  31.5000 Du        
  17258 ****        21.2500  14.5000  30.2500 Du        
  17259 ****        21.2500  14.5000  30.5000 Du        
  17260 ****        21.2500  14.5000  30.7500 Du        
  17261 ****        21.2500  14.5000  31.0000 Du        
  17262 ****        21.2500  14.5000  31.2500 Du        
  17263 ****        21.2500  14.5000  31.5000 Du        
  17264 ****        21.2500  14.5000  31.7500 Du        
  17265 ****        21.2500  14.5000  32.0000 Du        
  17266 ****        21.2500  14.7500  30.2500 Du        
  17267 ****        21.2500  14.7500  30.5000 Du        
  17268 ****        21.2500  14.7500  30.7500 Du        
  17269 ****        21.2500  14.7500  31.0000 Du        
  17270 ****        21.2500  14.7500  31.2500 Du        
  17271 ****        21.2500  14.7500  31.5000 Du        
  17272 ****        21.2500  14.7500  31.7500 Du        
  17273 ****        21.2500  14.7500  32.0000 Du        
  17274 ****        21.2500  15.0000  30.5000 Du        
  17275 ****        21.2500  15.0000  30.7500 Du        
  17276 ****        21.2500  15.0000  31.0000 Du        
  17277 ****        21.2500  15.0000  31.2500 Du        
  17278 ****        21.2500  15.0000  31.5000 Du        
  17279 ****        21.2500  15.0000  31.7500 Du        
  17280 ****        21.2500  15.0000  32.0000 Du        
  17281 ****        21.2500  15.0000  32.2500 Du        
  17282 ****        21.2500  15.2500  30.5000 Du        
  17283 ****        21.2500  15.2500  30.7500 Du        
  17284 ****        21.2500  15.2500  31.0000 Du        
  17285 ****        21.2500  15.2500  31.2500 Du        
  17286 ****        21.2500  15.2500  31.5000 Du        
  17287 ****        21.2500  15.2500  31.7500 Du        
  17288 ****        21.2500  15.2500  32.0000 Du        
  17289 ****        21.2500  15.2500  32.2500 Du        
  17290 ****        21.2500  15.5000  30.7500 Du        
  17291 ****        21.2500  15.5000  31.0000 Du        
  17292 ****        21.2500  15.5000  31.2500 Du        
  17293 ****        21.2500  15.5000  31.5000 Du        
  17294 ****        21.2500  15.5000  31.7500 Du        
  17295 ****        21.2500  15.5000  32.0000 Du        
  17296 ****        21.2500  15.5000  32.2500 Du        
  17297 ****        21.2500  15.7500  31.2500 Du        
  17298 ****        21.2500  15.7500  31.5000 Du        
  17299 ****        21.2500  15.7500  31.7500 Du        
  17300 ****        21.2500  15.7500  32.0000 Du        
  17301 ****        21.2500  15.7500  32.2500 Du        
  17302 ****        21.2500  16.0000  31.7500 Du        
  17303 ****        21.2500  16.0000  32.0000 Du        
  17304 ****        21.2500  16.0000  32.2500 Du        
  17305 ****        21.2500  16.0000  32.5000 Du        
  17306 ****        21.2500  16.2500  32.2500 Du        
  17307 ****        21.2500  18.2500  34.7500 Du        
  17308 ****        21.2500  18.2500  35.0000 Du        
  17309 ****        21.2500  18.5000  34.7500 Du        
  17310 ****        21.2500  18.5000  35.0000 Du        
  17311 ****        21.2500  18.5000  35.2500 Du        
  17312 ****        21.2500  18.5000  35.5000 Du        
  17313 ****        21.2500  18.5000  35.7500 Du        
  17314 ****        21.2500  18.7500  34.7500 Du        
  17315 ****        21.2500  18.7500  35.0000 Du        
  17316 ****        21.2500  18.7500  35.2500 Du        
  17317 ****        21.2500  18.7500  35.5000 Du        
  17318 ****        21.2500  18.7500  35.7500 Du        
  17319 ****        21.2500  19.0000  34.7500 Du        
  17320 ****        21.2500  19.0000  35.0000 Du        
  17321 ****        21.2500  19.0000  35.2500 Du        
  17322 ****        21.2500  19.0000  35.5000 Du        
  17323 ****        21.2500  19.0000  35.7500 Du        
  17324 ****        21.2500  19.0000  36.0000 Du        
  17325 ****        21.2500  19.2500  34.7500 Du        
  17326 ****        21.2500  19.2500  35.0000 Du        
  17327 ****        21.2500  19.2500  35.2500 Du        
  17328 ****        21.2500  19.2500  35.5000 Du        
  17329 ****        21.2500  19.2500  35.7500 Du        
  17330 ****        21.2500  19.2500  36.0000 Du        
  17331 ****        21.2500  19.5000  34.7500 Du        
  17332 ****        21.2500  19.5000  35.0000 Du        
  17333 ****        21.2500  19.5000  35.2500 Du        
  17334 ****        21.2500  19.5000  35.5000 Du        
  17335 ****        21.2500  19.5000  35.7500 Du        
  17336 ****        21.2500  19.5000  36.0000 Du        
  17337 ****        21.2500  19.7500  35.0000 Du        
  17338 ****        21.2500  19.7500  35.2500 Du        
  17339 ****        21.2500  19.7500  35.5000 Du        
  17340 ****        21.2500  19.7500  35.7500 Du        
  17341 ****        21.2500  20.0000  35.0000 Du        
  17342 ****        21.2500  20.0000  35.2500 Du        
  17343 ****        21.2500  20.0000  35.5000 Du        
  17344 ****        21.2500  20.2500  35.2500 Du        
  17345 ****        21.2500  23.2500  42.0000 Du        
  17346 ****        21.2500  23.5000  41.7500 Du        
  17347 ****        21.2500  23.5000  42.0000 Du        
  17348 ****        21.2500  23.7500  41.5000 Du        
  17349 ****        21.2500  23.7500  41.7500 Du        
  17350 ****        21.2500  23.7500  42.0000 Du        
  17351 ****        21.2500  23.7500  42.2500 Du        
  17352 ****        21.2500  24.0000  41.5000 Du        
  17353 ****        21.2500  24.0000  41.7500 Du        
  17354 ****        21.2500  24.0000  42.0000 Du        
  17355 ****        21.2500  24.0000  42.2500 Du        
  17356 ****        21.2500  24.2500  41.5000 Du        
  17357 ****        21.2500  24.2500  41.7500 Du        
  17358 ****        21.2500  24.2500  42.0000 Du        
  17359 ****        21.2500  24.2500  42.2500 Du        
  17360 ****        21.2500  24.2500  42.5000 Du        
  17361 ****        21.2500  24.5000  41.5000 Du        
  17362 ****        21.2500  24.5000  41.7500 Du        
  17363 ****        21.2500  24.5000  42.0000 Du        
  17364 ****        21.2500  24.5000  42.2500 Du        
  17365 ****        21.2500  24.5000  42.5000 Du        
  17366 ****        21.2500  24.7500  41.5000 Du        
  17367 ****        21.2500  25.0000  41.5000 Du        
  17368 ****        21.5000 -19.2500  42.7500 Du        
  17369 ****        21.5000 -19.2500  43.0000 Du        
  17370 ****        21.5000 -19.0000  42.5000 Du        
  17371 ****        21.5000 -19.0000  42.7500 Du        
  17372 ****        21.5000 -19.0000  43.0000 Du        
  17373 ****        21.5000 -18.7500  42.5000 Du        
  17374 ****        21.5000 -18.7500  42.7500 Du        
  17375 ****        21.5000 -18.7500  43.0000 Du        
  17376 ****        21.5000 -18.5000  42.5000 Du        
  17377 ****        21.5000 -18.5000  42.7500 Du        
  17378 ****        21.5000 -18.5000  43.0000 Du        
  17379 ****        21.5000 -18.2500  42.5000 Du        
  17380 ****        21.5000 -18.2500  42.7500 Du        
  17381 ****        21.5000 -18.0000  42.5000 Du        
  17382 ****        21.5000 -18.0000  42.7500 Du        
  17383 ****        21.5000 -17.7500  42.2500 Du        
  17384 ****        21.5000 -17.7500  42.5000 Du        
  17385 ****        21.5000 -17.7500  42.7500 Du        
  17386 ****        21.5000 -17.5000  42.2500 Du        
  17387 ****        21.5000 -17.5000  42.5000 Du        
  17388 ****        21.5000 -17.5000  42.7500 Du        
  17389 ****        21.5000 -17.2500  42.0000 Du        
  17390 ****        21.5000 -17.2500  42.2500 Du        
  17391 ****        21.5000 -17.2500  42.5000 Du        
  17392 ****        21.5000 -17.2500  42.7500 Du        
  17393 ****        21.5000 -17.0000  42.0000 Du        
  17394 ****        21.5000 -17.0000  42.2500 Du        
  17395 ****        21.5000 -17.0000  42.5000 Du        
  17396 ****        21.5000 -17.0000  42.7500 Du        
  17397 ****        21.5000 -16.7500  42.0000 Du        
  17398 ****        21.5000 -16.7500  42.2500 Du        
  17399 ****        21.5000 -16.7500  42.5000 Du        
  17400 ****        21.5000 -16.7500  42.7500 Du        
  17401 ****        21.5000 -16.5000  41.7500 Du        
  17402 ****        21.5000 -16.5000  42.0000 Du        
  17403 ****        21.5000 -16.5000  42.2500 Du        
  17404 ****        21.5000 -16.5000  42.5000 Du        
  17405 ****        21.5000 -16.5000  42.7500 Du        
  17406 ****        21.5000 -16.2500  34.5000 Du        
  17407 ****        21.5000 -16.2500  41.7500 Du        
  17408 ****        21.5000 -16.2500  42.0000 Du        
  17409 ****        21.5000 -16.2500  42.2500 Du        
  17410 ****        21.5000 -16.2500  42.5000 Du        
  17411 ****        21.5000 -16.2500  42.7500 Du        
  17412 ****        21.5000 -16.0000  34.2500 Du        
  17413 ****        21.5000 -16.0000  34.5000 Du        
  17414 ****        21.5000 -16.0000  34.7500 Du        
  17415 ****        21.5000 -16.0000  42.2500 Du        
  17416 ****        21.5000 -15.7500  34.0000 Du        
  17417 ****        21.5000 -15.7500  34.2500 Du        
  17418 ****        21.5000 -15.7500  34.5000 Du        
  17419 ****        21.5000 -15.7500  34.7500 Du        
  17420 ****        21.5000 -15.7500  35.0000 Du        
  17421 ****        21.5000 -15.5000  34.0000 Du        
  17422 ****        21.5000 -15.5000  34.2500 Du        
  17423 ****        21.5000 -15.5000  34.5000 Du        
  17424 ****        21.5000 -15.5000  34.7500 Du        
  17425 ****        21.5000 -15.5000  35.0000 Du        
  17426 ****        21.5000 -15.2500  34.0000 Du        
  17427 ****        21.5000 -15.2500  34.2500 Du        
  17428 ****        21.5000 -15.2500  34.5000 Du        
  17429 ****        21.5000 -15.2500  34.7500 Du        
  17430 ****        21.5000 -15.0000  34.5000 Du        
  17431 ****        21.5000  -6.0000  31.7500 Du        
  17432 ****        21.5000  -6.0000  32.0000 Du        
  17433 ****        21.5000  -6.0000  32.2500 Du        
  17434 ****        21.5000  -6.0000  32.5000 Du        
  17435 ****        21.5000  -5.7500  31.7500 Du        
  17436 ****        21.5000  -5.7500  32.0000 Du        
  17437 ****        21.5000  -5.7500  32.2500 Du        
  17438 ****        21.5000  -5.7500  32.5000 Du        
  17439 ****        21.5000  -5.7500  32.7500 Du        
  17440 ****        21.5000  -5.5000  31.7500 Du        
  17441 ****        21.5000  -5.5000  32.0000 Du        
  17442 ****        21.5000  -5.5000  32.2500 Du        
  17443 ****        21.5000  -5.5000  32.5000 Du        
  17444 ****        21.5000  -5.5000  32.7500 Du        
  17445 ****        21.5000  -5.2500  31.7500 Du        
  17446 ****        21.5000  -5.2500  32.0000 Du        
  17447 ****        21.5000  -5.2500  32.2500 Du        
  17448 ****        21.5000  -5.2500  32.5000 Du        
  17449 ****        21.5000  -5.2500  32.7500 Du        
  17450 ****        21.5000  -5.0000  32.0000 Du        
  17451 ****        21.5000  -5.0000  32.2500 Du        
  17452 ****        21.5000  -5.0000  32.5000 Du        
  17453 ****        21.5000  -5.0000  32.7500 Du        
  17454 ****        21.5000  -4.7500  32.0000 Du        
  17455 ****        21.5000  -4.7500  32.2500 Du        
  17456 ****        21.5000  -4.7500  32.5000 Du        
  17457 ****        21.5000  -4.7500  32.7500 Du        
  17458 ****        21.5000  -4.5000  32.5000 Du        
  17459 ****        21.5000  -4.5000  32.7500 Du        
  17460 ****        21.5000  -4.2500  32.5000 Du        
  17461 ****        21.5000  -4.2500  32.7500 Du        
  17462 ****        21.5000  -4.0000  32.5000 Du        
  17463 ****        21.5000  -4.0000  32.7500 Du        
  17464 ****        21.5000  -4.0000  33.0000 Du        
  17465 ****        21.5000  -3.7500  32.5000 Du        
  17466 ****        21.5000  -3.7500  32.7500 Du        
  17467 ****        21.5000  -3.7500  33.0000 Du        
  17468 ****        21.5000  -3.5000  32.5000 Du        
  17469 ****        21.5000  -3.5000  32.7500 Du        
  17470 ****        21.5000  -3.5000  33.0000 Du        
  17471 ****        21.5000  -3.2500  32.7500 Du        
  17472 ****        21.5000  -3.2500  33.0000 Du        
  17473 ****        21.5000  -3.2500  33.2500 Du        
  17474 ****        21.5000  -3.0000  32.7500 Du        
  17475 ****        21.5000  -3.0000  33.0000 Du        
  17476 ****        21.5000  -3.0000  33.2500 Du        
  17477 ****        21.5000  -3.0000  33.5000 Du        
  17478 ****        21.5000  -2.7500  32.7500 Du        
  17479 ****        21.5000  -2.7500  33.0000 Du        
  17480 ****        21.5000  -2.7500  33.2500 Du        
  17481 ****        21.5000  -2.7500  33.5000 Du        
  17482 ****        21.5000  -1.5000  35.5000 Du        
  17483 ****        21.5000  -1.5000  35.7500 Du        
  17484 ****        21.5000  -1.2500  34.5000 Du        
  17485 ****        21.5000  -1.2500  34.7500 Du        
  17486 ****        21.5000  -1.2500  35.0000 Du        
  17487 ****        21.5000  -1.2500  35.2500 Du        
  17488 ****        21.5000  -1.2500  35.5000 Du        
  17489 ****        21.5000  -1.2500  35.7500 Du        
  17490 ****        21.5000  -1.2500  36.0000 Du        
  17491 ****        21.5000  -1.2500  36.2500 Du        
  17492 ****        21.5000  -1.2500  36.5000 Du        
  17493 ****        21.5000  -1.2500  36.7500 Du        
  17494 ****        21.5000  -1.0000  34.5000 Du        
  17495 ****        21.5000  -1.0000  34.7500 Du        
  17496 ****        21.5000  -1.0000  35.0000 Du        
  17497 ****        21.5000  -1.0000  35.2500 Du        
  17498 ****        21.5000  -1.0000  35.5000 Du        
  17499 ****        21.5000  -1.0000  35.7500 Du        
  17500 ****        21.5000  -1.0000  36.0000 Du        
  17501 ****        21.5000  -1.0000  36.2500 Du        
  17502 ****        21.5000  -1.0000  36.5000 Du        
  17503 ****        21.5000  -1.0000  36.7500 Du        
  17504 ****        21.5000  -1.0000  37.0000 Du        
  17505 ****        21.5000  -0.7500  34.5000 Du        
  17506 ****        21.5000  -0.7500  34.7500 Du        
  17507 ****        21.5000  -0.7500  35.0000 Du        
  17508 ****        21.5000  -0.7500  35.2500 Du        
  17509 ****        21.5000  -0.7500  35.5000 Du        
  17510 ****        21.5000  -0.7500  35.7500 Du        
  17511 ****        21.5000  -0.7500  36.0000 Du        
  17512 ****        21.5000  -0.7500  36.2500 Du        
  17513 ****        21.5000  -0.7500  36.5000 Du        
  17514 ****        21.5000  -0.7500  36.7500 Du        
  17515 ****        21.5000  -0.7500  37.0000 Du        
  17516 ****        21.5000  -0.7500  37.2500 Du        
  17517 ****        21.5000  -0.5000  34.5000 Du        
  17518 ****        21.5000  -0.5000  34.7500 Du        
  17519 ****        21.5000  -0.5000  35.0000 Du        
  17520 ****        21.5000  -0.5000  35.2500 Du        
  17521 ****        21.5000  -0.5000  35.5000 Du        
  17522 ****        21.5000  -0.5000  35.7500 Du        
  17523 ****        21.5000  -0.5000  36.0000 Du        
  17524 ****        21.5000  -0.5000  36.2500 Du        
  17525 ****        21.5000  -0.5000  36.5000 Du        
  17526 ****        21.5000  -0.5000  36.7500 Du        
  17527 ****        21.5000  -0.5000  37.0000 Du        
  17528 ****        21.5000  -0.5000  37.2500 Du        
  17529 ****        21.5000  -0.2500  34.5000 Du        
  17530 ****        21.5000  -0.2500  34.7500 Du        
  17531 ****        21.5000  -0.2500  35.0000 Du        
  17532 ****        21.5000  -0.2500  35.2500 Du        
  17533 ****        21.5000  -0.2500  35.5000 Du        
  17534 ****        21.5000  -0.2500  35.7500 Du        
  17535 ****        21.5000  -0.2500  36.0000 Du        
  17536 ****        21.5000  -0.2500  36.2500 Du        
  17537 ****        21.5000  -0.2500  36.5000 Du        
  17538 ****        21.5000  -0.2500  36.7500 Du        
  17539 ****        21.5000  -0.2500  37.0000 Du        
  17540 ****        21.5000  -0.2500  37.2500 Du        
  17541 ****        21.5000   0.0000  34.5000 Du        
  17542 ****        21.5000   0.0000  34.7500 Du        
  17543 ****        21.5000   0.0000  35.0000 Du        
  17544 ****        21.5000   0.0000  35.2500 Du        
  17545 ****        21.5000   0.0000  35.5000 Du        
  17546 ****        21.5000   0.0000  35.7500 Du        
  17547 ****        21.5000   0.0000  36.0000 Du        
  17548 ****        21.5000   0.0000  36.2500 Du        
  17549 ****        21.5000   0.0000  36.5000 Du        
  17550 ****        21.5000   0.0000  36.7500 Du        
  17551 ****        21.5000   0.0000  37.0000 Du        
  17552 ****        21.5000   0.0000  37.2500 Du        
  17553 ****        21.5000   0.0000  37.5000 Du        
  17554 ****        21.5000   0.2500  34.7500 Du        
  17555 ****        21.5000   0.2500  35.0000 Du        
  17556 ****        21.5000   0.2500  35.2500 Du        
  17557 ****        21.5000   0.2500  35.5000 Du        
  17558 ****        21.5000   0.2500  35.7500 Du        
  17559 ****        21.5000   0.2500  36.0000 Du        
  17560 ****        21.5000   0.2500  36.2500 Du        
  17561 ****        21.5000   0.2500  36.5000 Du        
  17562 ****        21.5000   0.2500  36.7500 Du        
  17563 ****        21.5000   0.2500  37.0000 Du        
  17564 ****        21.5000   0.2500  37.2500 Du        
  17565 ****        21.5000   0.2500  37.5000 Du        
  17566 ****        21.5000   0.5000  35.0000 Du        
  17567 ****        21.5000   0.5000  35.2500 Du        
  17568 ****        21.5000   0.5000  35.5000 Du        
  17569 ****        21.5000   0.5000  35.7500 Du        
  17570 ****        21.5000   0.5000  36.0000 Du        
  17571 ****        21.5000   0.5000  36.2500 Du        
  17572 ****        21.5000   0.5000  36.5000 Du        
  17573 ****        21.5000   0.5000  36.7500 Du        
  17574 ****        21.5000   0.5000  37.0000 Du        
  17575 ****        21.5000   0.5000  37.2500 Du        
  17576 ****        21.5000   0.5000  37.5000 Du        
  17577 ****        21.5000   0.5000  37.7500 Du        
  17578 ****        21.5000   0.7500  35.0000 Du        
  17579 ****        21.5000   0.7500  35.2500 Du        
  17580 ****        21.5000   0.7500  35.5000 Du        
  17581 ****        21.5000   0.7500  35.7500 Du        
  17582 ****        21.5000   0.7500  36.0000 Du        
  17583 ****        21.5000   0.7500  36.2500 Du        
  17584 ****        21.5000   0.7500  36.5000 Du        
  17585 ****        21.5000   0.7500  36.7500 Du        
  17586 ****        21.5000   0.7500  37.0000 Du        
  17587 ****        21.5000   0.7500  37.2500 Du        
  17588 ****        21.5000   0.7500  37.5000 Du        
  17589 ****        21.5000   0.7500  37.7500 Du        
  17590 ****        21.5000   1.0000  35.2500 Du        
  17591 ****        21.5000   1.0000  35.5000 Du        
  17592 ****        21.5000   1.0000  35.7500 Du        
  17593 ****        21.5000   1.0000  36.0000 Du        
  17594 ****        21.5000   1.0000  36.2500 Du        
  17595 ****        21.5000   1.0000  36.5000 Du        
  17596 ****        21.5000   1.0000  36.7500 Du        
  17597 ****        21.5000   1.0000  37.0000 Du        
  17598 ****        21.5000   1.0000  37.2500 Du        
  17599 ****        21.5000   1.0000  37.5000 Du        
  17600 ****        21.5000   1.0000  37.7500 Du        
  17601 ****        21.5000   1.2500  35.2500 Du        
  17602 ****        21.5000   1.2500  35.5000 Du        
  17603 ****        21.5000   1.2500  35.7500 Du        
  17604 ****        21.5000   1.2500  36.0000 Du        
  17605 ****        21.5000   1.2500  36.2500 Du        
  17606 ****        21.5000   6.5000  25.0000 Du        
  17607 ****        21.5000   6.5000  25.2500 Du        
  17608 ****        21.5000   6.7500  25.0000 Du        
  17609 ****        21.5000   6.7500  25.2500 Du        
  17610 ****        21.5000   7.0000  25.0000 Du        
  17611 ****        21.5000   7.0000  25.2500 Du        
  17612 ****        21.5000   9.0000  37.7500 Du        
  17613 ****        21.5000   9.0000  38.0000 Du        
  17614 ****        21.5000   9.0000  38.2500 Du        
  17615 ****        21.5000   9.0000  38.5000 Du        
  17616 ****        21.5000   9.0000  38.7500 Du        
  17617 ****        21.5000   9.2500  37.7500 Du        
  17618 ****        21.5000   9.2500  38.0000 Du        
  17619 ****        21.5000   9.2500  38.2500 Du        
  17620 ****        21.5000   9.2500  38.5000 Du        
  17621 ****        21.5000   9.2500  38.7500 Du        
  17622 ****        21.5000   9.2500  39.0000 Du        
  17623 ****        21.5000   9.5000  38.2500 Du        
  17624 ****        21.5000   9.5000  38.5000 Du        
  17625 ****        21.5000   9.5000  38.7500 Du        
  17626 ****        21.5000   9.7500  38.5000 Du        
  17627 ****        21.5000   9.7500  38.7500 Du        
  17628 ****        21.5000  10.7500  28.2500 Du        
  17629 ****        21.5000  10.7500  28.5000 Du        
  17630 ****        21.5000  10.7500  28.7500 Du        
  17631 ****        21.5000  11.0000  28.5000 Du        
  17632 ****        21.5000  11.0000  28.7500 Du        
  17633 ****        21.5000  11.0000  29.0000 Du        
  17634 ****        21.5000  11.2500  28.7500 Du        
  17635 ****        21.5000  11.2500  29.0000 Du        
  17636 ****        21.5000  11.2500  29.2500 Du        
  17637 ****        21.5000  11.5000  28.7500 Du        
  17638 ****        21.5000  11.5000  29.0000 Du        
  17639 ****        21.5000  11.5000  29.2500 Du        
  17640 ****        21.5000  11.7500  28.7500 Du        
  17641 ****        21.5000  11.7500  29.0000 Du        
  17642 ****        21.5000  11.7500  29.2500 Du        
  17643 ****        21.5000  11.7500  29.5000 Du        
  17644 ****        21.5000  12.0000  28.7500 Du        
  17645 ****        21.5000  12.0000  29.0000 Du        
  17646 ****        21.5000  12.0000  29.2500 Du        
  17647 ****        21.5000  12.0000  29.5000 Du        
  17648 ****        21.5000  12.0000  29.7500 Du        
  17649 ****        21.5000  12.0000  30.0000 Du        
  17650 ****        21.5000  12.0000  30.2500 Du        
  17651 ****        21.5000  12.2500  29.0000 Du        
  17652 ****        21.5000  12.2500  29.2500 Du        
  17653 ****        21.5000  12.2500  29.5000 Du        
  17654 ****        21.5000  12.2500  29.7500 Du        
  17655 ****        21.5000  12.2500  30.0000 Du        
  17656 ****        21.5000  12.2500  30.2500 Du        
  17657 ****        21.5000  12.5000  29.0000 Du        
  17658 ****        21.5000  12.5000  29.2500 Du        
  17659 ****        21.5000  12.5000  29.5000 Du        
  17660 ****        21.5000  12.5000  29.7500 Du        
  17661 ****        21.5000  12.5000  30.0000 Du        
  17662 ****        21.5000  12.5000  30.2500 Du        
  17663 ****        21.5000  12.7500  29.2500 Du        
  17664 ****        21.5000  12.7500  29.5000 Du        
  17665 ****        21.5000  12.7500  29.7500 Du        
  17666 ****        21.5000  12.7500  30.0000 Du        
  17667 ****        21.5000  12.7500  30.2500 Du        
  17668 ****        21.5000  13.0000  29.2500 Du        
  17669 ****        21.5000  13.0000  29.5000 Du        
  17670 ****        21.5000  13.0000  29.7500 Du        
  17671 ****        21.5000  13.0000  30.0000 Du        
  17672 ****        21.5000  13.0000  30.2500 Du        
  17673 ****        21.5000  13.0000  30.5000 Du        
  17674 ****        21.5000  13.0000  30.7500 Du        
  17675 ****        21.5000  13.2500  29.5000 Du        
  17676 ****        21.5000  13.2500  29.7500 Du        
  17677 ****        21.5000  13.2500  30.0000 Du        
  17678 ****        21.5000  13.2500  30.2500 Du        
  17679 ****        21.5000  13.2500  30.5000 Du        
  17680 ****        21.5000  13.2500  30.7500 Du        
  17681 ****        21.5000  13.5000  29.7500 Du        
  17682 ****        21.5000  13.5000  30.0000 Du        
  17683 ****        21.5000  13.5000  30.2500 Du        
  17684 ****        21.5000  13.5000  30.5000 Du        
  17685 ****        21.5000  13.5000  30.7500 Du        
  17686 ****        21.5000  13.7500  29.7500 Du        
  17687 ****        21.5000  13.7500  30.0000 Du        
  17688 ****        21.5000  13.7500  30.2500 Du        
  17689 ****        21.5000  13.7500  30.5000 Du        
  17690 ****        21.5000  13.7500  30.7500 Du        
  17691 ****        21.5000  13.7500  31.0000 Du        
  17692 ****        21.5000  13.7500  31.2500 Du        
  17693 ****        21.5000  14.0000  29.7500 Du        
  17694 ****        21.5000  14.0000  30.0000 Du        
  17695 ****        21.5000  14.0000  30.2500 Du        
  17696 ****        21.5000  14.0000  30.5000 Du        
  17697 ****        21.5000  14.0000  30.7500 Du        
  17698 ****        21.5000  14.0000  31.0000 Du        
  17699 ****        21.5000  14.0000  31.2500 Du        
  17700 ****        21.5000  14.2500  30.0000 Du        
  17701 ****        21.5000  14.2500  30.2500 Du        
  17702 ****        21.5000  14.2500  30.5000 Du        
  17703 ****        21.5000  14.2500  30.7500 Du        
  17704 ****        21.5000  14.2500  31.0000 Du        
  17705 ****        21.5000  14.2500  31.2500 Du        
  17706 ****        21.5000  14.5000  30.0000 Du        
  17707 ****        21.5000  14.5000  30.2500 Du        
  17708 ****        21.5000  14.5000  30.5000 Du        
  17709 ****        21.5000  14.5000  30.7500 Du        
  17710 ****        21.5000  14.5000  31.0000 Du        
  17711 ****        21.5000  14.5000  31.2500 Du        
  17712 ****        21.5000  14.5000  31.5000 Du        
  17713 ****        21.5000  14.7500  30.2500 Du        
  17714 ****        21.5000  14.7500  30.5000 Du        
  17715 ****        21.5000  14.7500  30.7500 Du        
  17716 ****        21.5000  14.7500  31.0000 Du        
  17717 ****        21.5000  14.7500  31.2500 Du        
  17718 ****        21.5000  14.7500  31.5000 Du        
  17719 ****        21.5000  14.7500  31.7500 Du        
  17720 ****        21.5000  15.0000  30.2500 Du        
  17721 ****        21.5000  15.0000  30.5000 Du        
  17722 ****        21.5000  15.0000  30.7500 Du        
  17723 ****        21.5000  15.0000  31.0000 Du        
  17724 ****        21.5000  15.0000  31.2500 Du        
  17725 ****        21.5000  15.0000  31.5000 Du        
  17726 ****        21.5000  15.0000  31.7500 Du        
  17727 ****        21.5000  15.2500  30.2500 Du        
  17728 ****        21.5000  15.2500  30.5000 Du        
  17729 ****        21.5000  15.2500  30.7500 Du        
  17730 ****        21.5000  15.2500  31.0000 Du        
  17731 ****        21.5000  15.2500  31.2500 Du        
  17732 ****        21.5000  15.2500  31.5000 Du        
  17733 ****        21.5000  15.2500  31.7500 Du        
  17734 ****        21.5000  15.2500  32.0000 Du        
  17735 ****        21.5000  15.5000  30.5000 Du        
  17736 ****        21.5000  15.5000  30.7500 Du        
  17737 ****        21.5000  15.5000  31.0000 Du        
  17738 ****        21.5000  15.5000  31.2500 Du        
  17739 ****        21.5000  15.5000  31.5000 Du        
  17740 ****        21.5000  15.5000  31.7500 Du        
  17741 ****        21.5000  15.5000  32.0000 Du        
  17742 ****        21.5000  15.7500  31.0000 Du        
  17743 ****        21.5000  15.7500  31.2500 Du        
  17744 ****        21.5000  15.7500  31.5000 Du        
  17745 ****        21.5000  15.7500  31.7500 Du        
  17746 ****        21.5000  15.7500  32.0000 Du        
  17747 ****        21.5000  15.7500  32.2500 Du        
  17748 ****        21.5000  16.0000  31.7500 Du        
  17749 ****        21.5000  16.0000  32.0000 Du        
  17750 ****        21.5000  16.0000  32.2500 Du        
  17751 ****        21.5000  16.2500  32.0000 Du        
  17752 ****        21.5000  16.2500  32.2500 Du        
  17753 ****        21.5000  16.2500  32.5000 Du        
  17754 ****        21.5000  16.5000  32.2500 Du        
  17755 ****        21.5000  16.5000  32.5000 Du        
  17756 ****        21.5000  16.5000  32.7500 Du        
  17757 ****        21.5000  17.5000  33.7500 Du        
  17758 ****        21.5000  17.5000  34.0000 Du        
  17759 ****        21.5000  17.5000  34.2500 Du        
  17760 ****        21.5000  17.7500  34.0000 Du        
  17761 ****        21.5000  17.7500  34.2500 Du        
  17762 ****        21.5000  17.7500  34.5000 Du        
  17763 ****        21.5000  17.7500  34.7500 Du        
  17764 ****        21.5000  17.7500  35.0000 Du        
  17765 ****        21.5000  18.0000  34.2500 Du        
  17766 ****        21.5000  18.0000  34.5000 Du        
  17767 ****        21.5000  18.0000  34.7500 Du        
  17768 ****        21.5000  18.0000  35.0000 Du        
  17769 ****        21.5000  18.0000  35.2500 Du        
  17770 ****        21.5000  18.2500  34.2500 Du        
  17771 ****        21.5000  18.2500  34.5000 Du        
  17772 ****        21.5000  18.2500  34.7500 Du        
  17773 ****        21.5000  18.2500  35.0000 Du        
  17774 ****        21.5000  18.2500  35.2500 Du        
  17775 ****        21.5000  18.5000  34.2500 Du        
  17776 ****        21.5000  18.5000  34.5000 Du        
  17777 ****        21.5000  18.5000  34.7500 Du        
  17778 ****        21.5000  18.5000  35.0000 Du        
  17779 ****        21.5000  18.5000  35.2500 Du        
  17780 ****        21.5000  18.5000  35.5000 Du        
  17781 ****        21.5000  18.7500  34.5000 Du        
  17782 ****        21.5000  18.7500  34.7500 Du        
  17783 ****        21.5000  18.7500  35.0000 Du        
  17784 ****        21.5000  18.7500  35.2500 Du        
  17785 ****        21.5000  18.7500  35.5000 Du        
  17786 ****        21.5000  18.7500  35.7500 Du        
  17787 ****        21.5000  19.0000  34.5000 Du        
  17788 ****        21.5000  19.0000  34.7500 Du        
  17789 ****        21.5000  19.0000  35.0000 Du        
  17790 ****        21.5000  19.0000  35.2500 Du        
  17791 ****        21.5000  19.0000  35.5000 Du        
  17792 ****        21.5000  19.0000  35.7500 Du        
  17793 ****        21.5000  19.2500  34.5000 Du        
  17794 ****        21.5000  19.2500  34.7500 Du        
  17795 ****        21.5000  19.2500  35.0000 Du        
  17796 ****        21.5000  19.2500  35.2500 Du        
  17797 ****        21.5000  19.2500  35.5000 Du        
  17798 ****        21.5000  19.2500  35.7500 Du        
  17799 ****        21.5000  19.5000  34.5000 Du        
  17800 ****        21.5000  19.5000  34.7500 Du        
  17801 ****        21.5000  19.5000  35.0000 Du        
  17802 ****        21.5000  19.5000  35.2500 Du        
  17803 ****        21.5000  19.5000  35.5000 Du        
  17804 ****        21.5000  19.5000  35.7500 Du        
  17805 ****        21.5000  19.7500  34.7500 Du        
  17806 ****        21.5000  19.7500  35.0000 Du        
  17807 ****        21.5000  19.7500  35.2500 Du        
  17808 ****        21.5000  19.7500  35.5000 Du        
  17809 ****        21.5000  19.7500  35.7500 Du        
  17810 ****        21.5000  20.0000  34.7500 Du        
  17811 ****        21.5000  20.0000  35.0000 Du        
  17812 ****        21.5000  20.0000  35.2500 Du        
  17813 ****        21.5000  20.0000  35.5000 Du        
  17814 ****        21.5000  20.2500  35.0000 Du        
  17815 ****        21.5000  20.2500  35.2500 Du        
  17816 ****        21.5000  23.7500  41.7500 Du        
  17817 ****        21.5000  23.7500  42.0000 Du        
  17818 ****        21.5000  24.0000  41.5000 Du        
  17819 ****        21.5000  24.0000  41.7500 Du        
  17820 ****        21.5000  24.0000  42.0000 Du        
  17821 ****        21.5000  24.2500  41.5000 Du        
  17822 ****        21.5000  24.2500  41.7500 Du        
  17823 ****        21.5000  24.2500  42.0000 Du        
  17824 ****        21.5000  24.2500  42.2500 Du        
  17825 ****        21.5000  24.5000  41.5000 Du        
  17826 ****        21.5000  24.5000  41.7500 Du        
  17827 ****        21.5000  24.5000  42.0000 Du        
  17828 ****        21.5000  24.5000  42.2500 Du        
  17829 ****        21.5000  24.7500  41.5000 Du        
  17830 ****        21.5000  25.0000  41.5000 Du        
  17831 ****        21.7500 -19.5000  42.5000 Du        
  17832 ****        21.7500 -19.2500  42.5000 Du        
  17833 ****        21.7500 -19.2500  42.7500 Du        
  17834 ****        21.7500 -19.2500  43.0000 Du        
  17835 ****        21.7500 -19.2500  43.2500 Du        
  17836 ****        21.7500 -19.0000  42.5000 Du        
  17837 ****        21.7500 -19.0000  42.7500 Du        
  17838 ****        21.7500 -19.0000  43.0000 Du        
  17839 ****        21.7500 -18.7500  42.5000 Du        
  17840 ****        21.7500 -18.7500  42.7500 Du        
  17841 ****        21.7500 -18.7500  43.0000 Du        
  17842 ****        21.7500 -18.5000  42.5000 Du        
  17843 ****        21.7500 -18.5000  42.7500 Du        
  17844 ****        21.7500 -18.5000  43.0000 Du        
  17845 ****        21.7500 -18.2500  42.5000 Du        
  17846 ****        21.7500 -18.2500  42.7500 Du        
  17847 ****        21.7500 -18.0000  42.2500 Du        
  17848 ****        21.7500 -18.0000  42.5000 Du        
  17849 ****        21.7500 -18.0000  42.7500 Du        
  17850 ****        21.7500 -17.7500  42.2500 Du        
  17851 ****        21.7500 -17.7500  42.5000 Du        
  17852 ****        21.7500 -17.7500  42.7500 Du        
  17853 ****        21.7500 -17.5000  42.2500 Du        
  17854 ****        21.7500 -17.5000  42.5000 Du        
  17855 ****        21.7500 -17.5000  42.7500 Du        
  17856 ****        21.7500 -17.2500  42.0000 Du        
  17857 ****        21.7500 -17.2500  42.2500 Du        
  17858 ****        21.7500 -17.2500  42.5000 Du        
  17859 ****        21.7500 -17.2500  42.7500 Du        
  17860 ****        21.7500 -17.0000  42.0000 Du        
  17861 ****        21.7500 -17.0000  42.2500 Du        
  17862 ****        21.7500 -17.0000  42.5000 Du        
  17863 ****        21.7500 -17.0000  42.7500 Du        
  17864 ****        21.7500 -16.7500  42.0000 Du        
  17865 ****        21.7500 -16.7500  42.2500 Du        
  17866 ****        21.7500 -16.7500  42.5000 Du        
  17867 ****        21.7500 -16.7500  42.7500 Du        
  17868 ****        21.7500 -16.7500  43.0000 Du        
  17869 ****        21.7500 -16.5000  41.7500 Du        
  17870 ****        21.7500 -16.5000  42.0000 Du        
  17871 ****        21.7500 -16.5000  42.2500 Du        
  17872 ****        21.7500 -16.5000  42.5000 Du        
  17873 ****        21.7500 -16.5000  42.7500 Du        
  17874 ****        21.7500 -16.5000  43.0000 Du        
  17875 ****        21.7500 -16.2500  41.7500 Du        
  17876 ****        21.7500 -16.2500  42.0000 Du        
  17877 ****        21.7500 -16.2500  42.2500 Du        
  17878 ****        21.7500 -16.2500  42.5000 Du        
  17879 ****        21.7500 -16.2500  42.7500 Du        
  17880 ****        21.7500 -16.0000  42.0000 Du        
  17881 ****        21.7500 -16.0000  42.2500 Du        
  17882 ****        21.7500 -16.0000  42.5000 Du        
  17883 ****        21.7500 -16.0000  42.7500 Du        
  17884 ****        21.7500 -15.7500  34.5000 Du        
  17885 ****        21.7500 -15.5000  34.0000 Du        
  17886 ****        21.7500 -15.5000  34.5000 Du        
  17887 ****        21.7500 -15.2500  34.0000 Du        
  17888 ****        21.7500 -15.2500  34.2500 Du        
  17889 ****        21.7500 -15.2500  34.5000 Du        
  17890 ****        21.7500 -15.0000  34.0000 Du        
  17891 ****        21.7500 -15.0000  34.2500 Du        
  17892 ****        21.7500 -15.0000  34.5000 Du        
  17893 ****        21.7500  -6.2500  31.7500 Du        
  17894 ****        21.7500  -6.2500  32.0000 Du        
  17895 ****        21.7500  -6.0000  31.7500 Du        
  17896 ****        21.7500  -6.0000  32.0000 Du        
  17897 ****        21.7500  -6.0000  32.2500 Du        
  17898 ****        21.7500  -6.0000  32.5000 Du        
  17899 ****        21.7500  -6.0000  32.7500 Du        
  17900 ****        21.7500  -5.7500  31.7500 Du        
  17901 ****        21.7500  -5.7500  32.0000 Du        
  17902 ****        21.7500  -5.7500  32.2500 Du        
  17903 ****        21.7500  -5.7500  32.5000 Du        
  17904 ****        21.7500  -5.7500  32.7500 Du        
  17905 ****        21.7500  -5.5000  31.7500 Du        
  17906 ****        21.7500  -5.5000  32.0000 Du        
  17907 ****        21.7500  -5.5000  32.2500 Du        
  17908 ****        21.7500  -5.5000  32.5000 Du        
  17909 ****        21.7500  -5.5000  32.7500 Du        
  17910 ****        21.7500  -5.2500  31.7500 Du        
  17911 ****        21.7500  -5.2500  32.0000 Du        
  17912 ****        21.7500  -5.2500  32.2500 Du        
  17913 ****        21.7500  -5.2500  32.5000 Du        
  17914 ****        21.7500  -5.2500  32.7500 Du        
  17915 ****        21.7500  -5.2500  33.0000 Du        
  17916 ****        21.7500  -5.0000  32.0000 Du        
  17917 ****        21.7500  -5.0000  32.2500 Du        
  17918 ****        21.7500  -5.0000  32.5000 Du        
  17919 ****        21.7500  -5.0000  32.7500 Du        
  17920 ****        21.7500  -5.0000  33.0000 Du        
  17921 ****        21.7500  -4.7500  32.0000 Du        
  17922 ****        21.7500  -4.7500  32.2500 Du        
  17923 ****        21.7500  -4.7500  32.5000 Du        
  17924 ****        21.7500  -4.7500  32.7500 Du        
  17925 ****        21.7500  -4.7500  33.0000 Du        
  17926 ****        21.7500  -4.5000  32.5000 Du        
  17927 ****        21.7500  -4.5000  32.7500 Du        
  17928 ****        21.7500  -4.5000  33.0000 Du        
  17929 ****        21.7500  -4.2500  32.5000 Du        
  17930 ****        21.7500  -4.2500  32.7500 Du        
  17931 ****        21.7500  -4.2500  33.0000 Du        
  17932 ****        21.7500  -4.0000  32.5000 Du        
  17933 ****        21.7500  -4.0000  32.7500 Du        
  17934 ****        21.7500  -4.0000  33.0000 Du        
  17935 ****        21.7500  -3.7500  32.5000 Du        
  17936 ****        21.7500  -3.7500  32.7500 Du        
  17937 ****        21.7500  -3.7500  33.0000 Du        
  17938 ****        21.7500  -3.5000  32.7500 Du        
  17939 ****        21.7500  -3.5000  33.0000 Du        
  17940 ****        21.7500  -3.2500  32.7500 Du        
  17941 ****        21.7500  -3.2500  33.0000 Du        
  17942 ****        21.7500  -1.2500  35.5000 Du        
  17943 ****        21.7500  -1.2500  35.7500 Du        
  17944 ****        21.7500  -1.2500  36.0000 Du        
  17945 ****        21.7500  -1.2500  36.2500 Du        
  17946 ****        21.7500  -1.2500  36.5000 Du        
  17947 ****        21.7500  -1.2500  36.7500 Du        
  17948 ****        21.7500  -1.0000  34.5000 Du        
  17949 ****        21.7500  -1.0000  34.7500 Du        
  17950 ****        21.7500  -1.0000  35.0000 Du        
  17951 ****        21.7500  -1.0000  35.2500 Du        
  17952 ****        21.7500  -1.0000  35.5000 Du        
  17953 ****        21.7500  -1.0000  35.7500 Du        
  17954 ****        21.7500  -1.0000  36.0000 Du        
  17955 ****        21.7500  -1.0000  36.2500 Du        
  17956 ****        21.7500  -1.0000  36.5000 Du        
  17957 ****        21.7500  -1.0000  36.7500 Du        
  17958 ****        21.7500  -1.0000  37.0000 Du        
  17959 ****        21.7500  -1.0000  37.2500 Du        
  17960 ****        21.7500  -0.7500  34.5000 Du        
  17961 ****        21.7500  -0.7500  34.7500 Du        
  17962 ****        21.7500  -0.7500  35.0000 Du        
  17963 ****        21.7500  -0.7500  35.2500 Du        
  17964 ****        21.7500  -0.7500  35.5000 Du        
  17965 ****        21.7500  -0.7500  35.7500 Du        
  17966 ****        21.7500  -0.7500  36.0000 Du        
  17967 ****        21.7500  -0.7500  36.2500 Du        
  17968 ****        21.7500  -0.7500  36.5000 Du        
  17969 ****        21.7500  -0.7500  36.7500 Du        
  17970 ****        21.7500  -0.7500  37.0000 Du        
  17971 ****        21.7500  -0.7500  37.2500 Du        
  17972 ****        21.7500  -0.7500  37.5000 Du        
  17973 ****        21.7500  -0.5000  34.5000 Du        
  17974 ****        21.7500  -0.5000  34.7500 Du        
  17975 ****        21.7500  -0.5000  35.0000 Du        
  17976 ****        21.7500  -0.5000  35.2500 Du        
  17977 ****        21.7500  -0.5000  35.5000 Du        
  17978 ****        21.7500  -0.5000  35.7500 Du        
  17979 ****        21.7500  -0.5000  36.0000 Du        
  17980 ****        21.7500  -0.5000  36.2500 Du        
  17981 ****        21.7500  -0.5000  36.5000 Du        
  17982 ****        21.7500  -0.5000  36.7500 Du        
  17983 ****        21.7500  -0.5000  37.0000 Du        
  17984 ****        21.7500  -0.5000  37.2500 Du        
  17985 ****        21.7500  -0.5000  37.5000 Du        
  17986 ****        21.7500  -0.2500  34.5000 Du        
  17987 ****        21.7500  -0.2500  34.7500 Du        
  17988 ****        21.7500  -0.2500  35.0000 Du        
  17989 ****        21.7500  -0.2500  35.2500 Du        
  17990 ****        21.7500  -0.2500  35.5000 Du        
  17991 ****        21.7500  -0.2500  35.7500 Du        
  17992 ****        21.7500  -0.2500  36.0000 Du        
  17993 ****        21.7500  -0.2500  36.2500 Du        
  17994 ****        21.7500  -0.2500  36.5000 Du        
  17995 ****        21.7500  -0.2500  36.7500 Du        
  17996 ****        21.7500  -0.2500  37.0000 Du        
  17997 ****        21.7500  -0.2500  37.2500 Du        
  17998 ****        21.7500  -0.2500  37.5000 Du        
  17999 ****        21.7500   0.0000  34.5000 Du        
  18000 ****        21.7500   0.0000  34.7500 Du        
  18001 ****        21.7500   0.0000  35.0000 Du        
  18002 ****        21.7500   0.0000  35.2500 Du        
  18003 ****        21.7500   0.0000  35.5000 Du        
  18004 ****        21.7500   0.0000  35.7500 Du        
  18005 ****        21.7500   0.0000  36.0000 Du        
  18006 ****        21.7500   0.0000  36.2500 Du        
  18007 ****        21.7500   0.0000  36.5000 Du        
  18008 ****        21.7500   0.0000  36.7500 Du        
  18009 ****        21.7500   0.0000  37.0000 Du        
  18010 ****        21.7500   0.0000  37.2500 Du        
  18011 ****        21.7500   0.0000  37.5000 Du        
  18012 ****        21.7500   0.0000  37.7500 Du        
  18013 ****        21.7500   0.2500  34.7500 Du        
  18014 ****        21.7500   0.2500  35.0000 Du        
  18015 ****        21.7500   0.2500  35.2500 Du        
  18016 ****        21.7500   0.2500  35.5000 Du        
  18017 ****        21.7500   0.2500  35.7500 Du        
  18018 ****        21.7500   0.2500  36.0000 Du        
  18019 ****        21.7500   0.2500  36.2500 Du        
  18020 ****        21.7500   0.2500  36.5000 Du        
  18021 ****        21.7500   0.2500  36.7500 Du        
  18022 ****        21.7500   0.2500  37.0000 Du        
  18023 ****        21.7500   0.2500  37.2500 Du        
  18024 ****        21.7500   0.2500  37.5000 Du        
  18025 ****        21.7500   0.2500  37.7500 Du        
  18026 ****        21.7500   0.5000  34.7500 Du        
  18027 ****        21.7500   0.5000  35.0000 Du        
  18028 ****        21.7500   0.5000  35.2500 Du        
  18029 ****        21.7500   0.5000  35.5000 Du        
  18030 ****        21.7500   0.5000  35.7500 Du        
  18031 ****        21.7500   0.5000  36.0000 Du        
  18032 ****        21.7500   0.5000  36.2500 Du        
  18033 ****        21.7500   0.5000  36.5000 Du        
  18034 ****        21.7500   0.5000  36.7500 Du        
  18035 ****        21.7500   0.5000  37.0000 Du        
  18036 ****        21.7500   0.5000  37.2500 Du        
  18037 ****        21.7500   0.5000  37.5000 Du        
  18038 ****        21.7500   0.5000  37.7500 Du        
  18039 ****        21.7500   0.7500  34.7500 Du        
  18040 ****        21.7500   0.7500  35.0000 Du        
  18041 ****        21.7500   0.7500  35.2500 Du        
  18042 ****        21.7500   0.7500  35.5000 Du        
  18043 ****        21.7500   0.7500  35.7500 Du        
  18044 ****        21.7500   0.7500  36.0000 Du        
  18045 ****        21.7500   0.7500  36.2500 Du        
  18046 ****        21.7500   0.7500  36.5000 Du        
  18047 ****        21.7500   0.7500  36.7500 Du        
  18048 ****        21.7500   0.7500  37.0000 Du        
  18049 ****        21.7500   0.7500  37.2500 Du        
  18050 ****        21.7500   0.7500  37.5000 Du        
  18051 ****        21.7500   0.7500  37.7500 Du        
  18052 ****        21.7500   0.7500  38.0000 Du        
  18053 ****        21.7500   1.0000  35.0000 Du        
  18054 ****        21.7500   1.0000  35.2500 Du        
  18055 ****        21.7500   1.0000  35.5000 Du        
  18056 ****        21.7500   1.0000  35.7500 Du        
  18057 ****        21.7500   1.0000  36.0000 Du        
  18058 ****        21.7500   1.0000  36.2500 Du        
  18059 ****        21.7500   1.0000  36.5000 Du        
  18060 ****        21.7500   1.0000  36.7500 Du        
  18061 ****        21.7500   1.0000  37.0000 Du        
  18062 ****        21.7500   1.0000  37.2500 Du        
  18063 ****        21.7500   1.0000  37.5000 Du        
  18064 ****        21.7500   1.0000  37.7500 Du        
  18065 ****        21.7500   1.2500  35.2500 Du        
  18066 ****        21.7500   1.2500  35.5000 Du        
  18067 ****        21.7500   1.2500  35.7500 Du        
  18068 ****        21.7500   1.2500  36.0000 Du        
  18069 ****        21.7500   1.2500  36.2500 Du        
  18070 ****        21.7500   6.2500  24.7500 Du        
  18071 ****        21.7500   6.5000  24.7500 Du        
  18072 ****        21.7500   6.5000  25.0000 Du        
  18073 ****        21.7500   6.5000  25.2500 Du        
  18074 ****        21.7500   6.7500  25.0000 Du        
  18075 ****        21.7500   6.7500  25.2500 Du        
  18076 ****        21.7500   8.7500  37.7500 Du        
  18077 ****        21.7500   8.7500  38.0000 Du        
  18078 ****        21.7500   9.0000  37.7500 Du        
  18079 ****        21.7500   9.0000  38.0000 Du        
  18080 ****        21.7500   9.0000  38.2500 Du        
  18081 ****        21.7500   9.0000  38.5000 Du        
  18082 ****        21.7500   9.0000  38.7500 Du        
  18083 ****        21.7500   9.2500  37.7500 Du        
  18084 ****        21.7500   9.2500  38.0000 Du        
  18085 ****        21.7500   9.2500  38.2500 Du        
  18086 ****        21.7500   9.2500  38.5000 Du        
  18087 ****        21.7500   9.2500  38.7500 Du        
  18088 ****        21.7500   9.2500  39.0000 Du        
  18089 ****        21.7500   9.5000  38.5000 Du        
  18090 ****        21.7500  10.5000  28.5000 Du        
  18091 ****        21.7500  10.5000  28.7500 Du        
  18092 ****        21.7500  10.5000  29.0000 Du        
  18093 ****        21.7500  10.7500  28.2500 Du        
  18094 ****        21.7500  10.7500  28.5000 Du        
  18095 ****        21.7500  10.7500  28.7500 Du        
  18096 ****        21.7500  10.7500  29.0000 Du        
  18097 ****        21.7500  10.7500  29.2500 Du        
  18098 ****        21.7500  11.0000  28.2500 Du        
  18099 ****        21.7500  11.0000  28.5000 Du        
  18100 ****        21.7500  11.0000  28.7500 Du        
  18101 ****        21.7500  11.0000  29.0000 Du        
  18102 ****        21.7500  11.0000  29.2500 Du        
  18103 ****        21.7500  11.2500  28.5000 Du        
  18104 ****        21.7500  11.2500  28.7500 Du        
  18105 ****        21.7500  11.2500  29.0000 Du        
  18106 ****        21.7500  11.2500  29.2500 Du        
  18107 ****        21.7500  11.5000  28.5000 Du        
  18108 ****        21.7500  11.5000  28.7500 Du        
  18109 ****        21.7500  11.5000  29.0000 Du        
  18110 ****        21.7500  11.5000  29.2500 Du        
  18111 ****        21.7500  11.5000  29.5000 Du        
  18112 ****        21.7500  11.5000  29.7500 Du        
  18113 ****        21.7500  11.7500  28.5000 Du        
  18114 ****        21.7500  11.7500  28.7500 Du        
  18115 ****        21.7500  11.7500  29.0000 Du        
  18116 ****        21.7500  11.7500  29.2500 Du        
  18117 ****        21.7500  11.7500  29.5000 Du        
  18118 ****        21.7500  11.7500  29.7500 Du        
  18119 ****        21.7500  11.7500  30.0000 Du        
  18120 ****        21.7500  12.0000  28.7500 Du        
  18121 ****        21.7500  12.0000  29.0000 Du        
  18122 ****        21.7500  12.0000  29.2500 Du        
  18123 ****        21.7500  12.0000  29.5000 Du        
  18124 ****        21.7500  12.0000  29.7500 Du        
  18125 ****        21.7500  12.0000  30.0000 Du        
  18126 ****        21.7500  12.0000  30.2500 Du        
  18127 ****        21.7500  12.2500  29.0000 Du        
  18128 ****        21.7500  12.2500  29.2500 Du        
  18129 ****        21.7500  12.2500  29.5000 Du        
  18130 ****        21.7500  12.2500  29.7500 Du        
  18131 ****        21.7500  12.2500  30.0000 Du        
  18132 ****        21.7500  12.2500  30.2500 Du        
  18133 ****        21.7500  12.5000  29.0000 Du        
  18134 ****        21.7500  12.5000  29.2500 Du        
  18135 ****        21.7500  12.5000  29.5000 Du        
  18136 ****        21.7500  12.5000  29.7500 Du        
  18137 ****        21.7500  12.5000  30.0000 Du        
  18138 ****        21.7500  12.5000  30.2500 Du        
  18139 ****        21.7500  12.7500  29.2500 Du        
  18140 ****        21.7500  12.7500  29.5000 Du        
  18141 ****        21.7500  12.7500  29.7500 Du        
  18142 ****        21.7500  12.7500  30.0000 Du        
  18143 ****        21.7500  12.7500  30.2500 Du        
  18144 ****        21.7500  13.0000  29.2500 Du        
  18145 ****        21.7500  13.0000  29.5000 Du        
  18146 ****        21.7500  13.0000  29.7500 Du        
  18147 ****        21.7500  13.0000  30.0000 Du        
  18148 ****        21.7500  13.0000  30.2500 Du        
  18149 ****        21.7500  13.0000  30.5000 Du        
  18150 ****        21.7500  13.0000  30.7500 Du        
  18151 ****        21.7500  13.2500  29.5000 Du        
  18152 ****        21.7500  13.2500  29.7500 Du        
  18153 ****        21.7500  13.2500  30.0000 Du        
  18154 ****        21.7500  13.2500  30.2500 Du        
  18155 ****        21.7500  13.2500  30.5000 Du        
  18156 ****        21.7500  13.2500  30.7500 Du        
  18157 ****        21.7500  13.5000  29.5000 Du        
  18158 ****        21.7500  13.5000  29.7500 Du        
  18159 ****        21.7500  13.5000  30.0000 Du        
  18160 ****        21.7500  13.5000  30.2500 Du        
  18161 ****        21.7500  13.5000  30.5000 Du        
  18162 ****        21.7500  13.7500  29.7500 Du        
  18163 ****        21.7500  13.7500  30.0000 Du        
  18164 ****        21.7500  13.7500  30.2500 Du        
  18165 ****        21.7500  13.7500  30.5000 Du        
  18166 ****        21.7500  13.7500  30.7500 Du        
  18167 ****        21.7500  13.7500  31.0000 Du        
  18168 ****        21.7500  14.0000  29.7500 Du        
  18169 ****        21.7500  14.0000  30.0000 Du        
  18170 ****        21.7500  14.0000  30.2500 Du        
  18171 ****        21.7500  14.0000  30.5000 Du        
  18172 ****        21.7500  14.0000  30.7500 Du        
  18173 ****        21.7500  14.0000  31.0000 Du        
  18174 ****        21.7500  14.2500  29.7500 Du        
  18175 ****        21.7500  14.2500  30.0000 Du        
  18176 ****        21.7500  14.2500  30.2500 Du        
  18177 ****        21.7500  14.2500  30.5000 Du        
  18178 ****        21.7500  14.2500  30.7500 Du        
  18179 ****        21.7500  14.2500  31.0000 Du        
  18180 ****        21.7500  14.2500  31.2500 Du        
  18181 ****        21.7500  14.5000  30.0000 Du        
  18182 ****        21.7500  14.5000  30.2500 Du        
  18183 ****        21.7500  14.5000  30.5000 Du        
  18184 ****        21.7500  14.5000  30.7500 Du        
  18185 ****        21.7500  14.5000  31.0000 Du        
  18186 ****        21.7500  14.5000  31.2500 Du        
  18187 ****        21.7500  14.7500  30.0000 Du        
  18188 ****        21.7500  14.7500  30.2500 Du        
  18189 ****        21.7500  14.7500  30.5000 Du        
  18190 ****        21.7500  14.7500  30.7500 Du        
  18191 ****        21.7500  14.7500  31.0000 Du        
  18192 ****        21.7500  14.7500  31.2500 Du        
  18193 ****        21.7500  15.0000  30.0000 Du        
  18194 ****        21.7500  15.0000  30.2500 Du        
  18195 ****        21.7500  15.0000  30.5000 Du        
  18196 ****        21.7500  15.0000  30.7500 Du        
  18197 ****        21.7500  15.0000  31.0000 Du        
  18198 ****        21.7500  15.0000  31.2500 Du        
  18199 ****        21.7500  15.0000  31.5000 Du        
  18200 ****        21.7500  15.2500  30.0000 Du        
  18201 ****        21.7500  15.2500  30.2500 Du        
  18202 ****        21.7500  15.2500  30.5000 Du        
  18203 ****        21.7500  15.2500  30.7500 Du        
  18204 ****        21.7500  15.2500  31.0000 Du        
  18205 ****        21.7500  15.2500  31.2500 Du        
  18206 ****        21.7500  15.2500  31.5000 Du        
  18207 ****        21.7500  15.2500  31.7500 Du        
  18208 ****        21.7500  15.5000  30.2500 Du        
  18209 ****        21.7500  15.5000  30.5000 Du        
  18210 ****        21.7500  15.5000  30.7500 Du        
  18211 ****        21.7500  15.5000  31.0000 Du        
  18212 ****        21.7500  15.5000  31.2500 Du        
  18213 ****        21.7500  15.5000  31.5000 Du        
  18214 ****        21.7500  15.5000  31.7500 Du        
  18215 ****        21.7500  15.5000  32.0000 Du        
  18216 ****        21.7500  15.7500  30.7500 Du        
  18217 ****        21.7500  15.7500  31.0000 Du        
  18218 ****        21.7500  15.7500  31.2500 Du        
  18219 ****        21.7500  15.7500  31.5000 Du        
  18220 ****        21.7500  15.7500  31.7500 Du        
  18221 ****        21.7500  15.7500  32.0000 Du        
  18222 ****        21.7500  15.7500  32.2500 Du        
  18223 ****        21.7500  16.0000  31.0000 Du        
  18224 ****        21.7500  16.0000  31.2500 Du        
  18225 ****        21.7500  16.0000  31.5000 Du        
  18226 ****        21.7500  16.0000  31.7500 Du        
  18227 ****        21.7500  16.0000  32.0000 Du        
  18228 ****        21.7500  16.0000  32.2500 Du        
  18229 ****        21.7500  16.0000  32.5000 Du        
  18230 ****        21.7500  16.2500  31.7500 Du        
  18231 ****        21.7500  16.2500  32.0000 Du        
  18232 ****        21.7500  16.2500  32.2500 Du        
  18233 ****        21.7500  16.2500  32.5000 Du        
  18234 ****        21.7500  16.5000  32.0000 Du        
  18235 ****        21.7500  16.5000  32.2500 Du        
  18236 ****        21.7500  16.5000  32.5000 Du        
  18237 ****        21.7500  16.5000  32.7500 Du        
  18238 ****        21.7500  16.5000  33.0000 Du        
  18239 ****        21.7500  16.7500  32.2500 Du        
  18240 ****        21.7500  16.7500  32.5000 Du        
  18241 ****        21.7500  16.7500  32.7500 Du        
  18242 ****        21.7500  16.7500  33.0000 Du        
  18243 ****        21.7500  17.0000  32.7500 Du        
  18244 ****        21.7500  17.0000  33.0000 Du        
  18245 ****        21.7500  17.0000  33.2500 Du        
  18246 ****        21.7500  17.2500  33.7500 Du        
  18247 ****        21.7500  17.2500  34.0000 Du        
  18248 ****        21.7500  17.5000  33.5000 Du        
  18249 ****        21.7500  17.5000  33.7500 Du        
  18250 ****        21.7500  17.5000  34.0000 Du        
  18251 ****        21.7500  17.5000  34.2500 Du        
  18252 ****        21.7500  17.5000  34.5000 Du        
  18253 ****        21.7500  17.5000  34.7500 Du        
  18254 ****        21.7500  17.7500  33.7500 Du        
  18255 ****        21.7500  17.7500  34.0000 Du        
  18256 ****        21.7500  17.7500  34.2500 Du        
  18257 ****        21.7500  17.7500  34.5000 Du        
  18258 ****        21.7500  17.7500  34.7500 Du        
  18259 ****        21.7500  17.7500  35.0000 Du        
  18260 ****        21.7500  17.7500  35.2500 Du        
  18261 ****        21.7500  18.0000  34.0000 Du        
  18262 ****        21.7500  18.0000  34.2500 Du        
  18263 ****        21.7500  18.0000  34.5000 Du        
  18264 ****        21.7500  18.0000  34.7500 Du        
  18265 ****        21.7500  18.0000  35.0000 Du        
  18266 ****        21.7500  18.0000  35.2500 Du        
  18267 ****        21.7500  18.0000  35.5000 Du        
  18268 ****        21.7500  18.2500  34.0000 Du        
  18269 ****        21.7500  18.2500  34.2500 Du        
  18270 ****        21.7500  18.2500  34.5000 Du        
  18271 ****        21.7500  18.2500  34.7500 Du        
  18272 ****        21.7500  18.2500  35.0000 Du        
  18273 ****        21.7500  18.2500  35.2500 Du        
  18274 ****        21.7500  18.2500  35.5000 Du        
  18275 ****        21.7500  18.5000  34.2500 Du        
  18276 ****        21.7500  18.5000  34.5000 Du        
  18277 ****        21.7500  18.5000  34.7500 Du        
  18278 ****        21.7500  18.5000  35.0000 Du        
  18279 ****        21.7500  18.5000  35.2500 Du        
  18280 ****        21.7500  18.5000  35.5000 Du        
  18281 ****        21.7500  18.7500  34.2500 Du        
  18282 ****        21.7500  18.7500  34.5000 Du        
  18283 ****        21.7500  18.7500  34.7500 Du        
  18284 ****        21.7500  18.7500  35.0000 Du        
  18285 ****        21.7500  18.7500  35.2500 Du        
  18286 ****        21.7500  18.7500  35.5000 Du        
  18287 ****        21.7500  18.7500  35.7500 Du        
  18288 ****        21.7500  19.0000  34.2500 Du        
  18289 ****        21.7500  19.0000  34.5000 Du        
  18290 ****        21.7500  19.0000  34.7500 Du        
  18291 ****        21.7500  19.0000  35.0000 Du        
  18292 ****        21.7500  19.0000  35.2500 Du        
  18293 ****        21.7500  19.0000  35.5000 Du        
  18294 ****        21.7500  19.2500  34.2500 Du        
  18295 ****        21.7500  19.2500  34.5000 Du        
  18296 ****        21.7500  19.2500  34.7500 Du        
  18297 ****        21.7500  19.2500  35.0000 Du        
  18298 ****        21.7500  19.2500  35.2500 Du        
  18299 ****        21.7500  19.2500  35.5000 Du        
  18300 ****        21.7500  19.5000  34.2500 Du        
  18301 ****        21.7500  19.5000  34.5000 Du        
  18302 ****        21.7500  19.5000  34.7500 Du        
  18303 ****        21.7500  19.5000  35.0000 Du        
  18304 ****        21.7500  19.5000  35.2500 Du        
  18305 ****        21.7500  19.5000  35.5000 Du        
  18306 ****        21.7500  19.7500  34.2500 Du        
  18307 ****        21.7500  19.7500  34.5000 Du        
  18308 ****        21.7500  19.7500  34.7500 Du        
  18309 ****        21.7500  19.7500  35.0000 Du        
  18310 ****        21.7500  19.7500  35.2500 Du        
  18311 ****        21.7500  20.0000  34.5000 Du        
  18312 ****        21.7500  20.0000  34.7500 Du        
  18313 ****        21.7500  20.0000  35.0000 Du        
  18314 ****        21.7500  20.0000  35.2500 Du        
  18315 ****        21.7500  20.2500  34.5000 Du        
  18316 ****        21.7500  20.2500  34.7500 Du        
  18317 ****        21.7500  20.2500  35.0000 Du        
  18318 ****        21.7500  20.2500  35.2500 Du        
  18319 ****        21.7500  20.5000  34.7500 Du        
  18320 ****        21.7500  20.5000  35.0000 Du        
  18321 ****        21.7500  24.2500  41.7500 Du        
  18322 ****        21.7500  24.5000  41.5000 Du        
  18323 ****        21.7500  24.5000  41.7500 Du        
  18324 ****        22.0000 -19.7500  42.5000 Du        
  18325 ****        22.0000 -19.5000  42.5000 Du        
  18326 ****        22.0000 -19.2500  42.5000 Du        
  18327 ****        22.0000 -19.2500  42.7500 Du        
  18328 ****        22.0000 -19.2500  43.0000 Du        
  18329 ****        22.0000 -19.2500  43.2500 Du        
  18330 ****        22.0000 -19.0000  42.5000 Du        
  18331 ****        22.0000 -19.0000  42.7500 Du        
  18332 ****        22.0000 -19.0000  43.0000 Du        
  18333 ****        22.0000 -18.7500  42.5000 Du        
  18334 ****        22.0000 -18.7500  42.7500 Du        
  18335 ****        22.0000 -18.7500  43.0000 Du        
  18336 ****        22.0000 -18.5000  42.5000 Du        
  18337 ****        22.0000 -18.5000  42.7500 Du        
  18338 ****        22.0000 -18.5000  43.0000 Du        
  18339 ****        22.0000 -18.2500  42.2500 Du        
  18340 ****        22.0000 -18.2500  42.5000 Du        
  18341 ****        22.0000 -18.2500  42.7500 Du        
  18342 ****        22.0000 -18.2500  43.0000 Du        
  18343 ****        22.0000 -18.0000  42.2500 Du        
  18344 ****        22.0000 -18.0000  42.5000 Du        
  18345 ****        22.0000 -18.0000  42.7500 Du        
  18346 ****        22.0000 -17.7500  42.2500 Du        
  18347 ****        22.0000 -17.7500  42.5000 Du        
  18348 ****        22.0000 -17.7500  42.7500 Du        
  18349 ****        22.0000 -17.5000  42.2500 Du        
  18350 ****        22.0000 -17.5000  42.5000 Du        
  18351 ****        22.0000 -17.5000  42.7500 Du        
  18352 ****        22.0000 -17.2500  42.0000 Du        
  18353 ****        22.0000 -17.2500  42.2500 Du        
  18354 ****        22.0000 -17.2500  42.5000 Du        
  18355 ****        22.0000 -17.2500  42.7500 Du        
  18356 ****        22.0000 -17.0000  42.0000 Du        
  18357 ****        22.0000 -17.0000  42.2500 Du        
  18358 ****        22.0000 -17.0000  42.5000 Du        
  18359 ****        22.0000 -17.0000  42.7500 Du        
  18360 ****        22.0000 -17.0000  43.0000 Du        
  18361 ****        22.0000 -16.7500  41.7500 Du        
  18362 ****        22.0000 -16.7500  42.0000 Du        
  18363 ****        22.0000 -16.7500  42.2500 Du        
  18364 ****        22.0000 -16.7500  42.5000 Du        
  18365 ****        22.0000 -16.7500  42.7500 Du        
  18366 ****        22.0000 -16.7500  43.0000 Du        
  18367 ****        22.0000 -16.5000  41.7500 Du        
  18368 ****        22.0000 -16.5000  42.0000 Du        
  18369 ****        22.0000 -16.5000  42.2500 Du        
  18370 ****        22.0000 -16.5000  42.5000 Du        
  18371 ****        22.0000 -16.5000  42.7500 Du        
  18372 ****        22.0000 -16.5000  43.0000 Du        
  18373 ****        22.0000 -16.2500  41.7500 Du        
  18374 ****        22.0000 -16.2500  42.0000 Du        
  18375 ****        22.0000 -16.2500  42.2500 Du        
  18376 ****        22.0000 -16.2500  42.5000 Du        
  18377 ****        22.0000 -16.2500  42.7500 Du        
  18378 ****        22.0000 -16.2500  43.0000 Du        
  18379 ****        22.0000 -16.0000  42.0000 Du        
  18380 ****        22.0000 -16.0000  42.2500 Du        
  18381 ****        22.0000 -16.0000  42.5000 Du        
  18382 ****        22.0000 -16.0000  42.7500 Du        
  18383 ****        22.0000 -15.0000  34.0000 Du        
  18384 ****        22.0000  -6.2500  31.7500 Du        
  18385 ****        22.0000  -6.2500  32.0000 Du        
  18386 ****        22.0000  -6.2500  32.2500 Du        
  18387 ****        22.0000  -6.2500  32.5000 Du        
  18388 ****        22.0000  -6.2500  32.7500 Du        
  18389 ****        22.0000  -6.0000  31.7500 Du        
  18390 ****        22.0000  -6.0000  32.0000 Du        
  18391 ****        22.0000  -6.0000  32.2500 Du        
  18392 ****        22.0000  -6.0000  32.5000 Du        
  18393 ****        22.0000  -6.0000  32.7500 Du        
  18394 ****        22.0000  -5.7500  31.7500 Du        
  18395 ****        22.0000  -5.7500  32.0000 Du        
  18396 ****        22.0000  -5.7500  32.2500 Du        
  18397 ****        22.0000  -5.7500  32.5000 Du        
  18398 ****        22.0000  -5.7500  32.7500 Du        
  18399 ****        22.0000  -5.7500  33.0000 Du        
  18400 ****        22.0000  -5.5000  32.0000 Du        
  18401 ****        22.0000  -5.5000  32.2500 Du        
  18402 ****        22.0000  -5.5000  32.5000 Du        
  18403 ****        22.0000  -5.5000  32.7500 Du        
  18404 ****        22.0000  -5.5000  33.0000 Du        
  18405 ****        22.0000  -5.2500  31.7500 Du        
  18406 ****        22.0000  -5.2500  32.0000 Du        
  18407 ****        22.0000  -5.2500  32.2500 Du        
  18408 ****        22.0000  -5.2500  32.5000 Du        
  18409 ****        22.0000  -5.2500  32.7500 Du        
  18410 ****        22.0000  -5.2500  33.0000 Du        
  18411 ****        22.0000  -5.0000  32.0000 Du        
  18412 ****        22.0000  -5.0000  32.2500 Du        
  18413 ****        22.0000  -5.0000  32.5000 Du        
  18414 ****        22.0000  -5.0000  32.7500 Du        
  18415 ****        22.0000  -5.0000  33.0000 Du        
  18416 ****        22.0000  -4.7500  32.2500 Du        
  18417 ****        22.0000  -4.7500  32.5000 Du        
  18418 ****        22.0000  -4.7500  32.7500 Du        
  18419 ****        22.0000  -4.7500  33.0000 Du        
  18420 ****        22.0000  -4.5000  32.5000 Du        
  18421 ****        22.0000  -4.5000  32.7500 Du        
  18422 ****        22.0000  -4.5000  33.0000 Du        
  18423 ****        22.0000  -4.2500  32.5000 Du        
  18424 ****        22.0000  -4.2500  32.7500 Du        
  18425 ****        22.0000  -4.0000  32.5000 Du        
  18426 ****        22.0000  -4.0000  32.7500 Du        
  18427 ****        22.0000  -4.0000  33.0000 Du        
  18428 ****        22.0000  -3.7500  32.7500 Du        
  18429 ****        22.0000  -1.0000  35.7500 Du        
  18430 ****        22.0000  -1.0000  36.0000 Du        
  18431 ****        22.0000  -1.0000  36.2500 Du        
  18432 ****        22.0000  -1.0000  36.5000 Du        
  18433 ****        22.0000  -1.0000  36.7500 Du        
  18434 ****        22.0000  -1.0000  37.0000 Du        
  18435 ****        22.0000  -1.0000  37.2500 Du        
  18436 ****        22.0000  -1.0000  37.5000 Du        
  18437 ****        22.0000  -0.7500  35.0000 Du        
  18438 ****        22.0000  -0.7500  35.2500 Du        
  18439 ****        22.0000  -0.7500  35.5000 Du        
  18440 ****        22.0000  -0.7500  35.7500 Du        
  18441 ****        22.0000  -0.7500  36.0000 Du        
  18442 ****        22.0000  -0.7500  36.2500 Du        
  18443 ****        22.0000  -0.7500  36.5000 Du        
  18444 ****        22.0000  -0.7500  36.7500 Du        
  18445 ****        22.0000  -0.7500  37.0000 Du        
  18446 ****        22.0000  -0.7500  37.2500 Du        
  18447 ****        22.0000  -0.7500  37.5000 Du        
  18448 ****        22.0000  -0.7500  37.7500 Du        
  18449 ****        22.0000  -0.5000  34.5000 Du        
  18450 ****        22.0000  -0.5000  34.7500 Du        
  18451 ****        22.0000  -0.5000  35.0000 Du        
  18452 ****        22.0000  -0.5000  35.2500 Du        
  18453 ****        22.0000  -0.5000  35.5000 Du        
  18454 ****        22.0000  -0.5000  35.7500 Du        
  18455 ****        22.0000  -0.5000  36.0000 Du        
  18456 ****        22.0000  -0.5000  36.2500 Du        
  18457 ****        22.0000  -0.5000  36.5000 Du        
  18458 ****        22.0000  -0.5000  36.7500 Du        
  18459 ****        22.0000  -0.5000  37.0000 Du        
  18460 ****        22.0000  -0.5000  37.2500 Du        
  18461 ****        22.0000  -0.5000  37.5000 Du        
  18462 ****        22.0000  -0.5000  37.7500 Du        
  18463 ****        22.0000  -0.2500  34.5000 Du        
  18464 ****        22.0000  -0.2500  34.7500 Du        
  18465 ****        22.0000  -0.2500  35.0000 Du        
  18466 ****        22.0000  -0.2500  35.2500 Du        
  18467 ****        22.0000  -0.2500  35.5000 Du        
  18468 ****        22.0000  -0.2500  35.7500 Du        
  18469 ****        22.0000  -0.2500  36.0000 Du        
  18470 ****        22.0000  -0.2500  36.2500 Du        
  18471 ****        22.0000  -0.2500  36.5000 Du        
  18472 ****        22.0000  -0.2500  36.7500 Du        
  18473 ****        22.0000  -0.2500  37.0000 Du        
  18474 ****        22.0000  -0.2500  37.2500 Du        
  18475 ****        22.0000  -0.2500  37.5000 Du        
  18476 ****        22.0000  -0.2500  37.7500 Du        
  18477 ****        22.0000   0.0000  34.5000 Du        
  18478 ****        22.0000   0.0000  34.7500 Du        
  18479 ****        22.0000   0.0000  35.0000 Du        
  18480 ****        22.0000   0.0000  35.2500 Du        
  18481 ****        22.0000   0.0000  35.5000 Du        
  18482 ****        22.0000   0.0000  35.7500 Du        
  18483 ****        22.0000   0.0000  36.0000 Du        
  18484 ****        22.0000   0.0000  36.2500 Du        
  18485 ****        22.0000   0.0000  36.5000 Du        
  18486 ****        22.0000   0.0000  36.7500 Du        
  18487 ****        22.0000   0.0000  37.0000 Du        
  18488 ****        22.0000   0.0000  37.2500 Du        
  18489 ****        22.0000   0.0000  37.5000 Du        
  18490 ****        22.0000   0.0000  37.7500 Du        
  18491 ****        22.0000   0.0000  38.0000 Du        
  18492 ****        22.0000   0.2500  34.7500 Du        
  18493 ****        22.0000   0.2500  35.0000 Du        
  18494 ****        22.0000   0.2500  35.2500 Du        
  18495 ****        22.0000   0.2500  35.5000 Du        
  18496 ****        22.0000   0.2500  35.7500 Du        
  18497 ****        22.0000   0.2500  36.0000 Du        
  18498 ****        22.0000   0.2500  36.2500 Du        
  18499 ****        22.0000   0.2500  36.5000 Du        
  18500 ****        22.0000   0.2500  36.7500 Du        
  18501 ****        22.0000   0.2500  37.0000 Du        
  18502 ****        22.0000   0.2500  37.2500 Du        
  18503 ****        22.0000   0.2500  37.5000 Du        
  18504 ****        22.0000   0.2500  37.7500 Du        
  18505 ****        22.0000   0.2500  38.0000 Du        
  18506 ****        22.0000   0.5000  34.7500 Du        
  18507 ****        22.0000   0.5000  35.0000 Du        
  18508 ****        22.0000   0.5000  35.2500 Du        
  18509 ****        22.0000   0.5000  35.5000 Du        
  18510 ****        22.0000   0.5000  35.7500 Du        
  18511 ****        22.0000   0.5000  36.0000 Du        
  18512 ****        22.0000   0.5000  36.2500 Du        
  18513 ****        22.0000   0.5000  36.5000 Du        
  18514 ****        22.0000   0.5000  36.7500 Du        
  18515 ****        22.0000   0.5000  37.0000 Du        
  18516 ****        22.0000   0.5000  37.2500 Du        
  18517 ****        22.0000   0.5000  37.5000 Du        
  18518 ****        22.0000   0.5000  37.7500 Du        
  18519 ****        22.0000   0.5000  38.0000 Du        
  18520 ****        22.0000   0.7500  35.0000 Du        
  18521 ****        22.0000   0.7500  35.2500 Du        
  18522 ****        22.0000   0.7500  35.5000 Du        
  18523 ****        22.0000   0.7500  35.7500 Du        
  18524 ****        22.0000   0.7500  36.0000 Du        
  18525 ****        22.0000   0.7500  36.2500 Du        
  18526 ****        22.0000   0.7500  36.5000 Du        
  18527 ****        22.0000   0.7500  36.7500 Du        
  18528 ****        22.0000   0.7500  37.0000 Du        
  18529 ****        22.0000   0.7500  37.2500 Du        
  18530 ****        22.0000   0.7500  37.5000 Du        
  18531 ****        22.0000   0.7500  37.7500 Du        
  18532 ****        22.0000   1.0000  35.0000 Du        
  18533 ****        22.0000   1.0000  35.2500 Du        
  18534 ****        22.0000   1.0000  35.5000 Du        
  18535 ****        22.0000   1.0000  35.7500 Du        
  18536 ****        22.0000   1.0000  36.0000 Du        
  18537 ****        22.0000   1.2500  35.5000 Du        
  18538 ****        22.0000   6.0000  24.5000 Du        
  18539 ****        22.0000   6.0000  24.7500 Du        
  18540 ****        22.0000   6.0000  25.0000 Du        
  18541 ****        22.0000   6.2500  24.7500 Du        
  18542 ****        22.0000   6.2500  25.0000 Du        
  18543 ****        22.0000   6.2500  25.2500 Du        
  18544 ****        22.0000   6.5000  24.7500 Du        
  18545 ****        22.0000   6.5000  25.0000 Du        
  18546 ****        22.0000   6.5000  25.2500 Du        
  18547 ****        22.0000   6.7500  24.7500 Du        
  18548 ****        22.0000   6.7500  25.0000 Du        
  18549 ****        22.0000   6.7500  25.2500 Du        
  18550 ****        22.0000   8.7500  38.0000 Du        
  18551 ****        22.0000   9.0000  38.0000 Du        
  18552 ****        22.0000   9.0000  38.2500 Du        
  18553 ****        22.0000   9.0000  38.5000 Du        
  18554 ****        22.0000   9.0000  38.7500 Du        
  18555 ****        22.0000   9.2500  38.0000 Du        
  18556 ****        22.0000   9.2500  38.2500 Du        
  18557 ****        22.0000   9.2500  38.5000 Du        
  18558 ****        22.0000   9.2500  38.7500 Du        
  18559 ****        22.0000  10.5000  28.2500 Du        
  18560 ****        22.0000  10.5000  28.7500 Du        
  18561 ****        22.0000  10.5000  29.0000 Du        
  18562 ****        22.0000  10.7500  28.5000 Du        
  18563 ****        22.0000  10.7500  28.7500 Du        
  18564 ****        22.0000  10.7500  29.0000 Du        
  18565 ****        22.0000  10.7500  29.2500 Du        
  18566 ****        22.0000  11.0000  28.5000 Du        
  18567 ****        22.0000  11.0000  28.7500 Du        
  18568 ****        22.0000  11.0000  29.0000 Du        
  18569 ****        22.0000  11.0000  29.2500 Du        
  18570 ****        22.0000  11.2500  28.5000 Du        
  18571 ****        22.0000  11.2500  28.7500 Du        
  18572 ****        22.0000  11.2500  29.0000 Du        
  18573 ****        22.0000  11.2500  29.2500 Du        
  18574 ****        22.0000  11.2500  29.5000 Du        
  18575 ****        22.0000  11.5000  28.5000 Du        
  18576 ****        22.0000  11.5000  28.7500 Du        
  18577 ****        22.0000  11.5000  29.0000 Du        
  18578 ****        22.0000  11.5000  29.2500 Du        
  18579 ****        22.0000  11.5000  29.5000 Du        
  18580 ****        22.0000  11.5000  29.7500 Du        
  18581 ****        22.0000  11.7500  28.7500 Du        
  18582 ****        22.0000  11.7500  29.0000 Du        
  18583 ****        22.0000  11.7500  29.2500 Du        
  18584 ****        22.0000  11.7500  29.5000 Du        
  18585 ****        22.0000  11.7500  29.7500 Du        
  18586 ****        22.0000  11.7500  30.0000 Du        
  18587 ****        22.0000  12.0000  28.7500 Du        
  18588 ****        22.0000  12.0000  29.0000 Du        
  18589 ****        22.0000  12.0000  29.2500 Du        
  18590 ****        22.0000  12.0000  29.5000 Du        
  18591 ****        22.0000  12.0000  29.7500 Du        
  18592 ****        22.0000  12.0000  30.0000 Du        
  18593 ****        22.0000  12.0000  30.2500 Du        
  18594 ****        22.0000  12.2500  29.0000 Du        
  18595 ****        22.0000  12.2500  29.2500 Du        
  18596 ****        22.0000  12.2500  29.5000 Du        
  18597 ****        22.0000  12.2500  29.7500 Du        
  18598 ****        22.0000  12.2500  30.0000 Du        
  18599 ****        22.0000  12.2500  30.2500 Du        
  18600 ****        22.0000  12.5000  29.0000 Du        
  18601 ****        22.0000  12.5000  29.2500 Du        
  18602 ****        22.0000  12.5000  29.5000 Du        
  18603 ****        22.0000  12.5000  29.7500 Du        
  18604 ****        22.0000  12.5000  30.0000 Du        
  18605 ****        22.0000  12.5000  30.2500 Du        
  18606 ****        22.0000  12.7500  29.2500 Du        
  18607 ****        22.0000  12.7500  29.5000 Du        
  18608 ****        22.0000  12.7500  29.7500 Du        
  18609 ****        22.0000  12.7500  30.0000 Du        
  18610 ****        22.0000  12.7500  30.2500 Du        
  18611 ****        22.0000  13.0000  29.5000 Du        
  18612 ****        22.0000  13.0000  29.7500 Du        
  18613 ****        22.0000  13.0000  30.0000 Du        
  18614 ****        22.0000  13.0000  30.2500 Du        
  18615 ****        22.0000  13.2500  29.5000 Du        
  18616 ****        22.0000  13.2500  29.7500 Du        
  18617 ****        22.0000  13.2500  30.0000 Du        
  18618 ****        22.0000  13.2500  30.2500 Du        
  18619 ****        22.0000  13.5000  29.7500 Du        
  18620 ****        22.0000  13.5000  30.0000 Du        
  18621 ****        22.0000  13.5000  30.2500 Du        
  18622 ****        22.0000  13.7500  29.7500 Du        
  18623 ****        22.0000  13.7500  30.0000 Du        
  18624 ****        22.0000  13.7500  30.2500 Du        
  18625 ****        22.0000  13.7500  30.5000 Du        
  18626 ****        22.0000  14.0000  29.7500 Du        
  18627 ****        22.0000  14.0000  30.0000 Du        
  18628 ****        22.0000  14.0000  30.2500 Du        
  18629 ****        22.0000  14.0000  30.5000 Du        
  18630 ****        22.0000  14.2500  29.7500 Du        
  18631 ****        22.0000  14.2500  30.0000 Du        
  18632 ****        22.0000  14.2500  30.2500 Du        
  18633 ****        22.0000  14.2500  30.5000 Du        
  18634 ****        22.0000  14.5000  29.7500 Du        
  18635 ****        22.0000  14.5000  30.0000 Du        
  18636 ****        22.0000  14.5000  30.2500 Du        
  18637 ****        22.0000  14.5000  30.5000 Du        
  18638 ****        22.0000  14.5000  30.7500 Du        
  18639 ****        22.0000  14.7500  29.7500 Du        
  18640 ****        22.0000  14.7500  30.0000 Du        
  18641 ****        22.0000  14.7500  30.2500 Du        
  18642 ****        22.0000  14.7500  30.5000 Du        
  18643 ****        22.0000  14.7500  30.7500 Du        
  18644 ****        22.0000  14.7500  31.0000 Du        
  18645 ****        22.0000  15.0000  29.7500 Du        
  18646 ****        22.0000  15.0000  30.0000 Du        
  18647 ****        22.0000  15.0000  30.2500 Du        
  18648 ****        22.0000  15.0000  30.5000 Du        
  18649 ****        22.0000  15.0000  30.7500 Du        
  18650 ****        22.0000  15.0000  31.0000 Du        
  18651 ****        22.0000  15.2500  30.0000 Du        
  18652 ****        22.0000  15.2500  30.2500 Du        
  18653 ****        22.0000  15.2500  30.5000 Du        
  18654 ****        22.0000  15.2500  30.7500 Du        
  18655 ****        22.0000  15.2500  31.0000 Du        
  18656 ****        22.0000  15.2500  31.2500 Du        
  18657 ****        22.0000  15.5000  30.0000 Du        
  18658 ****        22.0000  15.5000  30.2500 Du        
  18659 ****        22.0000  15.5000  30.5000 Du        
  18660 ****        22.0000  15.5000  30.7500 Du        
  18661 ****        22.0000  15.5000  31.0000 Du        
  18662 ****        22.0000  15.5000  31.2500 Du        
  18663 ****        22.0000  15.5000  31.5000 Du        
  18664 ****        22.0000  15.7500  30.5000 Du        
  18665 ****        22.0000  15.7500  30.7500 Du        
  18666 ****        22.0000  15.7500  31.0000 Du        
  18667 ****        22.0000  15.7500  31.2500 Du        
  18668 ****        22.0000  15.7500  31.5000 Du        
  18669 ****        22.0000  15.7500  31.7500 Du        
  18670 ****        22.0000  15.7500  32.0000 Du        
  18671 ****        22.0000  16.0000  31.0000 Du        
  18672 ****        22.0000  16.0000  31.2500 Du        
  18673 ****        22.0000  16.0000  31.5000 Du        
  18674 ****        22.0000  16.0000  31.7500 Du        
  18675 ****        22.0000  16.0000  32.0000 Du        
  18676 ****        22.0000  16.0000  32.2500 Du        
  18677 ****        22.0000  16.2500  31.2500 Du        
  18678 ****        22.0000  16.2500  31.5000 Du        
  18679 ****        22.0000  16.2500  31.7500 Du        
  18680 ****        22.0000  16.2500  32.0000 Du        
  18681 ****        22.0000  16.2500  32.2500 Du        
  18682 ****        22.0000  16.5000  31.7500 Du        
  18683 ****        22.0000  16.5000  32.0000 Du        
  18684 ****        22.0000  16.5000  32.2500 Du        
  18685 ****        22.0000  16.5000  32.5000 Du        
  18686 ****        22.0000  16.5000  32.7500 Du        
  18687 ****        22.0000  16.7500  31.7500 Du        
  18688 ****        22.0000  16.7500  32.0000 Du        
  18689 ****        22.0000  16.7500  32.2500 Du        
  18690 ****        22.0000  16.7500  32.5000 Du        
  18691 ****        22.0000  16.7500  32.7500 Du        
  18692 ****        22.0000  16.7500  33.0000 Du        
  18693 ****        22.0000  17.0000  32.2500 Du        
  18694 ****        22.0000  17.0000  32.5000 Du        
  18695 ****        22.0000  17.0000  32.7500 Du        
  18696 ****        22.0000  17.0000  33.0000 Du        
  18697 ****        22.0000  17.0000  33.2500 Du        
  18698 ****        22.0000  17.0000  33.5000 Du        
  18699 ****        22.0000  17.0000  33.7500 Du        
  18700 ****        22.0000  17.0000  34.0000 Du        
  18701 ****        22.0000  17.2500  32.7500 Du        
  18702 ****        22.0000  17.2500  33.0000 Du        
  18703 ****        22.0000  17.2500  33.2500 Du        
  18704 ****        22.0000  17.2500  33.5000 Du        
  18705 ****        22.0000  17.2500  33.7500 Du        
  18706 ****        22.0000  17.2500  34.0000 Du        
  18707 ****        22.0000  17.2500  34.2500 Du        
  18708 ****        22.0000  17.5000  33.0000 Du        
  18709 ****        22.0000  17.5000  33.2500 Du        
  18710 ****        22.0000  17.5000  33.5000 Du        
  18711 ****        22.0000  17.5000  33.7500 Du        
  18712 ****        22.0000  17.5000  34.0000 Du        
  18713 ****        22.0000  17.5000  34.2500 Du        
  18714 ****        22.0000  17.5000  34.5000 Du        
  18715 ****        22.0000  17.5000  34.7500 Du        
  18716 ****        22.0000  17.5000  35.0000 Du        
  18717 ****        22.0000  17.5000  35.2500 Du        
  18718 ****        22.0000  17.7500  33.2500 Du        
  18719 ****        22.0000  17.7500  33.5000 Du        
  18720 ****        22.0000  17.7500  33.7500 Du        
  18721 ****        22.0000  17.7500  34.0000 Du        
  18722 ****        22.0000  17.7500  34.2500 Du        
  18723 ****        22.0000  17.7500  34.5000 Du        
  18724 ****        22.0000  17.7500  34.7500 Du        
  18725 ****        22.0000  17.7500  35.0000 Du        
  18726 ****        22.0000  17.7500  35.2500 Du        
  18727 ****        22.0000  17.7500  35.5000 Du        
  18728 ****        22.0000  18.0000  33.7500 Du        
  18729 ****        22.0000  18.0000  34.0000 Du        
  18730 ****        22.0000  18.0000  34.2500 Du        
  18731 ****        22.0000  18.0000  34.5000 Du        
  18732 ****        22.0000  18.0000  34.7500 Du        
  18733 ****        22.0000  18.0000  35.0000 Du        
  18734 ****        22.0000  18.0000  35.2500 Du        
  18735 ****        22.0000  18.0000  35.5000 Du        
  18736 ****        22.0000  18.2500  33.7500 Du        
  18737 ****        22.0000  18.2500  34.0000 Du        
  18738 ****        22.0000  18.2500  34.2500 Du        
  18739 ****        22.0000  18.2500  34.5000 Du        
  18740 ****        22.0000  18.2500  34.7500 Du        
  18741 ****        22.0000  18.2500  35.0000 Du        
  18742 ****        22.0000  18.2500  35.2500 Du        
  18743 ****        22.0000  18.2500  35.5000 Du        
  18744 ****        22.0000  18.5000  34.0000 Du        
  18745 ****        22.0000  18.5000  34.2500 Du        
  18746 ****        22.0000  18.5000  34.5000 Du        
  18747 ****        22.0000  18.5000  34.7500 Du        
  18748 ****        22.0000  18.5000  35.0000 Du        
  18749 ****        22.0000  18.5000  35.2500 Du        
  18750 ****        22.0000  18.5000  35.5000 Du        
  18751 ****        22.0000  18.7500  34.0000 Du        
  18752 ****        22.0000  18.7500  34.2500 Du        
  18753 ****        22.0000  18.7500  34.5000 Du        
  18754 ****        22.0000  18.7500  34.7500 Du        
  18755 ****        22.0000  18.7500  35.0000 Du        
  18756 ****        22.0000  18.7500  35.2500 Du        
  18757 ****        22.0000  18.7500  35.5000 Du        
  18758 ****        22.0000  19.0000  34.0000 Du        
  18759 ****        22.0000  19.0000  34.2500 Du        
  18760 ****        22.0000  19.0000  34.5000 Du        
  18761 ****        22.0000  19.0000  34.7500 Du        
  18762 ****        22.0000  19.0000  35.0000 Du        
  18763 ****        22.0000  19.0000  35.2500 Du        
  18764 ****        22.0000  19.0000  35.5000 Du        
  18765 ****        22.0000  19.2500  34.0000 Du        
  18766 ****        22.0000  19.2500  34.2500 Du        
  18767 ****        22.0000  19.2500  34.5000 Du        
  18768 ****        22.0000  19.2500  34.7500 Du        
  18769 ****        22.0000  19.2500  35.0000 Du        
  18770 ****        22.0000  19.2500  35.2500 Du        
  18771 ****        22.0000  19.5000  34.0000 Du        
  18772 ****        22.0000  19.5000  34.2500 Du        
  18773 ****        22.0000  19.5000  34.5000 Du        
  18774 ****        22.0000  19.5000  34.7500 Du        
  18775 ****        22.0000  19.5000  35.0000 Du        
  18776 ****        22.0000  19.5000  35.2500 Du        
  18777 ****        22.0000  19.7500  34.0000 Du        
  18778 ****        22.0000  19.7500  34.2500 Du        
  18779 ****        22.0000  19.7500  34.5000 Du        
  18780 ****        22.0000  19.7500  34.7500 Du        
  18781 ****        22.0000  19.7500  35.0000 Du        
  18782 ****        22.0000  19.7500  35.2500 Du        
  18783 ****        22.0000  20.0000  34.0000 Du        
  18784 ****        22.0000  20.0000  34.2500 Du        
  18785 ****        22.0000  20.0000  34.5000 Du        
  18786 ****        22.0000  20.0000  34.7500 Du        
  18787 ****        22.0000  20.0000  35.0000 Du        
  18788 ****        22.0000  20.2500  34.2500 Du        
  18789 ****        22.0000  20.2500  34.5000 Du        
  18790 ****        22.0000  20.2500  34.7500 Du        
  18791 ****        22.0000  20.2500  35.0000 Du        
  18792 ****        22.0000  20.5000  34.2500 Du        
  18793 ****        22.0000  20.5000  34.5000 Du        
  18794 ****        22.0000  20.5000  34.7500 Du        
  18795 ****        22.0000  20.7500  34.5000 Du        
  18796 ****        22.0000  20.7500  34.7500 Du        
  18797 ****        22.2500 -19.7500  42.5000 Du        
  18798 ****        22.2500 -19.5000  42.2500 Du        
  18799 ****        22.2500 -19.5000  42.5000 Du        
  18800 ****        22.2500 -19.2500  42.5000 Du        
  18801 ****        22.2500 -19.2500  42.7500 Du        
  18802 ****        22.2500 -19.2500  43.0000 Du        
  18803 ****        22.2500 -19.2500  43.2500 Du        
  18804 ****        22.2500 -19.0000  42.5000 Du        
  18805 ****        22.2500 -19.0000  42.7500 Du        
  18806 ****        22.2500 -19.0000  43.0000 Du        
  18807 ****        22.2500 -18.7500  42.5000 Du        
  18808 ****        22.2500 -18.7500  42.7500 Du        
  18809 ****        22.2500 -18.7500  43.0000 Du        
  18810 ****        22.2500 -18.5000  42.2500 Du        
  18811 ****        22.2500 -18.5000  42.5000 Du        
  18812 ****        22.2500 -18.5000  42.7500 Du        
  18813 ****        22.2500 -18.5000  43.0000 Du        
  18814 ****        22.2500 -18.2500  42.2500 Du        
  18815 ****        22.2500 -18.2500  42.5000 Du        
  18816 ****        22.2500 -18.2500  42.7500 Du        
  18817 ****        22.2500 -18.2500  43.0000 Du        
  18818 ****        22.2500 -18.0000  42.2500 Du        
  18819 ****        22.2500 -18.0000  42.5000 Du        
  18820 ****        22.2500 -18.0000  42.7500 Du        
  18821 ****        22.2500 -18.0000  43.0000 Du        
  18822 ****        22.2500 -17.7500  42.2500 Du        
  18823 ****        22.2500 -17.7500  42.5000 Du        
  18824 ****        22.2500 -17.7500  42.7500 Du        
  18825 ****        22.2500 -17.7500  43.0000 Du        
  18826 ****        22.2500 -17.5000  42.2500 Du        
  18827 ****        22.2500 -17.5000  42.5000 Du        
  18828 ****        22.2500 -17.5000  42.7500 Du        
  18829 ****        22.2500 -17.5000  43.0000 Du        
  18830 ****        22.2500 -17.2500  42.0000 Du        
  18831 ****        22.2500 -17.2500  42.2500 Du        
  18832 ****        22.2500 -17.2500  42.5000 Du        
  18833 ****        22.2500 -17.2500  42.7500 Du        
  18834 ****        22.2500 -17.2500  43.0000 Du        
  18835 ****        22.2500 -17.0000  42.0000 Du        
  18836 ****        22.2500 -17.0000  42.2500 Du        
  18837 ****        22.2500 -17.0000  42.5000 Du        
  18838 ****        22.2500 -17.0000  42.7500 Du        
  18839 ****        22.2500 -17.0000  43.0000 Du        
  18840 ****        22.2500 -16.7500  41.7500 Du        
  18841 ****        22.2500 -16.7500  42.0000 Du        
  18842 ****        22.2500 -16.7500  42.2500 Du        
  18843 ****        22.2500 -16.7500  42.5000 Du        
  18844 ****        22.2500 -16.7500  42.7500 Du        
  18845 ****        22.2500 -16.7500  43.0000 Du        
  18846 ****        22.2500 -16.5000  41.7500 Du        
  18847 ****        22.2500 -16.5000  42.0000 Du        
  18848 ****        22.2500 -16.5000  42.2500 Du        
  18849 ****        22.2500 -16.5000  42.5000 Du        
  18850 ****        22.2500 -16.5000  42.7500 Du        
  18851 ****        22.2500 -16.5000  43.0000 Du        
  18852 ****        22.2500 -16.2500  41.7500 Du        
  18853 ****        22.2500 -16.2500  42.0000 Du        
  18854 ****        22.2500 -16.2500  42.2500 Du        
  18855 ****        22.2500 -16.2500  42.5000 Du        
  18856 ****        22.2500 -16.2500  42.7500 Du        
  18857 ****        22.2500 -16.2500  43.0000 Du        
  18858 ****        22.2500 -16.0000  41.7500 Du        
  18859 ****        22.2500 -16.0000  42.0000 Du        
  18860 ****        22.2500 -16.0000  42.2500 Du        
  18861 ****        22.2500 -16.0000  42.5000 Du        
  18862 ****        22.2500 -16.0000  42.7500 Du        
  18863 ****        22.2500 -14.5000  33.7500 Du        
  18864 ****        22.2500 -14.5000  34.0000 Du        
  18865 ****        22.2500 -14.2500  33.7500 Du        
  18866 ****        22.2500 -14.2500  34.0000 Du        
  18867 ****        22.2500 -14.0000  33.5000 Du        
  18868 ****        22.2500 -14.0000  33.7500 Du        
  18869 ****        22.2500  -6.5000  32.5000 Du        
  18870 ****        22.2500  -6.2500  32.0000 Du        
  18871 ****        22.2500  -6.2500  32.2500 Du        
  18872 ****        22.2500  -6.2500  32.5000 Du        
  18873 ****        22.2500  -6.2500  32.7500 Du        
  18874 ****        22.2500  -6.0000  32.0000 Du        
  18875 ****        22.2500  -6.0000  32.2500 Du        
  18876 ****        22.2500  -6.0000  32.5000 Du        
  18877 ****        22.2500  -6.0000  32.7500 Du        
  18878 ****        22.2500  -6.0000  33.0000 Du        
  18879 ****        22.2500  -5.7500  32.0000 Du        
  18880 ****        22.2500  -5.7500  32.2500 Du        
  18881 ****        22.2500  -5.7500  32.5000 Du        
  18882 ****        22.2500  -5.7500  32.7500 Du        
  18883 ****        22.2500  -5.7500  33.0000 Du        
  18884 ****        22.2500  -5.5000  32.0000 Du        
  18885 ****        22.2500  -5.5000  32.2500 Du        
  18886 ****        22.2500  -5.5000  32.5000 Du        
  18887 ****        22.2500  -5.5000  32.7500 Du        
  18888 ****        22.2500  -5.5000  33.0000 Du        
  18889 ****        22.2500  -5.2500  32.2500 Du        
  18890 ****        22.2500  -5.2500  32.5000 Du        
  18891 ****        22.2500  -5.2500  32.7500 Du        
  18892 ****        22.2500  -5.2500  33.0000 Du        
  18893 ****        22.2500  -5.0000  32.2500 Du        
  18894 ****        22.2500  -5.0000  32.5000 Du        
  18895 ****        22.2500  -5.0000  32.7500 Du        
  18896 ****        22.2500  -4.7500  32.5000 Du        
  18897 ****        22.2500  -4.7500  32.7500 Du        
  18898 ****        22.2500  -4.5000  32.5000 Du        
  18899 ****        22.2500  -4.5000  32.7500 Du        
  18900 ****        22.2500  -1.0000  36.2500 Du        
  18901 ****        22.2500  -1.0000  36.5000 Du        
  18902 ****        22.2500  -1.0000  36.7500 Du        
  18903 ****        22.2500  -1.0000  37.0000 Du        
  18904 ****        22.2500  -1.0000  37.2500 Du        
  18905 ****        22.2500  -1.0000  37.5000 Du        
  18906 ****        22.2500  -1.0000  37.7500 Du        
  18907 ****        22.2500  -0.7500  35.7500 Du        
  18908 ****        22.2500  -0.7500  36.0000 Du        
  18909 ****        22.2500  -0.7500  36.2500 Du        
  18910 ****        22.2500  -0.7500  36.5000 Du        
  18911 ****        22.2500  -0.7500  36.7500 Du        
  18912 ****        22.2500  -0.7500  37.0000 Du        
  18913 ****        22.2500  -0.7500  37.2500 Du        
  18914 ****        22.2500  -0.7500  37.5000 Du        
  18915 ****        22.2500  -0.7500  37.7500 Du        
  18916 ****        22.2500  -0.5000  35.2500 Du        
  18917 ****        22.2500  -0.5000  35.5000 Du        
  18918 ****        22.2500  -0.5000  35.7500 Du        
  18919 ****        22.2500  -0.5000  36.0000 Du        
  18920 ****        22.2500  -0.5000  36.2500 Du        
  18921 ****        22.2500  -0.5000  36.5000 Du        
  18922 ****        22.2500  -0.5000  36.7500 Du        
  18923 ****        22.2500  -0.5000  37.0000 Du        
  18924 ****        22.2500  -0.5000  37.2500 Du        
  18925 ****        22.2500  -0.5000  37.5000 Du        
  18926 ****        22.2500  -0.5000  37.7500 Du        
  18927 ****        22.2500  -0.5000  38.0000 Du        
  18928 ****        22.2500  -0.2500  34.7500 Du        
  18929 ****        22.2500  -0.2500  35.0000 Du        
  18930 ****        22.2500  -0.2500  35.2500 Du        
  18931 ****        22.2500  -0.2500  35.5000 Du        
  18932 ****        22.2500  -0.2500  35.7500 Du        
  18933 ****        22.2500  -0.2500  36.0000 Du        
  18934 ****        22.2500  -0.2500  36.2500 Du        
  18935 ****        22.2500  -0.2500  36.5000 Du        
  18936 ****        22.2500  -0.2500  36.7500 Du        
  18937 ****        22.2500  -0.2500  37.0000 Du        
  18938 ****        22.2500  -0.2500  37.2500 Du        
  18939 ****        22.2500  -0.2500  37.5000 Du        
  18940 ****        22.2500  -0.2500  37.7500 Du        
  18941 ****        22.2500  -0.2500  38.0000 Du        
  18942 ****        22.2500   0.0000  34.7500 Du        
  18943 ****        22.2500   0.0000  35.0000 Du        
  18944 ****        22.2500   0.0000  35.2500 Du        
  18945 ****        22.2500   0.0000  35.5000 Du        
  18946 ****        22.2500   0.0000  35.7500 Du        
  18947 ****        22.2500   0.0000  36.0000 Du        
  18948 ****        22.2500   0.0000  36.2500 Du        
  18949 ****        22.2500   0.0000  36.5000 Du        
  18950 ****        22.2500   0.0000  36.7500 Du        
  18951 ****        22.2500   0.0000  37.0000 Du        
  18952 ****        22.2500   0.0000  37.2500 Du        
  18953 ****        22.2500   0.0000  37.5000 Du        
  18954 ****        22.2500   0.0000  37.7500 Du        
  18955 ****        22.2500   0.0000  38.0000 Du        
  18956 ****        22.2500   0.2500  34.7500 Du        
  18957 ****        22.2500   0.2500  35.0000 Du        
  18958 ****        22.2500   0.2500  35.2500 Du        
  18959 ****        22.2500   0.2500  35.5000 Du        
  18960 ****        22.2500   0.2500  35.7500 Du        
  18961 ****        22.2500   0.2500  36.0000 Du        
  18962 ****        22.2500   0.2500  36.2500 Du        
  18963 ****        22.2500   0.2500  36.5000 Du        
  18964 ****        22.2500   0.2500  36.7500 Du        
  18965 ****        22.2500   0.2500  37.0000 Du        
  18966 ****        22.2500   0.2500  37.2500 Du        
  18967 ****        22.2500   0.2500  37.5000 Du        
  18968 ****        22.2500   0.2500  37.7500 Du        
  18969 ****        22.2500   0.2500  38.0000 Du        
  18970 ****        22.2500   0.5000  35.0000 Du        
  18971 ****        22.2500   0.5000  35.2500 Du        
  18972 ****        22.2500   0.5000  35.5000 Du        
  18973 ****        22.2500   0.5000  35.7500 Du        
  18974 ****        22.2500   0.5000  36.0000 Du        
  18975 ****        22.2500   0.5000  36.2500 Du        
  18976 ****        22.2500   0.7500  35.0000 Du        
  18977 ****        22.2500   0.7500  35.2500 Du        
  18978 ****        22.2500   0.7500  35.5000 Du        
  18979 ****        22.2500   0.7500  35.7500 Du        
  18980 ****        22.2500   5.7500  24.2500 Du        
  18981 ****        22.2500   5.7500  24.5000 Du        
  18982 ****        22.2500   5.7500  24.7500 Du        
  18983 ****        22.2500   6.0000  24.2500 Du        
  18984 ****        22.2500   6.0000  24.5000 Du        
  18985 ****        22.2500   6.0000  24.7500 Du        
  18986 ****        22.2500   6.0000  25.0000 Du        
  18987 ****        22.2500   6.2500  24.2500 Du        
  18988 ****        22.2500   6.2500  24.5000 Du        
  18989 ****        22.2500   6.2500  24.7500 Du        
  18990 ****        22.2500   6.2500  25.0000 Du        
  18991 ****        22.2500   6.5000  24.5000 Du        
  18992 ****        22.2500   6.5000  24.7500 Du        
  18993 ****        22.2500   6.5000  25.0000 Du        
  18994 ****        22.2500   6.5000  25.2500 Du        
  18995 ****        22.2500   6.7500  24.7500 Du        
  18996 ****        22.2500   6.7500  25.0000 Du        
  18997 ****        22.2500   9.2500  38.5000 Du        
  18998 ****        22.2500   9.2500  38.7500 Du        
  18999 ****        22.2500  10.5000  28.5000 Du        
  19000 ****        22.2500  10.5000  28.7500 Du        
  19001 ****        22.2500  10.5000  29.0000 Du        
  19002 ****        22.2500  10.7500  28.5000 Du        
  19003 ****        22.2500  10.7500  28.7500 Du        
  19004 ****        22.2500  10.7500  29.0000 Du        
  19005 ****        22.2500  10.7500  29.2500 Du        
  19006 ****        22.2500  11.0000  28.5000 Du        
  19007 ****        22.2500  11.0000  28.7500 Du        
  19008 ****        22.2500  11.0000  29.0000 Du        
  19009 ****        22.2500  11.0000  29.2500 Du        
  19010 ****        22.2500  11.2500  28.5000 Du        
  19011 ****        22.2500  11.2500  28.7500 Du        
  19012 ****        22.2500  11.2500  29.0000 Du        
  19013 ****        22.2500  11.2500  29.2500 Du        
  19014 ****        22.2500  11.2500  29.5000 Du        
  19015 ****        22.2500  11.5000  28.7500 Du        
  19016 ****        22.2500  11.5000  29.0000 Du        
  19017 ****        22.2500  11.5000  29.2500 Du        
  19018 ****        22.2500  11.5000  29.5000 Du        
  19019 ****        22.2500  11.5000  29.7500 Du        
  19020 ****        22.2500  11.7500  28.7500 Du        
  19021 ****        22.2500  11.7500  29.0000 Du        
  19022 ****        22.2500  11.7500  29.2500 Du        
  19023 ****        22.2500  11.7500  29.5000 Du        
  19024 ****        22.2500  11.7500  29.7500 Du        
  19025 ****        22.2500  11.7500  30.0000 Du        
  19026 ****        22.2500  12.0000  29.0000 Du        
  19027 ****        22.2500  12.0000  29.2500 Du        
  19028 ****        22.2500  12.0000  29.5000 Du        
  19029 ****        22.2500  12.0000  29.7500 Du        
  19030 ****        22.2500  12.0000  30.0000 Du        
  19031 ****        22.2500  12.0000  30.2500 Du        
  19032 ****        22.2500  12.2500  29.0000 Du        
  19033 ****        22.2500  12.2500  29.2500 Du        
  19034 ****        22.2500  12.2500  29.5000 Du        
  19035 ****        22.2500  12.2500  29.7500 Du        
  19036 ****        22.2500  12.2500  30.0000 Du        
  19037 ****        22.2500  12.2500  30.2500 Du        
  19038 ****        22.2500  12.5000  29.2500 Du        
  19039 ****        22.2500  12.5000  29.5000 Du        
  19040 ****        22.2500  12.5000  29.7500 Du        
  19041 ****        22.2500  12.5000  30.0000 Du        
  19042 ****        22.2500  12.5000  30.2500 Du        
  19043 ****        22.2500  12.7500  29.2500 Du        
  19044 ****        22.2500  12.7500  29.5000 Du        
  19045 ****        22.2500  12.7500  29.7500 Du        
  19046 ****        22.2500  12.7500  30.0000 Du        
  19047 ****        22.2500  12.7500  30.2500 Du        
  19048 ****        22.2500  13.0000  29.5000 Du        
  19049 ****        22.2500  13.0000  29.7500 Du        
  19050 ****        22.2500  13.0000  30.0000 Du        
  19051 ****        22.2500  13.0000  30.2500 Du        
  19052 ****        22.2500  13.2500  29.7500 Du        
  19053 ****        22.2500  13.2500  30.0000 Du        
  19054 ****        22.2500  13.2500  30.2500 Du        
  19055 ****        22.2500  13.5000  29.7500 Du        
  19056 ****        22.2500  13.5000  30.0000 Du        
  19057 ****        22.2500  13.7500  29.7500 Du        
  19058 ****        22.2500  13.7500  30.0000 Du        
  19059 ****        22.2500  13.7500  30.2500 Du        
  19060 ****        22.2500  14.0000  29.7500 Du        
  19061 ****        22.2500  14.0000  30.0000 Du        
  19062 ****        22.2500  14.0000  30.2500 Du        
  19063 ****        22.2500  14.2500  29.7500 Du        
  19064 ****        22.2500  14.2500  30.0000 Du        
  19065 ****        22.2500  14.2500  30.2500 Du        
  19066 ****        22.2500  14.5000  29.7500 Du        
  19067 ****        22.2500  14.5000  30.0000 Du        
  19068 ****        22.2500  14.5000  30.2500 Du        
  19069 ****        22.2500  14.7500  29.7500 Du        
  19070 ****        22.2500  14.7500  30.0000 Du        
  19071 ****        22.2500  14.7500  30.2500 Du        
  19072 ****        22.2500  15.0000  29.7500 Du        
  19073 ****        22.2500  15.0000  30.0000 Du        
  19074 ****        22.2500  15.0000  30.2500 Du        
  19075 ****        22.2500  15.2500  30.0000 Du        
  19076 ****        22.2500  15.2500  30.2500 Du        
  19077 ****        22.2500  15.5000  30.7500 Du        
  19078 ****        22.2500  15.7500  31.0000 Du        
  19079 ****        22.2500  15.7500  31.2500 Du        
  19080 ****        22.2500  16.0000  31.2500 Du        
  19081 ****        22.2500  16.0000  31.5000 Du        
  19082 ****        22.2500  16.0000  31.7500 Du        
  19083 ****        22.2500  16.2500  31.5000 Du        
  19084 ****        22.2500  16.2500  31.7500 Du        
  19085 ****        22.2500  16.2500  32.0000 Du        
  19086 ****        22.2500  16.2500  32.2500 Du        
  19087 ****        22.2500  16.5000  31.5000 Du        
  19088 ****        22.2500  16.5000  31.7500 Du        
  19089 ****        22.2500  16.5000  32.0000 Du        
  19090 ****        22.2500  16.5000  32.2500 Du        
  19091 ****        22.2500  16.5000  32.5000 Du        
  19092 ****        22.2500  16.7500  31.7500 Du        
  19093 ****        22.2500  16.7500  32.0000 Du        
  19094 ****        22.2500  16.7500  32.2500 Du        
  19095 ****        22.2500  16.7500  32.5000 Du        
  19096 ****        22.2500  16.7500  32.7500 Du        
  19097 ****        22.2500  17.0000  31.7500 Du        
  19098 ****        22.2500  17.0000  32.0000 Du        
  19099 ****        22.2500  17.0000  32.2500 Du        
  19100 ****        22.2500  17.0000  32.5000 Du        
  19101 ****        22.2500  17.0000  32.7500 Du        
  19102 ****        22.2500  17.0000  33.0000 Du        
  19103 ****        22.2500  17.0000  33.2500 Du        
  19104 ****        22.2500  17.2500  32.0000 Du        
  19105 ****        22.2500  17.2500  32.2500 Du        
  19106 ****        22.2500  17.2500  32.5000 Du        
  19107 ****        22.2500  17.2500  32.7500 Du        
  19108 ****        22.2500  17.2500  33.0000 Du        
  19109 ****        22.2500  17.2500  33.2500 Du        
  19110 ****        22.2500  17.2500  33.5000 Du        
  19111 ****        22.2500  17.2500  33.7500 Du        
  19112 ****        22.2500  17.2500  34.0000 Du        
  19113 ****        22.2500  17.2500  34.2500 Du        
  19114 ****        22.2500  17.5000  32.5000 Du        
  19115 ****        22.2500  17.5000  32.7500 Du        
  19116 ****        22.2500  17.5000  33.0000 Du        
  19117 ****        22.2500  17.5000  33.2500 Du        
  19118 ****        22.2500  17.5000  33.5000 Du        
  19119 ****        22.2500  17.5000  33.7500 Du        
  19120 ****        22.2500  17.5000  34.0000 Du        
  19121 ****        22.2500  17.5000  34.2500 Du        
  19122 ****        22.2500  17.5000  34.5000 Du        
  19123 ****        22.2500  17.5000  34.7500 Du        
  19124 ****        22.2500  17.5000  35.0000 Du        
  19125 ****        22.2500  17.5000  35.2500 Du        
  19126 ****        22.2500  17.5000  35.5000 Du        
  19127 ****        22.2500  17.7500  33.0000 Du        
  19128 ****        22.2500  17.7500  33.2500 Du        
  19129 ****        22.2500  17.7500  33.5000 Du        
  19130 ****        22.2500  17.7500  33.7500 Du        
  19131 ****        22.2500  17.7500  34.0000 Du        
  19132 ****        22.2500  17.7500  34.2500 Du        
  19133 ****        22.2500  17.7500  34.5000 Du        
  19134 ****        22.2500  17.7500  34.7500 Du        
  19135 ****        22.2500  17.7500  35.0000 Du        
  19136 ****        22.2500  17.7500  35.2500 Du        
  19137 ****        22.2500  17.7500  35.5000 Du        
  19138 ****        22.2500  18.0000  33.2500 Du        
  19139 ****        22.2500  18.0000  33.5000 Du        
  19140 ****        22.2500  18.0000  33.7500 Du        
  19141 ****        22.2500  18.0000  34.0000 Du        
  19142 ****        22.2500  18.0000  34.2500 Du        
  19143 ****        22.2500  18.0000  34.5000 Du        
  19144 ****        22.2500  18.0000  34.7500 Du        
  19145 ****        22.2500  18.0000  35.0000 Du        
  19146 ****        22.2500  18.0000  35.2500 Du        
  19147 ****        22.2500  18.0000  35.5000 Du        
  19148 ****        22.2500  18.2500  33.5000 Du        
  19149 ****        22.2500  18.2500  33.7500 Du        
  19150 ****        22.2500  18.2500  34.0000 Du        
  19151 ****        22.2500  18.2500  34.2500 Du        
  19152 ****        22.2500  18.2500  34.5000 Du        
  19153 ****        22.2500  18.2500  34.7500 Du        
  19154 ****        22.2500  18.2500  35.0000 Du        
  19155 ****        22.2500  18.2500  35.2500 Du        
  19156 ****        22.2500  18.5000  33.7500 Du        
  19157 ****        22.2500  18.5000  34.0000 Du        
  19158 ****        22.2500  18.5000  34.2500 Du        
  19159 ****        22.2500  18.5000  34.5000 Du        
  19160 ****        22.2500  18.5000  34.7500 Du        
  19161 ****        22.2500  18.5000  35.0000 Du        
  19162 ****        22.2500  18.5000  35.2500 Du        
  19163 ****        22.2500  18.5000  35.5000 Du        
  19164 ****        22.2500  18.7500  33.7500 Du        
  19165 ****        22.2500  18.7500  34.0000 Du        
  19166 ****        22.2500  18.7500  34.2500 Du        
  19167 ****        22.2500  18.7500  34.5000 Du        
  19168 ****        22.2500  18.7500  34.7500 Du        
  19169 ****        22.2500  18.7500  35.0000 Du        
  19170 ****        22.2500  18.7500  35.2500 Du        
  19171 ****        22.2500  19.0000  33.7500 Du        
  19172 ****        22.2500  19.0000  34.0000 Du        
  19173 ****        22.2500  19.0000  34.2500 Du        
  19174 ****        22.2500  19.0000  34.5000 Du        
  19175 ****        22.2500  19.0000  34.7500 Du        
  19176 ****        22.2500  19.0000  35.0000 Du        
  19177 ****        22.2500  19.0000  35.2500 Du        
  19178 ****        22.2500  19.2500  33.7500 Du        
  19179 ****        22.2500  19.2500  34.0000 Du        
  19180 ****        22.2500  19.2500  34.2500 Du        
  19181 ****        22.2500  19.2500  34.5000 Du        
  19182 ****        22.2500  19.2500  34.7500 Du        
  19183 ****        22.2500  19.2500  35.0000 Du        
  19184 ****        22.2500  19.2500  35.2500 Du        
  19185 ****        22.2500  19.5000  33.7500 Du        
  19186 ****        22.2500  19.5000  34.0000 Du        
  19187 ****        22.2500  19.5000  34.2500 Du        
  19188 ****        22.2500  19.5000  34.5000 Du        
  19189 ****        22.2500  19.5000  34.7500 Du        
  19190 ****        22.2500  19.5000  35.0000 Du        
  19191 ****        22.2500  19.7500  33.7500 Du        
  19192 ****        22.2500  19.7500  34.0000 Du        
  19193 ****        22.2500  19.7500  34.2500 Du        
  19194 ****        22.2500  19.7500  34.5000 Du        
  19195 ****        22.2500  19.7500  34.7500 Du        
  19196 ****        22.2500  19.7500  35.0000 Du        
  19197 ****        22.2500  20.0000  33.7500 Du        
  19198 ****        22.2500  20.0000  34.0000 Du        
  19199 ****        22.2500  20.0000  34.2500 Du        
  19200 ****        22.2500  20.0000  34.5000 Du        
  19201 ****        22.2500  20.0000  34.7500 Du        
  19202 ****        22.2500  20.2500  34.0000 Du        
  19203 ****        22.2500  20.2500  34.2500 Du        
  19204 ****        22.2500  20.2500  34.5000 Du        
  19205 ****        22.2500  20.2500  34.7500 Du        
  19206 ****        22.2500  20.5000  34.0000 Du        
  19207 ****        22.2500  20.5000  34.2500 Du        
  19208 ****        22.2500  20.5000  34.5000 Du        
  19209 ****        22.2500  20.5000  34.7500 Du        
  19210 ****        22.2500  20.7500  34.2500 Du        
  19211 ****        22.2500  20.7500  34.5000 Du        
  19212 ****        22.5000 -19.7500  42.5000 Du        
  19213 ****        22.5000 -19.5000  42.2500 Du        
  19214 ****        22.5000 -19.5000  42.5000 Du        
  19215 ****        22.5000 -19.2500  42.2500 Du        
  19216 ****        22.5000 -19.2500  42.5000 Du        
  19217 ****        22.5000 -19.2500  42.7500 Du        
  19218 ****        22.5000 -19.2500  43.0000 Du        
  19219 ****        22.5000 -19.2500  43.2500 Du        
  19220 ****        22.5000 -19.0000  42.5000 Du        
  19221 ****        22.5000 -19.0000  42.7500 Du        
  19222 ****        22.5000 -19.0000  43.0000 Du        
  19223 ****        22.5000 -19.0000  43.2500 Du        
  19224 ****        22.5000 -18.7500  42.5000 Du        
  19225 ****        22.5000 -18.7500  42.7500 Du        
  19226 ****        22.5000 -18.7500  43.0000 Du        
  19227 ****        22.5000 -18.5000  42.2500 Du        
  19228 ****        22.5000 -18.5000  42.5000 Du        
  19229 ****        22.5000 -18.5000  42.7500 Du        
  19230 ****        22.5000 -18.5000  43.0000 Du        
  19231 ****        22.5000 -18.2500  42.2500 Du        
  19232 ****        22.5000 -18.2500  42.5000 Du        
  19233 ****        22.5000 -18.2500  42.7500 Du        
  19234 ****        22.5000 -18.2500  43.0000 Du        
  19235 ****        22.5000 -18.0000  42.2500 Du        
  19236 ****        22.5000 -18.0000  42.5000 Du        
  19237 ****        22.5000 -18.0000  42.7500 Du        
  19238 ****        22.5000 -18.0000  43.0000 Du        
  19239 ****        22.5000 -17.7500  42.2500 Du        
  19240 ****        22.5000 -17.7500  42.5000 Du        
  19241 ****        22.5000 -17.7500  42.7500 Du        
  19242 ****        22.5000 -17.5000  42.0000 Du        
  19243 ****        22.5000 -17.5000  42.2500 Du        
  19244 ****        22.5000 -17.5000  42.5000 Du        
  19245 ****        22.5000 -17.5000  42.7500 Du        
  19246 ****        22.5000 -17.2500  42.0000 Du        
  19247 ****        22.5000 -17.2500  42.2500 Du        
  19248 ****        22.5000 -17.2500  42.5000 Du        
  19249 ****        22.5000 -17.2500  42.7500 Du        
  19250 ****        22.5000 -17.0000  42.0000 Du        
  19251 ****        22.5000 -17.0000  42.2500 Du        
  19252 ****        22.5000 -17.0000  42.5000 Du        
  19253 ****        22.5000 -17.0000  42.7500 Du        
  19254 ****        22.5000 -16.7500  41.7500 Du        
  19255 ****        22.5000 -16.7500  42.0000 Du        
  19256 ****        22.5000 -16.7500  42.2500 Du        
  19257 ****        22.5000 -16.7500  42.5000 Du        
  19258 ****        22.5000 -16.7500  42.7500 Du        
  19259 ****        22.5000 -16.5000  41.7500 Du        
  19260 ****        22.5000 -16.5000  42.0000 Du        
  19261 ****        22.5000 -16.5000  42.2500 Du        
  19262 ****        22.5000 -16.5000  42.5000 Du        
  19263 ****        22.5000 -16.5000  42.7500 Du        
  19264 ****        22.5000 -16.2500  41.7500 Du        
  19265 ****        22.5000 -16.2500  42.0000 Du        
  19266 ****        22.5000 -16.2500  42.2500 Du        
  19267 ****        22.5000 -16.2500  42.5000 Du        
  19268 ****        22.5000 -16.2500  42.7500 Du        
  19269 ****        22.5000 -16.0000  42.0000 Du        
  19270 ****        22.5000 -16.0000  42.2500 Du        
  19271 ****        22.5000 -14.5000  33.7500 Du        
  19272 ****        22.5000 -14.5000  34.0000 Du        
  19273 ****        22.5000 -14.2500  33.7500 Du        
  19274 ****        22.5000 -14.2500  34.0000 Du        
  19275 ****        22.5000 -14.0000  33.5000 Du        
  19276 ****        22.5000 -14.0000  33.7500 Du        
  19277 ****        22.5000 -14.0000  34.0000 Du        
  19278 ****        22.5000 -13.7500  33.5000 Du        
  19279 ****        22.5000 -13.7500  33.7500 Du        
  19280 ****        22.5000 -13.7500  34.0000 Du        
  19281 ****        22.5000 -13.5000  33.5000 Du        
  19282 ****        22.5000 -13.5000  33.7500 Du        
  19283 ****        22.5000  -6.5000  32.5000 Du        
  19284 ****        22.5000  -6.2500  32.2500 Du        
  19285 ****        22.5000  -6.2500  32.5000 Du        
  19286 ****        22.5000  -6.2500  32.7500 Du        
  19287 ****        22.5000  -6.0000  32.2500 Du        
  19288 ****        22.5000  -6.0000  32.5000 Du        
  19289 ****        22.5000  -6.0000  32.7500 Du        
  19290 ****        22.5000  -6.0000  33.0000 Du        
  19291 ****        22.5000  -5.7500  32.2500 Du        
  19292 ****        22.5000  -5.7500  32.5000 Du        
  19293 ****        22.5000  -5.7500  32.7500 Du        
  19294 ****        22.5000  -5.7500  33.0000 Du        
  19295 ****        22.5000  -5.5000  32.5000 Du        
  19296 ****        22.5000  -5.5000  32.7500 Du        
  19297 ****        22.5000  -5.2500  32.5000 Du        
  19298 ****        22.5000  -5.2500  32.7500 Du        
  19299 ****        22.5000  -5.0000  32.5000 Du        
  19300 ****        22.5000  -1.0000  36.7500 Du        
  19301 ****        22.5000  -1.0000  37.0000 Du        
  19302 ****        22.5000  -1.0000  37.2500 Du        
  19303 ****        22.5000  -1.0000  37.5000 Du        
  19304 ****        22.5000  -1.0000  37.7500 Du        
  19305 ****        22.5000  -0.7500  36.5000 Du        
  19306 ****        22.5000  -0.7500  36.7500 Du        
  19307 ****        22.5000  -0.7500  37.0000 Du        
  19308 ****        22.5000  -0.7500  37.2500 Du        
  19309 ****        22.5000  -0.7500  37.5000 Du        
  19310 ****        22.5000  -0.7500  37.7500 Du        
  19311 ****        22.5000  -0.7500  38.0000 Du        
  19312 ****        22.5000  -0.5000  36.2500 Du        
  19313 ****        22.5000  -0.5000  36.5000 Du        
  19314 ****        22.5000  -0.5000  36.7500 Du        
  19315 ****        22.5000  -0.5000  37.0000 Du        
  19316 ****        22.5000  -0.5000  37.2500 Du        
  19317 ****        22.5000  -0.5000  37.5000 Du        
  19318 ****        22.5000  -0.5000  37.7500 Du        
  19319 ****        22.5000  -0.5000  38.0000 Du        
  19320 ****        22.5000  -0.2500  35.5000 Du        
  19321 ****        22.5000  -0.2500  35.7500 Du        
  19322 ****        22.5000  -0.2500  36.0000 Du        
  19323 ****        22.5000  -0.2500  36.2500 Du        
  19324 ****        22.5000  -0.2500  36.5000 Du        
  19325 ****        22.5000  -0.2500  36.7500 Du        
  19326 ****        22.5000  -0.2500  37.0000 Du        
  19327 ****        22.5000  -0.2500  37.2500 Du        
  19328 ****        22.5000  -0.2500  37.5000 Du        
  19329 ****        22.5000  -0.2500  37.7500 Du        
  19330 ****        22.5000  -0.2500  38.0000 Du        
  19331 ****        22.5000   0.0000  35.5000 Du        
  19332 ****        22.5000   0.0000  35.7500 Du        
  19333 ****        22.5000   0.0000  36.0000 Du        
  19334 ****        22.5000   0.0000  36.2500 Du        
  19335 ****        22.5000   0.0000  36.5000 Du        
  19336 ****        22.5000   0.0000  36.7500 Du        
  19337 ****        22.5000   0.0000  37.0000 Du        
  19338 ****        22.5000   0.0000  37.2500 Du        
  19339 ****        22.5000   0.0000  37.5000 Du        
  19340 ****        22.5000   0.0000  37.7500 Du        
  19341 ****        22.5000   0.2500  35.5000 Du        
  19342 ****        22.5000   0.2500  35.7500 Du        
  19343 ****        22.5000   0.2500  36.0000 Du        
  19344 ****        22.5000   5.7500  24.0000 Du        
  19345 ****        22.5000   5.7500  24.2500 Du        
  19346 ****        22.5000   6.0000  24.0000 Du        
  19347 ****        22.5000   6.0000  24.2500 Du        
  19348 ****        22.5000   6.0000  24.5000 Du        
  19349 ****        22.5000   6.0000  24.7500 Du        
  19350 ****        22.5000   6.0000  25.0000 Du        
  19351 ****        22.5000   6.2500  24.2500 Du        
  19352 ****        22.5000   6.2500  24.5000 Du        
  19353 ****        22.5000   6.2500  24.7500 Du        
  19354 ****        22.5000   6.2500  25.0000 Du        
  19355 ****        22.5000   6.5000  24.2500 Du        
  19356 ****        22.5000   6.5000  24.5000 Du        
  19357 ****        22.5000   6.5000  24.7500 Du        
  19358 ****        22.5000  10.5000  28.7500 Du        
  19359 ****        22.5000  10.7500  28.5000 Du        
  19360 ****        22.5000  10.7500  28.7500 Du        
  19361 ****        22.5000  10.7500  29.0000 Du        
  19362 ****        22.5000  11.0000  28.5000 Du        
  19363 ****        22.5000  11.0000  28.7500 Du        
  19364 ****        22.5000  11.0000  29.0000 Du        
  19365 ****        22.5000  11.0000  29.2500 Du        
  19366 ****        22.5000  11.2500  28.5000 Du        
  19367 ****        22.5000  11.2500  28.7500 Du        
  19368 ****        22.5000  11.2500  29.0000 Du        
  19369 ****        22.5000  11.2500  29.2500 Du        
  19370 ****        22.5000  11.5000  28.7500 Du        
  19371 ****        22.5000  11.5000  29.0000 Du        
  19372 ****        22.5000  11.5000  29.2500 Du        
  19373 ****        22.5000  11.5000  29.5000 Du        
  19374 ****        22.5000  11.5000  29.7500 Du        
  19375 ****        22.5000  11.7500  28.7500 Du        
  19376 ****        22.5000  11.7500  29.0000 Du        
  19377 ****        22.5000  11.7500  29.2500 Du        
  19378 ****        22.5000  11.7500  29.5000 Du        
  19379 ****        22.5000  11.7500  29.7500 Du        
  19380 ****        22.5000  12.0000  29.0000 Du        
  19381 ****        22.5000  12.0000  29.2500 Du        
  19382 ****        22.5000  12.0000  29.5000 Du        
  19383 ****        22.5000  12.0000  29.7500 Du        
  19384 ****        22.5000  12.2500  29.0000 Du        
  19385 ****        22.5000  12.2500  29.2500 Du        
  19386 ****        22.5000  12.2500  29.5000 Du        
  19387 ****        22.5000  12.2500  29.7500 Du        
  19388 ****        22.5000  12.2500  30.0000 Du        
  19389 ****        22.5000  12.5000  29.2500 Du        
  19390 ****        22.5000  12.5000  29.5000 Du        
  19391 ****        22.5000  12.5000  29.7500 Du        
  19392 ****        22.5000  12.5000  30.0000 Du        
  19393 ****        22.5000  12.7500  29.5000 Du        
  19394 ****        22.5000  12.7500  29.7500 Du        
  19395 ****        22.5000  12.7500  30.0000 Du        
  19396 ****        22.5000  13.0000  29.7500 Du        
  19397 ****        22.5000  13.2500  29.7500 Du        
  19398 ****        22.5000  16.5000  31.7500 Du        
  19399 ****        22.5000  16.5000  32.0000 Du        
  19400 ****        22.5000  16.7500  31.7500 Du        
  19401 ****        22.5000  16.7500  32.0000 Du        
  19402 ****        22.5000  16.7500  32.2500 Du        
  19403 ****        22.5000  17.0000  31.7500 Du        
  19404 ****        22.5000  17.0000  32.0000 Du        
  19405 ****        22.5000  17.0000  32.2500 Du        
  19406 ****        22.5000  17.0000  32.5000 Du        
  19407 ****        22.5000  17.0000  32.7500 Du        
  19408 ****        22.5000  17.0000  33.0000 Du        
  19409 ****        22.5000  17.2500  32.0000 Du        
  19410 ****        22.5000  17.2500  32.2500 Du        
  19411 ****        22.5000  17.2500  32.5000 Du        
  19412 ****        22.5000  17.2500  32.7500 Du        
  19413 ****        22.5000  17.2500  33.0000 Du        
  19414 ****        22.5000  17.2500  33.2500 Du        
  19415 ****        22.5000  17.2500  33.5000 Du        
  19416 ****        22.5000  17.2500  33.7500 Du        
  19417 ****        22.5000  17.2500  34.0000 Du        
  19418 ****        22.5000  17.2500  34.2500 Du        
  19419 ****        22.5000  17.5000  32.0000 Du        
  19420 ****        22.5000  17.5000  32.2500 Du        
  19421 ****        22.5000  17.5000  32.5000 Du        
  19422 ****        22.5000  17.5000  32.7500 Du        
  19423 ****        22.5000  17.5000  33.0000 Du        
  19424 ****        22.5000  17.5000  33.2500 Du        
  19425 ****        22.5000  17.5000  33.5000 Du        
  19426 ****        22.5000  17.5000  33.7500 Du        
  19427 ****        22.5000  17.5000  34.0000 Du        
  19428 ****        22.5000  17.5000  34.2500 Du        
  19429 ****        22.5000  17.5000  34.5000 Du        
  19430 ****        22.5000  17.5000  34.7500 Du        
  19431 ****        22.5000  17.5000  35.0000 Du        
  19432 ****        22.5000  17.5000  35.2500 Du        
  19433 ****        22.5000  17.5000  35.5000 Du        
  19434 ****        22.5000  17.7500  32.2500 Du        
  19435 ****        22.5000  17.7500  32.5000 Du        
  19436 ****        22.5000  17.7500  32.7500 Du        
  19437 ****        22.5000  17.7500  33.0000 Du        
  19438 ****        22.5000  17.7500  33.2500 Du        
  19439 ****        22.5000  17.7500  33.5000 Du        
  19440 ****        22.5000  17.7500  33.7500 Du        
  19441 ****        22.5000  17.7500  34.0000 Du        
  19442 ****        22.5000  17.7500  34.2500 Du        
  19443 ****        22.5000  17.7500  34.5000 Du        
  19444 ****        22.5000  17.7500  34.7500 Du        
  19445 ****        22.5000  17.7500  35.0000 Du        
  19446 ****        22.5000  17.7500  35.2500 Du        
  19447 ****        22.5000  17.7500  35.5000 Du        
  19448 ****        22.5000  18.0000  32.7500 Du        
  19449 ****        22.5000  18.0000  33.0000 Du        
  19450 ****        22.5000  18.0000  33.2500 Du        
  19451 ****        22.5000  18.0000  33.5000 Du        
  19452 ****        22.5000  18.0000  33.7500 Du        
  19453 ****        22.5000  18.0000  34.0000 Du        
  19454 ****        22.5000  18.0000  34.2500 Du        
  19455 ****        22.5000  18.0000  34.5000 Du        
  19456 ****        22.5000  18.0000  34.7500 Du        
  19457 ****        22.5000  18.0000  35.0000 Du        
  19458 ****        22.5000  18.0000  35.2500 Du        
  19459 ****        22.5000  18.0000  35.5000 Du        
  19460 ****        22.5000  18.2500  33.0000 Du        
  19461 ****        22.5000  18.2500  33.2500 Du        
  19462 ****        22.5000  18.2500  33.5000 Du        
  19463 ****        22.5000  18.2500  33.7500 Du        
  19464 ****        22.5000  18.2500  34.0000 Du        
  19465 ****        22.5000  18.2500  34.2500 Du        
  19466 ****        22.5000  18.2500  34.5000 Du        
  19467 ****        22.5000  18.2500  34.7500 Du        
  19468 ****        22.5000  18.2500  35.0000 Du        
  19469 ****        22.5000  18.2500  35.2500 Du        
  19470 ****        22.5000  18.5000  33.2500 Du        
  19471 ****        22.5000  18.5000  33.5000 Du        
  19472 ****        22.5000  18.5000  33.7500 Du        
  19473 ****        22.5000  18.5000  34.0000 Du        
  19474 ****        22.5000  18.5000  34.2500 Du        
  19475 ****        22.5000  18.5000  34.5000 Du        
  19476 ****        22.5000  18.5000  34.7500 Du        
  19477 ****        22.5000  18.5000  35.0000 Du        
  19478 ****        22.5000  18.5000  35.2500 Du        
  19479 ****        22.5000  18.7500  33.5000 Du        
  19480 ****        22.5000  18.7500  33.7500 Du        
  19481 ****        22.5000  18.7500  34.0000 Du        
  19482 ****        22.5000  18.7500  34.2500 Du        
  19483 ****        22.5000  18.7500  34.5000 Du        
  19484 ****        22.5000  18.7500  34.7500 Du        
  19485 ****        22.5000  18.7500  35.0000 Du        
  19486 ****        22.5000  18.7500  35.2500 Du        
  19487 ****        22.5000  19.0000  33.5000 Du        
  19488 ****        22.5000  19.0000  33.7500 Du        
  19489 ****        22.5000  19.0000  34.0000 Du        
  19490 ****        22.5000  19.0000  34.2500 Du        
  19491 ****        22.5000  19.0000  34.5000 Du        
  19492 ****        22.5000  19.0000  34.7500 Du        
  19493 ****        22.5000  19.0000  35.0000 Du        
  19494 ****        22.5000  19.0000  35.2500 Du        
  19495 ****        22.5000  19.2500  33.5000 Du        
  19496 ****        22.5000  19.2500  33.7500 Du        
  19497 ****        22.5000  19.2500  34.0000 Du        
  19498 ****        22.5000  19.2500  34.2500 Du        
  19499 ****        22.5000  19.2500  34.5000 Du        
  19500 ****        22.5000  19.2500  34.7500 Du        
  19501 ****        22.5000  19.2500  35.0000 Du        
  19502 ****        22.5000  19.5000  33.7500 Du        
  19503 ****        22.5000  19.5000  34.0000 Du        
  19504 ****        22.5000  19.5000  34.2500 Du        
  19505 ****        22.5000  19.5000  34.5000 Du        
  19506 ****        22.5000  19.5000  34.7500 Du        
  19507 ****        22.5000  19.5000  35.0000 Du        
  19508 ****        22.5000  19.7500  33.7500 Du        
  19509 ****        22.5000  19.7500  34.0000 Du        
  19510 ****        22.5000  19.7500  34.2500 Du        
  19511 ****        22.5000  19.7500  34.5000 Du        
  19512 ****        22.5000  19.7500  34.7500 Du        
  19513 ****        22.5000  20.0000  33.7500 Du        
  19514 ****        22.5000  20.0000  34.0000 Du        
  19515 ****        22.5000  20.0000  34.2500 Du        
  19516 ****        22.5000  20.0000  34.5000 Du        
  19517 ****        22.5000  20.0000  34.7500 Du        
  19518 ****        22.5000  20.2500  33.7500 Du        
  19519 ****        22.5000  20.2500  34.0000 Du        
  19520 ****        22.5000  20.2500  34.2500 Du        
  19521 ****        22.5000  20.2500  34.5000 Du        
  19522 ****        22.5000  20.5000  34.0000 Du        
  19523 ****        22.5000  20.5000  34.2500 Du        
  19524 ****        22.5000  20.5000  34.5000 Du        
  19525 ****        22.5000  20.7500  34.2500 Du        
  19526 ****        22.7500 -19.7500  42.2500 Du        
  19527 ****        22.7500 -19.7500  42.5000 Du        
  19528 ****        22.7500 -19.5000  42.2500 Du        
  19529 ****        22.7500 -19.5000  42.5000 Du        
  19530 ****        22.7500 -19.2500  42.2500 Du        
  19531 ****        22.7500 -19.2500  42.5000 Du        
  19532 ****        22.7500 -19.2500  42.7500 Du        
  19533 ****        22.7500 -19.2500  43.0000 Du        
  19534 ****        22.7500 -19.2500  43.2500 Du        
  19535 ****        22.7500 -19.0000  42.2500 Du        
  19536 ****        22.7500 -19.0000  42.5000 Du        
  19537 ****        22.7500 -19.0000  42.7500 Du        
  19538 ****        22.7500 -19.0000  43.0000 Du        
  19539 ****        22.7500 -19.0000  43.2500 Du        
  19540 ****        22.7500 -18.7500  42.2500 Du        
  19541 ****        22.7500 -18.7500  42.5000 Du        
  19542 ****        22.7500 -18.7500  42.7500 Du        
  19543 ****        22.7500 -18.7500  43.0000 Du        
  19544 ****        22.7500 -18.5000  42.2500 Du        
  19545 ****        22.7500 -18.5000  42.5000 Du        
  19546 ****        22.7500 -18.5000  42.7500 Du        
  19547 ****        22.7500 -18.5000  43.0000 Du        
  19548 ****        22.7500 -18.2500  42.2500 Du        
  19549 ****        22.7500 -18.2500  42.5000 Du        
  19550 ****        22.7500 -18.2500  42.7500 Du        
  19551 ****        22.7500 -18.2500  43.0000 Du        
  19552 ****        22.7500 -18.0000  42.2500 Du        
  19553 ****        22.7500 -18.0000  42.5000 Du        
  19554 ****        22.7500 -18.0000  42.7500 Du        
  19555 ****        22.7500 -17.7500  42.0000 Du        
  19556 ****        22.7500 -17.7500  42.2500 Du        
  19557 ****        22.7500 -17.7500  42.5000 Du        
  19558 ****        22.7500 -17.7500  42.7500 Du        
  19559 ****        22.7500 -17.5000  42.0000 Du        
  19560 ****        22.7500 -17.5000  42.2500 Du        
  19561 ****        22.7500 -17.5000  42.5000 Du        
  19562 ****        22.7500 -17.5000  42.7500 Du        
  19563 ****        22.7500 -17.2500  42.0000 Du        
  19564 ****        22.7500 -17.2500  42.2500 Du        
  19565 ****        22.7500 -17.2500  42.5000 Du        
  19566 ****        22.7500 -17.2500  42.7500 Du        
  19567 ****        22.7500 -17.0000  42.0000 Du        
  19568 ****        22.7500 -17.0000  42.2500 Du        
  19569 ****        22.7500 -17.0000  42.5000 Du        
  19570 ****        22.7500 -17.0000  42.7500 Du        
  19571 ****        22.7500 -16.7500  41.7500 Du        
  19572 ****        22.7500 -16.7500  42.0000 Du        
  19573 ****        22.7500 -16.7500  42.2500 Du        
  19574 ****        22.7500 -16.7500  42.5000 Du        
  19575 ****        22.7500 -16.5000  41.7500 Du        
  19576 ****        22.7500 -16.5000  42.0000 Du        
  19577 ****        22.7500 -16.5000  42.2500 Du        
  19578 ****        22.7500 -16.5000  42.5000 Du        
  19579 ****        22.7500 -16.2500  42.0000 Du        
  19580 ****        22.7500 -16.2500  42.2500 Du        
  19581 ****        22.7500 -14.5000  33.7500 Du        
  19582 ****        22.7500 -14.5000  34.0000 Du        
  19583 ****        22.7500 -14.2500  33.7500 Du        
  19584 ****        22.7500 -14.2500  34.0000 Du        
  19585 ****        22.7500 -14.2500  34.2500 Du        
  19586 ****        22.7500 -14.0000  33.5000 Du        
  19587 ****        22.7500 -14.0000  33.7500 Du        
  19588 ****        22.7500 -14.0000  34.0000 Du        
  19589 ****        22.7500 -14.0000  34.2500 Du        
  19590 ****        22.7500 -13.7500  33.5000 Du        
  19591 ****        22.7500 -13.7500  33.7500 Du        
  19592 ****        22.7500 -13.7500  34.0000 Du        
  19593 ****        22.7500 -13.5000  33.5000 Du        
  19594 ****        22.7500 -13.5000  33.7500 Du        
  19595 ****        22.7500 -13.5000  34.0000 Du        
  19596 ****        22.7500 -13.2500  33.5000 Du        
  19597 ****        22.7500 -13.2500  33.7500 Du        
  19598 ****        22.7500 -13.0000  33.5000 Du        
  19599 ****        22.7500  -6.5000  32.2500 Du        
  19600 ****        22.7500  -6.5000  32.5000 Du        
  19601 ****        22.7500  -6.5000  32.7500 Du        
  19602 ****        22.7500  -6.2500  32.2500 Du        
  19603 ****        22.7500  -6.2500  32.5000 Du        
  19604 ****        22.7500  -6.2500  32.7500 Du        
  19605 ****        22.7500  -6.0000  32.0000 Du        
  19606 ****        22.7500  -6.0000  32.2500 Du        
  19607 ****        22.7500  -6.0000  32.5000 Du        
  19608 ****        22.7500  -6.0000  32.7500 Du        
  19609 ****        22.7500  -6.0000  33.0000 Du        
  19610 ****        22.7500  -5.7500  32.0000 Du        
  19611 ****        22.7500  -5.7500  32.2500 Du        
  19612 ****        22.7500  -5.7500  32.5000 Du        
  19613 ****        22.7500  -5.7500  32.7500 Du        
  19614 ****        22.7500  -5.5000  32.5000 Du        
  19615 ****        22.7500  -1.0000  37.2500 Du        
  19616 ****        22.7500  -1.0000  37.5000 Du        
  19617 ****        22.7500  -1.0000  37.7500 Du        
  19618 ****        22.7500  -1.0000  38.0000 Du        
  19619 ****        22.7500  -0.7500  37.0000 Du        
  19620 ****        22.7500  -0.7500  37.2500 Du        
  19621 ****        22.7500  -0.7500  37.5000 Du        
  19622 ****        22.7500  -0.7500  37.7500 Du        
  19623 ****        22.7500  -0.7500  38.0000 Du        
  19624 ****        22.7500  -0.5000  37.0000 Du        
  19625 ****        22.7500  -0.5000  37.2500 Du        
  19626 ****        22.7500  -0.5000  37.5000 Du        
  19627 ****        22.7500  -0.5000  37.7500 Du        
  19628 ****        22.7500  -0.2500  37.2500 Du        
  19629 ****        22.7500   5.7500  24.0000 Du        
  19630 ****        22.7500   5.7500  24.2500 Du        
  19631 ****        22.7500   6.0000  24.0000 Du        
  19632 ****        22.7500   6.0000  24.2500 Du        
  19633 ****        22.7500   6.0000  24.5000 Du        
  19634 ****        22.7500   6.0000  24.7500 Du        
  19635 ****        22.7500   6.0000  25.0000 Du        
  19636 ****        22.7500   6.2500  24.0000 Du        
  19637 ****        22.7500   6.2500  24.2500 Du        
  19638 ****        22.7500   6.2500  24.5000 Du        
  19639 ****        22.7500   6.2500  24.7500 Du        
  19640 ****        22.7500   6.2500  25.0000 Du        
  19641 ****        22.7500   6.5000  24.2500 Du        
  19642 ****        22.7500   6.5000  24.5000 Du        
  19643 ****        22.7500   6.5000  24.7500 Du        
  19644 ****        22.7500  10.7500  28.5000 Du        
  19645 ****        22.7500  10.7500  28.7500 Du        
  19646 ****        22.7500  10.7500  29.0000 Du        
  19647 ****        22.7500  11.0000  28.5000 Du        
  19648 ****        22.7500  11.0000  28.7500 Du        
  19649 ****        22.7500  11.0000  29.0000 Du        
  19650 ****        22.7500  11.0000  29.2500 Du        
  19651 ****        22.7500  11.2500  28.5000 Du        
  19652 ****        22.7500  11.2500  28.7500 Du        
  19653 ****        22.7500  11.2500  29.0000 Du        
  19654 ****        22.7500  11.2500  29.2500 Du        
  19655 ****        22.7500  11.5000  28.7500 Du        
  19656 ****        22.7500  11.5000  29.0000 Du        
  19657 ****        22.7500  11.5000  29.2500 Du        
  19658 ****        22.7500  11.5000  29.5000 Du        
  19659 ****        22.7500  11.5000  29.7500 Du        
  19660 ****        22.7500  11.7500  28.7500 Du        
  19661 ****        22.7500  11.7500  29.0000 Du        
  19662 ****        22.7500  11.7500  29.2500 Du        
  19663 ****        22.7500  11.7500  29.5000 Du        
  19664 ****        22.7500  11.7500  29.7500 Du        
  19665 ****        22.7500  11.7500  30.0000 Du        
  19666 ****        22.7500  12.0000  29.0000 Du        
  19667 ****        22.7500  12.0000  29.2500 Du        
  19668 ****        22.7500  12.0000  29.5000 Du        
  19669 ****        22.7500  12.0000  29.7500 Du        
  19670 ****        22.7500  12.0000  30.0000 Du        
  19671 ****        22.7500  12.2500  29.0000 Du        
  19672 ****        22.7500  12.2500  29.2500 Du        
  19673 ****        22.7500  12.2500  29.5000 Du        
  19674 ****        22.7500  12.2500  29.7500 Du        
  19675 ****        22.7500  12.2500  30.0000 Du        
  19676 ****        22.7500  12.5000  29.2500 Du        
  19677 ****        22.7500  12.5000  29.5000 Du        
  19678 ****        22.7500  12.5000  29.7500 Du        
  19679 ****        22.7500  12.5000  30.0000 Du        
  19680 ****        22.7500  12.7500  29.5000 Du        
  19681 ****        22.7500  12.7500  29.7500 Du        
  19682 ****        22.7500  17.0000  32.0000 Du        
  19683 ****        22.7500  17.0000  32.2500 Du        
  19684 ****        22.7500  17.0000  32.5000 Du        
  19685 ****        22.7500  17.2500  32.0000 Du        
  19686 ****        22.7500  17.2500  32.2500 Du        
  19687 ****        22.7500  17.2500  32.5000 Du        
  19688 ****        22.7500  17.2500  32.7500 Du        
  19689 ****        22.7500  17.2500  33.0000 Du        
  19690 ****        22.7500  17.2500  33.2500 Du        
  19691 ****        22.7500  17.5000  32.0000 Du        
  19692 ****        22.7500  17.5000  32.2500 Du        
  19693 ****        22.7500  17.5000  32.5000 Du        
  19694 ****        22.7500  17.5000  32.7500 Du        
  19695 ****        22.7500  17.5000  33.0000 Du        
  19696 ****        22.7500  17.5000  33.2500 Du        
  19697 ****        22.7500  17.5000  33.5000 Du        
  19698 ****        22.7500  17.5000  33.7500 Du        
  19699 ****        22.7500  17.5000  34.0000 Du        
  19700 ****        22.7500  17.5000  34.2500 Du        
  19701 ****        22.7500  17.5000  34.5000 Du        
  19702 ****        22.7500  17.5000  34.7500 Du        
  19703 ****        22.7500  17.5000  35.0000 Du        
  19704 ****        22.7500  17.5000  35.2500 Du        
  19705 ****        22.7500  17.5000  35.5000 Du        
  19706 ****        22.7500  17.7500  32.0000 Du        
  19707 ****        22.7500  17.7500  32.2500 Du        
  19708 ****        22.7500  17.7500  32.5000 Du        
  19709 ****        22.7500  17.7500  32.7500 Du        
  19710 ****        22.7500  17.7500  33.0000 Du        
  19711 ****        22.7500  17.7500  33.2500 Du        
  19712 ****        22.7500  17.7500  33.5000 Du        
  19713 ****        22.7500  17.7500  33.7500 Du        
  19714 ****        22.7500  17.7500  34.0000 Du        
  19715 ****        22.7500  17.7500  34.2500 Du        
  19716 ****        22.7500  17.7500  34.5000 Du        
  19717 ****        22.7500  17.7500  34.7500 Du        
  19718 ****        22.7500  17.7500  35.0000 Du        
  19719 ****        22.7500  17.7500  35.2500 Du        
  19720 ****        22.7500  17.7500  35.5000 Du        
  19721 ****        22.7500  18.0000  32.2500 Du        
  19722 ****        22.7500  18.0000  32.5000 Du        
  19723 ****        22.7500  18.0000  32.7500 Du        
  19724 ****        22.7500  18.0000  33.0000 Du        
  19725 ****        22.7500  18.0000  33.2500 Du        
  19726 ****        22.7500  18.0000  33.5000 Du        
  19727 ****        22.7500  18.0000  33.7500 Du        
  19728 ****        22.7500  18.0000  34.0000 Du        
  19729 ****        22.7500  18.0000  34.2500 Du        
  19730 ****        22.7500  18.0000  34.5000 Du        
  19731 ****        22.7500  18.0000  34.7500 Du        
  19732 ****        22.7500  18.0000  35.0000 Du        
  19733 ****        22.7500  18.0000  35.2500 Du        
  19734 ****        22.7500  18.0000  35.5000 Du        
  19735 ****        22.7500  18.2500  32.7500 Du        
  19736 ****        22.7500  18.2500  33.0000 Du        
  19737 ****        22.7500  18.2500  33.2500 Du        
  19738 ****        22.7500  18.2500  33.5000 Du        
  19739 ****        22.7500  18.2500  33.7500 Du        
  19740 ****        22.7500  18.2500  34.0000 Du        
  19741 ****        22.7500  18.2500  34.2500 Du        
  19742 ****        22.7500  18.2500  34.5000 Du        
  19743 ****        22.7500  18.2500  34.7500 Du        
  19744 ****        22.7500  18.2500  35.0000 Du        
  19745 ****        22.7500  18.2500  35.2500 Du        
  19746 ****        22.7500  18.5000  33.0000 Du        
  19747 ****        22.7500  18.5000  33.2500 Du        
  19748 ****        22.7500  18.5000  33.5000 Du        
  19749 ****        22.7500  18.5000  33.7500 Du        
  19750 ****        22.7500  18.5000  34.0000 Du        
  19751 ****        22.7500  18.5000  34.2500 Du        
  19752 ****        22.7500  18.5000  34.5000 Du        
  19753 ****        22.7500  18.5000  34.7500 Du        
  19754 ****        22.7500  18.5000  35.0000 Du        
  19755 ****        22.7500  18.5000  35.2500 Du        
  19756 ****        22.7500  18.7500  33.2500 Du        
  19757 ****        22.7500  18.7500  33.5000 Du        
  19758 ****        22.7500  18.7500  33.7500 Du        
  19759 ****        22.7500  18.7500  34.0000 Du        
  19760 ****        22.7500  18.7500  34.2500 Du        
  19761 ****        22.7500  18.7500  34.5000 Du        
  19762 ****        22.7500  18.7500  34.7500 Du        
  19763 ****        22.7500  18.7500  35.0000 Du        
  19764 ****        22.7500  18.7500  35.2500 Du        
  19765 ****        22.7500  19.0000  33.2500 Du        
  19766 ****        22.7500  19.0000  33.5000 Du        
  19767 ****        22.7500  19.0000  33.7500 Du        
  19768 ****        22.7500  19.0000  34.0000 Du        
  19769 ****        22.7500  19.0000  34.2500 Du        
  19770 ****        22.7500  19.0000  34.5000 Du        
  19771 ****        22.7500  19.0000  34.7500 Du        
  19772 ****        22.7500  19.0000  35.0000 Du        
  19773 ****        22.7500  19.2500  33.5000 Du        
  19774 ****        22.7500  19.2500  33.7500 Du        
  19775 ****        22.7500  19.2500  34.0000 Du        
  19776 ****        22.7500  19.2500  34.2500 Du        
  19777 ****        22.7500  19.2500  34.5000 Du        
  19778 ****        22.7500  19.2500  34.7500 Du        
  19779 ****        22.7500  19.2500  35.0000 Du        
  19780 ****        22.7500  19.5000  33.5000 Du        
  19781 ****        22.7500  19.5000  33.7500 Du        
  19782 ****        22.7500  19.5000  34.0000 Du        
  19783 ****        22.7500  19.5000  34.2500 Du        
  19784 ****        22.7500  19.5000  34.5000 Du        
  19785 ****        22.7500  19.5000  34.7500 Du        
  19786 ****        22.7500  19.7500  33.5000 Du        
  19787 ****        22.7500  19.7500  33.7500 Du        
  19788 ****        22.7500  19.7500  34.0000 Du        
  19789 ****        22.7500  19.7500  34.2500 Du        
  19790 ****        22.7500  19.7500  34.5000 Du        
  19791 ****        22.7500  19.7500  34.7500 Du        
  19792 ****        22.7500  20.0000  33.7500 Du        
  19793 ****        22.7500  20.0000  34.0000 Du        
  19794 ****        22.7500  20.0000  34.2500 Du        
  19795 ****        22.7500  20.0000  34.5000 Du        
  19796 ****        22.7500  20.2500  33.7500 Du        
  19797 ****        22.7500  20.2500  34.0000 Du        
  19798 ****        22.7500  20.2500  34.2500 Du        
  19799 ****        22.7500  20.5000  34.0000 Du        
  19800 ****        22.7500  20.5000  34.2500 Du        
  19801 ****        23.0000 -19.7500  42.2500 Du        
  19802 ****        23.0000 -19.7500  42.5000 Du        
  19803 ****        23.0000 -19.5000  42.2500 Du        
  19804 ****        23.0000 -19.5000  42.5000 Du        
  19805 ****        23.0000 -19.2500  42.2500 Du        
  19806 ****        23.0000 -19.2500  42.5000 Du        
  19807 ****        23.0000 -19.2500  42.7500 Du        
  19808 ****        23.0000 -19.2500  43.0000 Du        
  19809 ****        23.0000 -19.2500  43.2500 Du        
  19810 ****        23.0000 -19.0000  42.2500 Du        
  19811 ****        23.0000 -19.0000  42.5000 Du        
  19812 ****        23.0000 -19.0000  42.7500 Du        
  19813 ****        23.0000 -19.0000  43.0000 Du        
  19814 ****        23.0000 -19.0000  43.2500 Du        
  19815 ****        23.0000 -18.7500  42.2500 Du        
  19816 ****        23.0000 -18.7500  42.5000 Du        
  19817 ****        23.0000 -18.7500  42.7500 Du        
  19818 ****        23.0000 -18.7500  43.0000 Du        
  19819 ****        23.0000 -18.5000  42.2500 Du        
  19820 ****        23.0000 -18.5000  42.5000 Du        
  19821 ****        23.0000 -18.5000  42.7500 Du        
  19822 ****        23.0000 -18.5000  43.0000 Du        
  19823 ****        23.0000 -18.2500  42.2500 Du        
  19824 ****        23.0000 -18.2500  42.5000 Du        
  19825 ****        23.0000 -18.2500  42.7500 Du        
  19826 ****        23.0000 -18.0000  42.0000 Du        
  19827 ****        23.0000 -18.0000  42.2500 Du        
  19828 ****        23.0000 -18.0000  42.5000 Du        
  19829 ****        23.0000 -18.0000  42.7500 Du        
  19830 ****        23.0000 -17.7500  42.0000 Du        
  19831 ****        23.0000 -17.7500  42.2500 Du        
  19832 ****        23.0000 -17.7500  42.5000 Du        
  19833 ****        23.0000 -17.5000  42.0000 Du        
  19834 ****        23.0000 -17.5000  42.2500 Du        
  19835 ****        23.0000 -17.5000  42.5000 Du        
  19836 ****        23.0000 -17.2500  42.0000 Du        
  19837 ****        23.0000 -17.2500  42.2500 Du        
  19838 ****        23.0000 -17.0000  42.0000 Du        
  19839 ****        23.0000 -17.0000  42.2500 Du        
  19840 ****        23.0000 -16.7500  42.0000 Du        
  19841 ****        23.0000 -14.2500  33.7500 Du        
  19842 ****        23.0000 -14.2500  34.0000 Du        
  19843 ****        23.0000 -14.0000  33.5000 Du        
  19844 ****        23.0000 -14.0000  33.7500 Du        
  19845 ****        23.0000 -14.0000  34.0000 Du        
  19846 ****        23.0000 -14.0000  34.2500 Du        
  19847 ****        23.0000 -13.7500  33.5000 Du        
  19848 ****        23.0000 -13.7500  33.7500 Du        
  19849 ****        23.0000 -13.7500  34.0000 Du        
  19850 ****        23.0000 -13.7500  34.2500 Du        
  19851 ****        23.0000 -13.5000  33.2500 Du        
  19852 ****        23.0000 -13.5000  33.5000 Du        
  19853 ****        23.0000 -13.5000  33.7500 Du        
  19854 ****        23.0000 -13.5000  34.0000 Du        
  19855 ****        23.0000 -13.2500  33.2500 Du        
  19856 ****        23.0000 -13.2500  33.5000 Du        
  19857 ****        23.0000 -13.2500  33.7500 Du        
  19858 ****        23.0000 -13.2500  34.0000 Du        
  19859 ****        23.0000 -13.0000  33.2500 Du        
  19860 ****        23.0000 -13.0000  33.5000 Du        
  19861 ****        23.0000 -13.0000  33.7500 Du        
  19862 ****        23.0000 -12.7500  33.5000 Du        
  19863 ****        23.0000  -6.7500  32.2500 Du        
  19864 ****        23.0000  -6.7500  32.5000 Du        
  19865 ****        23.0000  -6.5000  32.5000 Du        
  19866 ****        23.0000  -6.5000  32.7500 Du        
  19867 ****        23.0000  -6.2500  32.2500 Du        
  19868 ****        23.0000  -6.2500  32.5000 Du        
  19869 ****        23.0000  -6.2500  32.7500 Du        
  19870 ****        23.0000  -6.0000  32.2500 Du        
  19871 ****        23.0000  -6.0000  32.5000 Du        
  19872 ****        23.0000  -6.0000  32.7500 Du        
  19873 ****        23.0000  -5.7500  32.5000 Du        
  19874 ****        23.0000  -1.0000  37.5000 Du        
  19875 ****        23.0000  -1.0000  37.7500 Du        
  19876 ****        23.0000  -0.7500  37.5000 Du        
  19877 ****        23.0000  -0.7500  37.7500 Du        
  19878 ****        23.0000   5.7500  24.0000 Du        
  19879 ****        23.0000   5.7500  24.2500 Du        
  19880 ****        23.0000   6.0000  23.7500 Du        
  19881 ****        23.0000   6.0000  24.0000 Du        
  19882 ****        23.0000   6.0000  24.2500 Du        
  19883 ****        23.0000   6.0000  24.5000 Du        
  19884 ****        23.0000   6.0000  24.7500 Du        
  19885 ****        23.0000   6.2500  23.7500 Du        
  19886 ****        23.0000   6.2500  24.0000 Du        
  19887 ****        23.0000   6.2500  24.2500 Du        
  19888 ****        23.0000   6.2500  24.5000 Du        
  19889 ****        23.0000   6.2500  24.7500 Du        
  19890 ****        23.0000   6.5000  24.0000 Du        
  19891 ****        23.0000   6.5000  24.2500 Du        
  19892 ****        23.0000   6.5000  24.5000 Du        
  19893 ****        23.0000   6.5000  24.7500 Du        
  19894 ****        23.0000  10.7500  28.7500 Du        
  19895 ****        23.0000  10.7500  29.0000 Du        
  19896 ****        23.0000  11.0000  28.5000 Du        
  19897 ****        23.0000  11.0000  28.7500 Du        
  19898 ****        23.0000  11.0000  29.0000 Du        
  19899 ****        23.0000  11.0000  29.2500 Du        
  19900 ****        23.0000  11.2500  28.5000 Du        
  19901 ****        23.0000  11.2500  28.7500 Du        
  19902 ****        23.0000  11.2500  29.0000 Du        
  19903 ****        23.0000  11.2500  29.2500 Du        
  19904 ****        23.0000  11.5000  28.7500 Du        
  19905 ****        23.0000  11.5000  29.0000 Du        
  19906 ****        23.0000  11.5000  29.2500 Du        
  19907 ****        23.0000  11.5000  29.5000 Du        
  19908 ****        23.0000  11.5000  29.7500 Du        
  19909 ****        23.0000  11.7500  28.7500 Du        
  19910 ****        23.0000  11.7500  29.0000 Du        
  19911 ****        23.0000  11.7500  29.2500 Du        
  19912 ****        23.0000  11.7500  29.5000 Du        
  19913 ****        23.0000  11.7500  29.7500 Du        
  19914 ****        23.0000  11.7500  30.0000 Du        
  19915 ****        23.0000  12.0000  29.0000 Du        
  19916 ****        23.0000  12.0000  29.2500 Du        
  19917 ****        23.0000  12.0000  29.5000 Du        
  19918 ****        23.0000  12.0000  29.7500 Du        
  19919 ****        23.0000  12.0000  30.0000 Du        
  19920 ****        23.0000  12.2500  29.0000 Du        
  19921 ****        23.0000  12.2500  29.2500 Du        
  19922 ****        23.0000  12.2500  29.5000 Du        
  19923 ****        23.0000  12.2500  29.7500 Du        
  19924 ****        23.0000  12.5000  29.2500 Du        
  19925 ****        23.0000  12.5000  29.5000 Du        
  19926 ****        23.0000  12.5000  29.7500 Du        
  19927 ****        23.0000  17.2500  32.2500 Du        
  19928 ****        23.0000  17.2500  32.5000 Du        
  19929 ****        23.0000  17.2500  32.7500 Du        
  19930 ****        23.0000  17.5000  32.0000 Du        
  19931 ****        23.0000  17.5000  32.2500 Du        
  19932 ****        23.0000  17.5000  32.5000 Du        
  19933 ****        23.0000  17.5000  32.7500 Du        
  19934 ****        23.0000  17.5000  33.0000 Du        
  19935 ****        23.0000  17.5000  33.2500 Du        
  19936 ****        23.0000  17.5000  33.5000 Du        
  19937 ****        23.0000  17.5000  33.7500 Du        
  19938 ****        23.0000  17.5000  34.0000 Du        
  19939 ****        23.0000  17.5000  34.2500 Du        
  19940 ****        23.0000  17.5000  34.5000 Du        
  19941 ****        23.0000  17.5000  34.7500 Du        
  19942 ****        23.0000  17.5000  35.0000 Du        
  19943 ****        23.0000  17.5000  35.2500 Du        
  19944 ****        23.0000  17.5000  35.5000 Du        
  19945 ****        23.0000  17.7500  32.0000 Du        
  19946 ****        23.0000  17.7500  32.2500 Du        
  19947 ****        23.0000  17.7500  32.5000 Du        
  19948 ****        23.0000  17.7500  32.7500 Du        
  19949 ****        23.0000  17.7500  33.0000 Du        
  19950 ****        23.0000  17.7500  33.2500 Du        
  19951 ****        23.0000  17.7500  33.5000 Du        
  19952 ****        23.0000  17.7500  33.7500 Du        
  19953 ****        23.0000  17.7500  34.0000 Du        
  19954 ****        23.0000  17.7500  34.2500 Du        
  19955 ****        23.0000  17.7500  34.5000 Du        
  19956 ****        23.0000  17.7500  34.7500 Du        
  19957 ****        23.0000  17.7500  35.0000 Du        
  19958 ****        23.0000  17.7500  35.2500 Du        
  19959 ****        23.0000  17.7500  35.5000 Du        
  19960 ****        23.0000  18.0000  32.2500 Du        
  19961 ****        23.0000  18.0000  32.5000 Du        
  19962 ****        23.0000  18.0000  32.7500 Du        
  19963 ****        23.0000  18.0000  33.0000 Du        
  19964 ****        23.0000  18.0000  33.2500 Du        
  19965 ****        23.0000  18.0000  33.5000 Du        
  19966 ****        23.0000  18.0000  33.7500 Du        
  19967 ****        23.0000  18.0000  34.0000 Du        
  19968 ****        23.0000  18.0000  34.2500 Du        
  19969 ****        23.0000  18.0000  34.5000 Du        
  19970 ****        23.0000  18.0000  34.7500 Du        
  19971 ****        23.0000  18.0000  35.0000 Du        
  19972 ****        23.0000  18.0000  35.2500 Du        
  19973 ****        23.0000  18.0000  35.5000 Du        
  19974 ****        23.0000  18.2500  32.5000 Du        
  19975 ****        23.0000  18.2500  32.7500 Du        
  19976 ****        23.0000  18.2500  33.0000 Du        
  19977 ****        23.0000  18.2500  33.2500 Du        
  19978 ****        23.0000  18.2500  33.5000 Du        
  19979 ****        23.0000  18.2500  33.7500 Du        
  19980 ****        23.0000  18.2500  34.0000 Du        
  19981 ****        23.0000  18.2500  34.2500 Du        
  19982 ****        23.0000  18.2500  34.5000 Du        
  19983 ****        23.0000  18.2500  34.7500 Du        
  19984 ****        23.0000  18.2500  35.0000 Du        
  19985 ****        23.0000  18.2500  35.2500 Du        
  19986 ****        23.0000  18.5000  32.7500 Du        
  19987 ****        23.0000  18.5000  33.0000 Du        
  19988 ****        23.0000  18.5000  33.2500 Du        
  19989 ****        23.0000  18.5000  33.5000 Du        
  19990 ****        23.0000  18.5000  33.7500 Du        
  19991 ****        23.0000  18.5000  34.0000 Du        
  19992 ****        23.0000  18.5000  34.2500 Du        
  19993 ****        23.0000  18.5000  34.5000 Du        
  19994 ****        23.0000  18.5000  34.7500 Du        
  19995 ****        23.0000  18.5000  35.0000 Du        
  19996 ****        23.0000  18.5000  35.2500 Du        
  19997 ****        23.0000  18.7500  33.0000 Du        
  19998 ****        23.0000  18.7500  33.2500 Du        
  19999 ****        23.0000  18.7500  33.5000 Du        
  20000 ****        23.0000  18.7500  33.7500 Du        
  20001 ****        23.0000  18.7500  34.0000 Du        
  20002 ****        23.0000  18.7500  34.2500 Du        
  20003 ****        23.0000  18.7500  34.5000 Du        
  20004 ****        23.0000  18.7500  34.7500 Du        
  20005 ****        23.0000  18.7500  35.0000 Du        
  20006 ****        23.0000  19.0000  33.2500 Du        
  20007 ****        23.0000  19.0000  33.5000 Du        
  20008 ****        23.0000  19.0000  33.7500 Du        
  20009 ****        23.0000  19.0000  34.0000 Du        
  20010 ****        23.0000  19.0000  34.2500 Du        
  20011 ****        23.0000  19.0000  34.5000 Du        
  20012 ****        23.0000  19.0000  34.7500 Du        
  20013 ****        23.0000  19.0000  35.0000 Du        
  20014 ****        23.0000  19.2500  33.5000 Du        
  20015 ****        23.0000  19.2500  33.7500 Du        
  20016 ****        23.0000  19.2500  34.0000 Du        
  20017 ****        23.0000  19.2500  34.2500 Du        
  20018 ****        23.0000  19.2500  34.5000 Du        
  20019 ****        23.0000  19.2500  34.7500 Du        
  20020 ****        23.0000  19.5000  33.5000 Du        
  20021 ****        23.0000  19.5000  33.7500 Du        
  20022 ****        23.0000  19.5000  34.0000 Du        
  20023 ****        23.0000  19.5000  34.2500 Du        
  20024 ****        23.0000  19.5000  34.5000 Du        
  20025 ****        23.0000  19.7500  33.7500 Du        
  20026 ****        23.0000  19.7500  34.0000 Du        
  20027 ****        23.0000  19.7500  34.2500 Du        
  20028 ****        23.0000  19.7500  34.5000 Du        
  20029 ****        23.0000  20.0000  33.7500 Du        
  20030 ****        23.0000  20.0000  34.0000 Du        
  20031 ****        23.0000  20.0000  34.2500 Du        
  20032 ****        23.0000  20.2500  34.0000 Du        
  20033 ****        23.2500 -19.7500  42.0000 Du        
  20034 ****        23.2500 -19.7500  42.2500 Du        
  20035 ****        23.2500 -19.7500  42.5000 Du        
  20036 ****        23.2500 -19.5000  42.0000 Du        
  20037 ****        23.2500 -19.5000  42.2500 Du        
  20038 ****        23.2500 -19.5000  42.5000 Du        
  20039 ****        23.2500 -19.2500  42.0000 Du        
  20040 ****        23.2500 -19.2500  42.2500 Du        
  20041 ****        23.2500 -19.2500  42.5000 Du        
  20042 ****        23.2500 -19.2500  42.7500 Du        
  20043 ****        23.2500 -19.2500  43.0000 Du        
  20044 ****        23.2500 -19.2500  43.2500 Du        
  20045 ****        23.2500 -19.0000  42.2500 Du        
  20046 ****        23.2500 -19.0000  42.5000 Du        
  20047 ****        23.2500 -19.0000  42.7500 Du        
  20048 ****        23.2500 -19.0000  43.0000 Du        
  20049 ****        23.2500 -18.7500  42.2500 Du        
  20050 ****        23.2500 -18.7500  42.5000 Du        
  20051 ****        23.2500 -18.7500  42.7500 Du        
  20052 ****        23.2500 -18.7500  43.0000 Du        
  20053 ****        23.2500 -18.5000  42.0000 Du        
  20054 ****        23.2500 -18.5000  42.2500 Du        
  20055 ****        23.2500 -18.5000  42.5000 Du        
  20056 ****        23.2500 -18.5000  42.7500 Du        
  20057 ****        23.2500 -18.2500  42.0000 Du        
  20058 ****        23.2500 -18.2500  42.2500 Du        
  20059 ****        23.2500 -18.2500  42.5000 Du        
  20060 ****        23.2500 -18.0000  42.0000 Du        
  20061 ****        23.2500 -18.0000  42.2500 Du        
  20062 ****        23.2500 -17.7500  42.0000 Du        
  20063 ****        23.2500 -17.5000  42.0000 Du        
  20064 ****        23.2500 -14.2500  33.7500 Du        
  20065 ****        23.2500 -14.2500  34.0000 Du        
  20066 ****        23.2500 -14.0000  33.5000 Du        
  20067 ****        23.2500 -14.0000  33.7500 Du        
  20068 ****        23.2500 -14.0000  34.0000 Du        
  20069 ****        23.2500 -14.0000  34.2500 Du        
  20070 ****        23.2500 -13.7500  33.5000 Du        
  20071 ****        23.2500 -13.7500  33.7500 Du        
  20072 ****        23.2500 -13.7500  34.0000 Du        
  20073 ****        23.2500 -13.7500  34.2500 Du        
  20074 ****        23.2500 -13.5000  33.5000 Du        
  20075 ****        23.2500 -13.5000  33.7500 Du        
  20076 ****        23.2500 -13.5000  34.0000 Du        
  20077 ****        23.2500 -13.5000  34.2500 Du        
  20078 ****        23.2500 -13.2500  33.2500 Du        
  20079 ****        23.2500 -13.2500  33.5000 Du        
  20080 ****        23.2500 -13.2500  33.7500 Du        
  20081 ****        23.2500 -13.2500  34.0000 Du        
  20082 ****        23.2500 -13.0000  33.2500 Du        
  20083 ****        23.2500 -13.0000  33.5000 Du        
  20084 ****        23.2500 -13.0000  33.7500 Du        
  20085 ****        23.2500 -13.0000  34.0000 Du        
  20086 ****        23.2500 -12.7500  33.2500 Du        
  20087 ****        23.2500 -12.7500  33.5000 Du        
  20088 ****        23.2500 -12.7500  33.7500 Du        
  20089 ****        23.2500  -6.7500  32.2500 Du        
  20090 ****        23.2500  -6.7500  32.5000 Du        
  20091 ****        23.2500  -6.5000  32.5000 Du        
  20092 ****        23.2500  -6.2500  32.5000 Du        
  20093 ****        23.2500   5.7500  24.2500 Du        
  20094 ****        23.2500   6.0000  23.7500 Du        
  20095 ****        23.2500   6.0000  24.0000 Du        
  20096 ****        23.2500   6.0000  24.2500 Du        
  20097 ****        23.2500   6.0000  24.5000 Du        
  20098 ****        23.2500   6.2500  23.7500 Du        
  20099 ****        23.2500   6.2500  24.0000 Du        
  20100 ****        23.2500   6.2500  24.2500 Du        
  20101 ****        23.2500   6.2500  24.5000 Du        
  20102 ****        23.2500   6.2500  24.7500 Du        
  20103 ****        23.2500   6.5000  23.7500 Du        
  20104 ****        23.2500   6.5000  24.0000 Du        
  20105 ****        23.2500   6.5000  24.2500 Du        
  20106 ****        23.2500   6.5000  24.5000 Du        
  20107 ****        23.2500   6.7500  24.2500 Du        
  20108 ****        23.2500  11.0000  28.7500 Du        
  20109 ****        23.2500  11.0000  29.0000 Du        
  20110 ****        23.2500  11.0000  29.2500 Du        
  20111 ****        23.2500  11.2500  28.7500 Du        
  20112 ****        23.2500  11.2500  29.0000 Du        
  20113 ****        23.2500  11.2500  29.2500 Du        
  20114 ****        23.2500  11.5000  28.7500 Du        
  20115 ****        23.2500  11.5000  29.0000 Du        
  20116 ****        23.2500  11.5000  29.2500 Du        
  20117 ****        23.2500  11.5000  29.5000 Du        
  20118 ****        23.2500  11.5000  29.7500 Du        
  20119 ****        23.2500  11.7500  28.7500 Du        
  20120 ****        23.2500  11.7500  29.0000 Du        
  20121 ****        23.2500  11.7500  29.2500 Du        
  20122 ****        23.2500  11.7500  29.5000 Du        
  20123 ****        23.2500  11.7500  29.7500 Du        
  20124 ****        23.2500  12.0000  29.0000 Du        
  20125 ****        23.2500  12.0000  29.2500 Du        
  20126 ****        23.2500  12.0000  29.5000 Du        
  20127 ****        23.2500  12.0000  29.7500 Du        
  20128 ****        23.2500  12.2500  29.2500 Du        
  20129 ****        23.2500  12.2500  29.5000 Du        
  20130 ****        23.2500  12.2500  29.7500 Du        
  20131 ****        23.2500  17.5000  32.5000 Du        
  20132 ****        23.2500  17.5000  32.7500 Du        
  20133 ****        23.2500  17.5000  33.0000 Du        
  20134 ****        23.2500  17.5000  34.7500 Du        
  20135 ****        23.2500  17.5000  35.0000 Du        
  20136 ****        23.2500  17.5000  35.2500 Du        
  20137 ****        23.2500  17.5000  35.5000 Du        
  20138 ****        23.2500  17.7500  32.2500 Du        
  20139 ****        23.2500  17.7500  32.5000 Du        
  20140 ****        23.2500  17.7500  32.7500 Du        
  20141 ****        23.2500  17.7500  33.0000 Du        
  20142 ****        23.2500  17.7500  33.2500 Du        
  20143 ****        23.2500  17.7500  33.5000 Du        
  20144 ****        23.2500  17.7500  33.7500 Du        
  20145 ****        23.2500  17.7500  34.0000 Du        
  20146 ****        23.2500  17.7500  34.2500 Du        
  20147 ****        23.2500  17.7500  34.5000 Du        
  20148 ****        23.2500  17.7500  34.7500 Du        
  20149 ****        23.2500  17.7500  35.0000 Du        
  20150 ****        23.2500  17.7500  35.2500 Du        
  20151 ****        23.2500  17.7500  35.5000 Du        
  20152 ****        23.2500  18.0000  32.2500 Du        
  20153 ****        23.2500  18.0000  32.5000 Du        
  20154 ****        23.2500  18.0000  32.7500 Du        
  20155 ****        23.2500  18.0000  33.0000 Du        
  20156 ****        23.2500  18.0000  33.2500 Du        
  20157 ****        23.2500  18.0000  33.5000 Du        
  20158 ****        23.2500  18.0000  33.7500 Du        
  20159 ****        23.2500  18.0000  34.0000 Du        
  20160 ****        23.2500  18.0000  34.2500 Du        
  20161 ****        23.2500  18.0000  34.5000 Du        
  20162 ****        23.2500  18.0000  34.7500 Du        
  20163 ****        23.2500  18.0000  35.0000 Du        
  20164 ****        23.2500  18.0000  35.2500 Du        
  20165 ****        23.2500  18.0000  35.5000 Du        
  20166 ****        23.2500  18.2500  32.5000 Du        
  20167 ****        23.2500  18.2500  32.7500 Du        
  20168 ****        23.2500  18.2500  33.0000 Du        
  20169 ****        23.2500  18.2500  33.2500 Du        
  20170 ****        23.2500  18.2500  33.5000 Du        
  20171 ****        23.2500  18.2500  33.7500 Du        
  20172 ****        23.2500  18.2500  34.0000 Du        
  20173 ****        23.2500  18.2500  34.2500 Du        
  20174 ****        23.2500  18.2500  34.5000 Du        
  20175 ****        23.2500  18.2500  34.7500 Du        
  20176 ****        23.2500  18.2500  35.0000 Du        
  20177 ****        23.2500  18.2500  35.2500 Du        
  20178 ****        23.2500  18.5000  32.7500 Du        
  20179 ****        23.2500  18.5000  33.0000 Du        
  20180 ****        23.2500  18.5000  33.2500 Du        
  20181 ****        23.2500  18.5000  33.5000 Du        
  20182 ****        23.2500  18.5000  33.7500 Du        
  20183 ****        23.2500  18.5000  34.0000 Du        
  20184 ****        23.2500  18.5000  34.2500 Du        
  20185 ****        23.2500  18.5000  34.5000 Du        
  20186 ****        23.2500  18.5000  34.7500 Du        
  20187 ****        23.2500  18.5000  35.0000 Du        
  20188 ****        23.2500  18.7500  33.2500 Du        
  20189 ****        23.2500  18.7500  33.5000 Du        
  20190 ****        23.2500  18.7500  33.7500 Du        
  20191 ****        23.2500  18.7500  34.0000 Du        
  20192 ****        23.2500  18.7500  34.2500 Du        
  20193 ****        23.2500  18.7500  34.5000 Du        
  20194 ****        23.2500  18.7500  34.7500 Du        
  20195 ****        23.2500  18.7500  35.0000 Du        
  20196 ****        23.2500  19.0000  33.2500 Du        
  20197 ****        23.2500  19.0000  33.5000 Du        
  20198 ****        23.2500  19.0000  33.7500 Du        
  20199 ****        23.2500  19.0000  34.0000 Du        
  20200 ****        23.2500  19.0000  34.2500 Du        
  20201 ****        23.2500  19.0000  34.5000 Du        
  20202 ****        23.2500  19.0000  34.7500 Du        
  20203 ****        23.2500  19.2500  33.5000 Du        
  20204 ****        23.2500  19.2500  33.7500 Du        
  20205 ****        23.2500  19.2500  34.0000 Du        
  20206 ****        23.2500  19.2500  34.2500 Du        
  20207 ****        23.2500  19.2500  34.5000 Du        
  20208 ****        23.2500  19.5000  33.7500 Du        
  20209 ****        23.2500  19.5000  34.0000 Du        
  20210 ****        23.2500  19.5000  34.2500 Du        
  20211 ****        23.2500  19.7500  34.0000 Du        
  20212 ****        23.5000 -19.7500  42.5000 Du        
  20213 ****        23.5000 -19.5000  42.0000 Du        
  20214 ****        23.5000 -19.5000  42.2500 Du        
  20215 ****        23.5000 -19.5000  42.5000 Du        
  20216 ****        23.5000 -19.2500  42.0000 Du        
  20217 ****        23.5000 -19.2500  42.2500 Du        
  20218 ****        23.5000 -19.2500  42.5000 Du        
  20219 ****        23.5000 -19.2500  42.7500 Du        
  20220 ****        23.5000 -19.2500  43.0000 Du        
  20221 ****        23.5000 -19.0000  42.0000 Du        
  20222 ****        23.5000 -19.0000  42.2500 Du        
  20223 ****        23.5000 -19.0000  42.5000 Du        
  20224 ****        23.5000 -19.0000  42.7500 Du        
  20225 ****        23.5000 -18.7500  42.0000 Du        
  20226 ****        23.5000 -18.7500  42.2500 Du        
  20227 ****        23.5000 -18.7500  42.5000 Du        
  20228 ****        23.5000 -18.5000  42.0000 Du        
  20229 ****        23.5000 -18.5000  42.2500 Du        
  20230 ****        23.5000 -18.2500  42.0000 Du        
  20231 ****        23.5000 -14.0000  33.5000 Du        
  20232 ****        23.5000 -14.0000  33.7500 Du        
  20233 ****        23.5000 -14.0000  34.0000 Du        
  20234 ****        23.5000 -13.7500  33.5000 Du        
  20235 ****        23.5000 -13.7500  33.7500 Du        
  20236 ****        23.5000 -13.7500  34.0000 Du        
  20237 ****        23.5000 -13.7500  34.2500 Du        
  20238 ****        23.5000 -13.5000  33.5000 Du        
  20239 ****        23.5000 -13.5000  33.7500 Du        
  20240 ****        23.5000 -13.5000  34.0000 Du        
  20241 ****        23.5000 -13.5000  34.2500 Du        
  20242 ****        23.5000 -13.2500  33.5000 Du        
  20243 ****        23.5000 -13.2500  33.7500 Du        
  20244 ****        23.5000 -13.2500  34.0000 Du        
  20245 ****        23.5000 -13.2500  34.2500 Du        
  20246 ****        23.5000 -13.0000  33.2500 Du        
  20247 ****        23.5000 -13.0000  33.5000 Du        
  20248 ****        23.5000 -13.0000  33.7500 Du        
  20249 ****        23.5000 -13.0000  34.0000 Du        
  20250 ****        23.5000 -12.7500  33.5000 Du        
  20251 ****        23.5000 -12.7500  33.7500 Du        
  20252 ****        23.5000  -6.7500  32.5000 Du        
  20253 ****        23.5000   6.0000  24.0000 Du        
  20254 ****        23.5000   6.0000  24.2500 Du        
  20255 ****        23.5000   6.2500  23.7500 Du        
  20256 ****        23.5000   6.2500  24.0000 Du        
  20257 ****        23.5000   6.2500  24.2500 Du        
  20258 ****        23.5000   6.5000  23.7500 Du        
  20259 ****        23.5000   6.5000  24.0000 Du        
  20260 ****        23.5000   6.5000  24.2500 Du        
  20261 ****        23.5000  11.2500  28.7500 Du        
  20262 ****        23.5000  11.2500  29.0000 Du        
  20263 ****        23.5000  11.5000  28.5000 Du        
  20264 ****        23.5000  11.5000  28.7500 Du        
  20265 ****        23.5000  11.5000  29.0000 Du        
  20266 ****        23.5000  11.5000  29.2500 Du        
  20267 ****        23.5000  11.7500  28.7500 Du        
  20268 ****        23.5000  11.7500  29.0000 Du        
  20269 ****        23.5000  11.7500  29.2500 Du        
  20270 ****        23.5000  11.7500  29.5000 Du        
  20271 ****        23.5000  12.0000  28.7500 Du        
  20272 ****        23.5000  12.0000  29.0000 Du        
  20273 ****        23.5000  12.0000  29.2500 Du        
  20274 ****        23.5000  12.0000  29.5000 Du        
  20275 ****        23.5000  12.2500  29.0000 Du        
  20276 ****        23.5000  12.2500  29.2500 Du        
  20277 ****        23.5000  12.2500  29.5000 Du        
  20278 ****        23.5000  13.7500  42.7500 Du        
  20279 ****        23.5000  13.7500  43.0000 Du        
  20280 ****        23.5000  14.0000  42.0000 Du        
  20281 ****        23.5000  14.0000  42.2500 Du        
  20282 ****        23.5000  14.0000  42.5000 Du        
  20283 ****        23.5000  14.0000  42.7500 Du        
  20284 ****        23.5000  14.0000  43.0000 Du        
  20285 ****        23.5000  14.2500  41.5000 Du        
  20286 ****        23.5000  14.2500  41.7500 Du        
  20287 ****        23.5000  14.2500  42.0000 Du        
  20288 ****        23.5000  14.2500  42.2500 Du        
  20289 ****        23.5000  14.2500  42.5000 Du        
  20290 ****        23.5000  14.2500  42.7500 Du        
  20291 ****        23.5000  14.5000  41.5000 Du        
  20292 ****        23.5000  14.5000  41.7500 Du        
  20293 ****        23.5000  14.5000  42.0000 Du        
  20294 ****        23.5000  14.5000  42.2500 Du        
  20295 ****        23.5000  14.5000  42.5000 Du        
  20296 ****        23.5000  17.5000  35.0000 Du        
  20297 ****        23.5000  17.5000  35.2500 Du        
  20298 ****        23.5000  17.5000  35.5000 Du        
  20299 ****        23.5000  17.7500  33.0000 Du        
  20300 ****        23.5000  17.7500  33.2500 Du        
  20301 ****        23.5000  17.7500  33.5000 Du        
  20302 ****        23.5000  17.7500  33.7500 Du        
  20303 ****        23.5000  17.7500  34.0000 Du        
  20304 ****        23.5000  17.7500  34.2500 Du        
  20305 ****        23.5000  17.7500  34.5000 Du        
  20306 ****        23.5000  17.7500  34.7500 Du        
  20307 ****        23.5000  17.7500  35.0000 Du        
  20308 ****        23.5000  17.7500  35.2500 Du        
  20309 ****        23.5000  17.7500  35.5000 Du        
  20310 ****        23.5000  18.0000  32.7500 Du        
  20311 ****        23.5000  18.0000  33.0000 Du        
  20312 ****        23.5000  18.0000  33.2500 Du        
  20313 ****        23.5000  18.0000  33.5000 Du        
  20314 ****        23.5000  18.0000  33.7500 Du        
  20315 ****        23.5000  18.0000  34.0000 Du        
  20316 ****        23.5000  18.0000  34.2500 Du        
  20317 ****        23.5000  18.0000  34.5000 Du        
  20318 ****        23.5000  18.0000  34.7500 Du        
  20319 ****        23.5000  18.0000  35.0000 Du        
  20320 ****        23.5000  18.0000  35.2500 Du        
  20321 ****        23.5000  18.2500  32.7500 Du        
  20322 ****        23.5000  18.2500  33.0000 Du        
  20323 ****        23.5000  18.2500  33.2500 Du        
  20324 ****        23.5000  18.2500  33.5000 Du        
  20325 ****        23.5000  18.2500  33.7500 Du        
  20326 ****        23.5000  18.2500  34.0000 Du        
  20327 ****        23.5000  18.2500  34.2500 Du        
  20328 ****        23.5000  18.2500  34.5000 Du        
  20329 ****        23.5000  18.2500  34.7500 Du        
  20330 ****        23.5000  18.2500  35.0000 Du        
  20331 ****        23.5000  18.2500  35.2500 Du        
  20332 ****        23.5000  18.5000  33.2500 Du        
  20333 ****        23.5000  18.5000  33.5000 Du        
  20334 ****        23.5000  18.5000  33.7500 Du        
  20335 ****        23.5000  18.5000  34.0000 Du        
  20336 ****        23.5000  18.5000  34.2500 Du        
  20337 ****        23.5000  18.5000  34.5000 Du        
  20338 ****        23.5000  18.5000  34.7500 Du        
  20339 ****        23.5000  18.5000  35.0000 Du        
  20340 ****        23.5000  18.7500  33.7500 Du        
  20341 ****        23.5000  18.7500  34.0000 Du        
  20342 ****        23.5000  18.7500  34.2500 Du        
  20343 ****        23.5000  18.7500  34.5000 Du        
  20344 ****        23.5000  18.7500  34.7500 Du        
  20345 ****        23.5000  19.0000  34.0000 Du        
  20346 ****        23.5000  19.0000  34.2500 Du        
  20347 ****        23.7500 -19.7500  42.5000 Du        
  20348 ****        23.7500 -19.5000  42.0000 Du        
  20349 ****        23.7500 -19.5000  42.2500 Du        
  20350 ****        23.7500 -19.5000  42.5000 Du        
  20351 ****        23.7500 -19.2500  42.0000 Du        
  20352 ****        23.7500 -19.2500  42.2500 Du        
  20353 ****        23.7500 -19.2500  42.5000 Du        
  20354 ****        23.7500 -19.2500  42.7500 Du        
  20355 ****        23.7500 -19.0000  42.0000 Du        
  20356 ****        23.7500 -19.0000  42.2500 Du        
  20357 ****        23.7500 -19.0000  42.5000 Du        
  20358 ****        23.7500 -18.7500  42.0000 Du        
  20359 ****        23.7500 -18.7500  42.2500 Du        
  20360 ****        23.7500 -14.0000  33.7500 Du        
  20361 ****        23.7500 -14.0000  34.0000 Du        
  20362 ****        23.7500 -13.7500  33.5000 Du        
  20363 ****        23.7500 -13.7500  33.7500 Du        
  20364 ****        23.7500 -13.7500  34.0000 Du        
  20365 ****        23.7500 -13.7500  34.2500 Du        
  20366 ****        23.7500 -13.5000  33.5000 Du        
  20367 ****        23.7500 -13.5000  33.7500 Du        
  20368 ****        23.7500 -13.5000  34.0000 Du        
  20369 ****        23.7500 -13.5000  34.2500 Du        
  20370 ****        23.7500 -13.5000  34.5000 Du        
  20371 ****        23.7500 -13.2500  33.5000 Du        
  20372 ****        23.7500 -13.2500  33.7500 Du        
  20373 ****        23.7500 -13.2500  34.0000 Du        
  20374 ****        23.7500 -13.2500  34.2500 Du        
  20375 ****        23.7500 -13.0000  33.2500 Du        
  20376 ****        23.7500 -13.0000  33.5000 Du        
  20377 ****        23.7500 -13.0000  33.7500 Du        
  20378 ****        23.7500 -13.0000  34.0000 Du        
  20379 ****        23.7500 -12.7500  33.2500 Du        
  20380 ****        23.7500 -12.7500  33.5000 Du        
  20381 ****        23.7500 -12.7500  33.7500 Du        
  20382 ****        23.7500 -12.5000  33.5000 Du        
  20383 ****        23.7500   5.7500  24.2500 Du        
  20384 ****        23.7500   6.0000  23.7500 Du        
  20385 ****        23.7500   6.0000  24.0000 Du        
  20386 ****        23.7500   6.0000  24.2500 Du        
  20387 ****        23.7500   6.2500  23.7500 Du        
  20388 ****        23.7500   6.2500  24.0000 Du        
  20389 ****        23.7500   6.2500  24.2500 Du        
  20390 ****        23.7500   6.5000  23.5000 Du        
  20391 ****        23.7500   6.5000  23.7500 Du        
  20392 ****        23.7500   6.5000  24.0000 Du        
  20393 ****        23.7500   6.5000  24.2500 Du        
  20394 ****        23.7500  11.2500  28.7500 Du        
  20395 ****        23.7500  11.2500  29.0000 Du        
  20396 ****        23.7500  11.2500  29.2500 Du        
  20397 ****        23.7500  11.5000  28.5000 Du        
  20398 ****        23.7500  11.5000  28.7500 Du        
  20399 ****        23.7500  11.5000  29.0000 Du        
  20400 ****        23.7500  11.5000  29.2500 Du        
  20401 ****        23.7500  11.5000  29.5000 Du        
  20402 ****        23.7500  11.7500  28.5000 Du        
  20403 ****        23.7500  11.7500  28.7500 Du        
  20404 ****        23.7500  11.7500  29.0000 Du        
  20405 ****        23.7500  11.7500  29.2500 Du        
  20406 ****        23.7500  11.7500  29.5000 Du        
  20407 ****        23.7500  12.0000  28.7500 Du        
  20408 ****        23.7500  12.0000  29.0000 Du        
  20409 ****        23.7500  12.0000  29.2500 Du        
  20410 ****        23.7500  12.0000  29.5000 Du        
  20411 ****        23.7500  12.2500  29.0000 Du        
  20412 ****        23.7500  12.2500  29.2500 Du        
  20413 ****        23.7500  13.0000  43.2500 Du        
  20414 ****        23.7500  13.2500  42.5000 Du        
  20415 ****        23.7500  13.2500  42.7500 Du        
  20416 ****        23.7500  13.2500  43.0000 Du        
  20417 ****        23.7500  13.2500  43.2500 Du        
  20418 ****        23.7500  13.5000  42.0000 Du        
  20419 ****        23.7500  13.5000  42.2500 Du        
  20420 ****        23.7500  13.5000  42.5000 Du        
  20421 ****        23.7500  13.5000  42.7500 Du        
  20422 ****        23.7500  13.5000  43.0000 Du        
  20423 ****        23.7500  13.7500  41.5000 Du        
  20424 ****        23.7500  13.7500  41.7500 Du        
  20425 ****        23.7500  13.7500  42.0000 Du        
  20426 ****        23.7500  13.7500  42.2500 Du        
  20427 ****        23.7500  13.7500  42.5000 Du        
  20428 ****        23.7500  13.7500  42.7500 Du        
  20429 ****        23.7500  13.7500  43.0000 Du        
  20430 ****        23.7500  14.0000  40.7500 Du        
  20431 ****        23.7500  14.0000  41.0000 Du        
  20432 ****        23.7500  14.0000  41.2500 Du        
  20433 ****        23.7500  14.0000  41.5000 Du        
  20434 ****        23.7500  14.0000  41.7500 Du        
  20435 ****        23.7500  14.0000  42.0000 Du        
  20436 ****        23.7500  14.0000  42.2500 Du        
  20437 ****        23.7500  14.0000  42.5000 Du        
  20438 ****        23.7500  14.0000  42.7500 Du        
  20439 ****        23.7500  14.0000  43.0000 Du        
  20440 ****        23.7500  14.2500  40.7500 Du        
  20441 ****        23.7500  14.2500  41.0000 Du        
  20442 ****        23.7500  14.2500  41.2500 Du        
  20443 ****        23.7500  14.2500  41.5000 Du        
  20444 ****        23.7500  14.2500  41.7500 Du        
  20445 ****        23.7500  14.2500  42.0000 Du        
  20446 ****        23.7500  14.2500  42.2500 Du        
  20447 ****        23.7500  14.2500  42.5000 Du        
  20448 ****        23.7500  14.2500  42.7500 Du        
  20449 ****        23.7500  14.2500  43.0000 Du        
  20450 ****        23.7500  14.5000  41.2500 Du        
  20451 ****        23.7500  14.5000  41.5000 Du        
  20452 ****        23.7500  14.5000  41.7500 Du        
  20453 ****        23.7500  14.5000  42.0000 Du        
  20454 ****        23.7500  14.5000  42.2500 Du        
  20455 ****        23.7500  14.5000  42.5000 Du        
  20456 ****        23.7500  14.5000  42.7500 Du        
  20457 ****        23.7500  14.7500  41.7500 Du        
  20458 ****        23.7500  14.7500  42.0000 Du        
  20459 ****        23.7500  14.7500  42.2500 Du        
  20460 ****        23.7500  17.7500  34.7500 Du        
  20461 ****        23.7500  17.7500  35.0000 Du        
  20462 ****        23.7500  17.7500  35.2500 Du        
  20463 ****        23.7500  17.7500  35.5000 Du        
  20464 ****        23.7500  18.0000  34.2500 Du        
  20465 ****        23.7500  18.0000  34.5000 Du        
  20466 ****        23.7500  18.0000  34.7500 Du        
  20467 ****        23.7500  18.0000  35.0000 Du        
  20468 ****        23.7500  18.0000  35.2500 Du        
  20469 ****        23.7500  18.2500  34.7500 Du        
  20470 ****        23.7500  18.2500  35.0000 Du        
  20471 ****        24.0000 -19.5000  42.0000 Du        
  20472 ****        24.0000 -19.5000  42.2500 Du        
  20473 ****        24.0000 -19.5000  42.5000 Du        
  20474 ****        24.0000 -19.2500  42.0000 Du        
  20475 ****        24.0000 -19.2500  42.2500 Du        
  20476 ****        24.0000 -19.2500  42.5000 Du        
  20477 ****        24.0000 -19.0000  42.0000 Du        
  20478 ****        24.0000 -14.0000  33.7500 Du        
  20479 ****        24.0000 -14.0000  34.0000 Du        
  20480 ****        24.0000 -14.0000  34.2500 Du        
  20481 ****        24.0000 -13.7500  33.5000 Du        
  20482 ****        24.0000 -13.7500  33.7500 Du        
  20483 ****        24.0000 -13.7500  34.0000 Du        
  20484 ****        24.0000 -13.7500  34.2500 Du        
  20485 ****        24.0000 -13.7500  34.5000 Du        
  20486 ****        24.0000 -13.5000  33.5000 Du        
  20487 ****        24.0000 -13.5000  33.7500 Du        
  20488 ****        24.0000 -13.5000  34.0000 Du        
  20489 ****        24.0000 -13.5000  34.2500 Du        
  20490 ****        24.0000 -13.5000  34.5000 Du        
  20491 ****        24.0000 -13.2500  33.5000 Du        
  20492 ****        24.0000 -13.2500  33.7500 Du        
  20493 ****        24.0000 -13.2500  34.0000 Du        
  20494 ****        24.0000 -13.2500  34.2500 Du        
  20495 ****        24.0000 -13.2500  34.5000 Du        
  20496 ****        24.0000 -13.0000  33.2500 Du        
  20497 ****        24.0000 -13.0000  33.5000 Du        
  20498 ****        24.0000 -13.0000  33.7500 Du        
  20499 ****        24.0000 -13.0000  34.0000 Du        
  20500 ****        24.0000 -13.0000  34.2500 Du        
  20501 ****        24.0000 -12.7500  33.2500 Du        
  20502 ****        24.0000 -12.7500  33.5000 Du        
  20503 ****        24.0000 -12.7500  33.7500 Du        
  20504 ****        24.0000 -12.7500  34.0000 Du        
  20505 ****        24.0000 -12.5000  33.2500 Du        
  20506 ****        24.0000 -12.5000  33.5000 Du        
  20507 ****        24.0000 -12.5000  33.7500 Du        
  20508 ****        24.0000 -12.2500  33.2500 Du        
  20509 ****        24.0000 -12.2500  33.5000 Du        
  20510 ****        24.0000   6.0000  23.7500 Du        
  20511 ****        24.0000   6.0000  24.0000 Du        
  20512 ****        24.0000   6.0000  24.2500 Du        
  20513 ****        24.0000   6.2500  23.5000 Du        
  20514 ****        24.0000   6.2500  23.7500 Du        
  20515 ****        24.0000   6.2500  24.0000 Du        
  20516 ****        24.0000   6.5000  23.2500 Du        
  20517 ****        24.0000   6.5000  23.5000 Du        
  20518 ****        24.0000   6.5000  23.7500 Du        
  20519 ****        24.0000   6.5000  24.0000 Du        
  20520 ****        24.0000  11.2500  29.0000 Du        
  20521 ****        24.0000  11.2500  29.2500 Du        
  20522 ****        24.0000  11.5000  28.7500 Du        
  20523 ****        24.0000  11.5000  29.0000 Du        
  20524 ****        24.0000  11.5000  29.2500 Du        
  20525 ****        24.0000  11.5000  29.5000 Du        
  20526 ****        24.0000  11.7500  28.5000 Du        
  20527 ****        24.0000  11.7500  28.7500 Du        
  20528 ****        24.0000  11.7500  29.0000 Du        
  20529 ****        24.0000  11.7500  29.2500 Du        
  20530 ****        24.0000  11.7500  29.5000 Du        
  20531 ****        24.0000  12.0000  28.7500 Du        
  20532 ****        24.0000  12.0000  29.0000 Du        
  20533 ****        24.0000  12.0000  29.2500 Du        
  20534 ****        24.0000  12.0000  29.5000 Du        
  20535 ****        24.0000  12.2500  28.7500 Du        
  20536 ****        24.0000  12.2500  29.0000 Du        
  20537 ****        24.0000  12.2500  29.2500 Du        
  20538 ****        24.0000  12.5000  43.0000 Du        
  20539 ****        24.0000  12.7500  42.5000 Du        
  20540 ****        24.0000  12.7500  42.7500 Du        
  20541 ****        24.0000  12.7500  43.0000 Du        
  20542 ****        24.0000  12.7500  43.2500 Du        
  20543 ****        24.0000  13.0000  42.0000 Du        
  20544 ****        24.0000  13.0000  42.2500 Du        
  20545 ****        24.0000  13.0000  42.5000 Du        
  20546 ****        24.0000  13.0000  42.7500 Du        
  20547 ****        24.0000  13.0000  43.0000 Du        
  20548 ****        24.0000  13.0000  43.2500 Du        
  20549 ****        24.0000  13.2500  41.5000 Du        
  20550 ****        24.0000  13.2500  41.7500 Du        
  20551 ****        24.0000  13.2500  42.0000 Du        
  20552 ****        24.0000  13.2500  42.2500 Du        
  20553 ****        24.0000  13.2500  42.5000 Du        
  20554 ****        24.0000  13.2500  42.7500 Du        
  20555 ****        24.0000  13.2500  43.0000 Du        
  20556 ****        24.0000  13.2500  43.2500 Du        
  20557 ****        24.0000  13.5000  41.0000 Du        
  20558 ****        24.0000  13.5000  41.2500 Du        
  20559 ****        24.0000  13.5000  41.5000 Du        
  20560 ****        24.0000  13.5000  41.7500 Du        
  20561 ****        24.0000  13.5000  42.0000 Du        
  20562 ****        24.0000  13.5000  42.2500 Du        
  20563 ****        24.0000  13.5000  42.5000 Du        
  20564 ****        24.0000  13.5000  42.7500 Du        
  20565 ****        24.0000  13.5000  43.0000 Du        
  20566 ****        24.0000  13.7500  40.5000 Du        
  20567 ****        24.0000  13.7500  40.7500 Du        
  20568 ****        24.0000  13.7500  41.0000 Du        
  20569 ****        24.0000  13.7500  41.2500 Du        
  20570 ****        24.0000  13.7500  41.5000 Du        
  20571 ****        24.0000  13.7500  41.7500 Du        
  20572 ****        24.0000  13.7500  42.0000 Du        
  20573 ****        24.0000  13.7500  42.2500 Du        
  20574 ****        24.0000  13.7500  42.5000 Du        
  20575 ****        24.0000  13.7500  42.7500 Du        
  20576 ****        24.0000  13.7500  43.0000 Du        
  20577 ****        24.0000  14.0000  40.5000 Du        
  20578 ****        24.0000  14.0000  40.7500 Du        
  20579 ****        24.0000  14.0000  41.0000 Du        
  20580 ****        24.0000  14.0000  41.2500 Du        
  20581 ****        24.0000  14.0000  41.5000 Du        
  20582 ****        24.0000  14.0000  41.7500 Du        
  20583 ****        24.0000  14.0000  42.0000 Du        
  20584 ****        24.0000  14.0000  42.2500 Du        
  20585 ****        24.0000  14.0000  42.5000 Du        
  20586 ****        24.0000  14.0000  42.7500 Du        
  20587 ****        24.0000  14.0000  43.0000 Du        
  20588 ****        24.0000  14.2500  40.5000 Du        
  20589 ****        24.0000  14.2500  40.7500 Du        
  20590 ****        24.0000  14.2500  41.0000 Du        
  20591 ****        24.0000  14.2500  41.2500 Du        
  20592 ****        24.0000  14.2500  41.5000 Du        
  20593 ****        24.0000  14.2500  41.7500 Du        
  20594 ****        24.0000  14.2500  42.0000 Du        
  20595 ****        24.0000  14.2500  42.2500 Du        
  20596 ****        24.0000  14.2500  42.5000 Du        
  20597 ****        24.0000  14.2500  42.7500 Du        
  20598 ****        24.0000  14.2500  43.0000 Du        
  20599 ****        24.0000  14.5000  41.2500 Du        
  20600 ****        24.0000  14.5000  41.5000 Du        
  20601 ****        24.0000  14.5000  41.7500 Du        
  20602 ****        24.0000  14.5000  42.0000 Du        
  20603 ****        24.0000  14.5000  42.2500 Du        
  20604 ****        24.0000  14.5000  42.5000 Du        
  20605 ****        24.0000  14.5000  42.7500 Du        
  20606 ****        24.0000  14.7500  41.7500 Du        
  20607 ****        24.0000  14.7500  42.0000 Du        
  20608 ****        24.0000  14.7500  42.2500 Du        
  20609 ****        24.0000  17.7500  35.2500 Du        
  20610 ****        24.2500 -19.5000  42.0000 Du        
  20611 ****        24.2500 -19.5000  42.2500 Du        
  20612 ****        24.2500 -19.5000  42.5000 Du        
  20613 ****        24.2500 -19.2500  42.0000 Du        
  20614 ****        24.2500 -19.2500  42.2500 Du        
  20615 ****        24.2500 -19.0000  42.0000 Du        
  20616 ****        24.2500 -14.0000  33.7500 Du        
  20617 ****        24.2500 -14.0000  34.0000 Du        
  20618 ****        24.2500 -14.0000  34.2500 Du        
  20619 ****        24.2500 -13.7500  33.5000 Du        
  20620 ****        24.2500 -13.7500  33.7500 Du        
  20621 ****        24.2500 -13.7500  34.0000 Du        
  20622 ****        24.2500 -13.7500  34.2500 Du        
  20623 ****        24.2500 -13.7500  34.5000 Du        
  20624 ****        24.2500 -13.5000  33.5000 Du        
  20625 ****        24.2500 -13.5000  33.7500 Du        
  20626 ****        24.2500 -13.5000  34.0000 Du        
  20627 ****        24.2500 -13.5000  34.2500 Du        
  20628 ****        24.2500 -13.5000  34.5000 Du        
  20629 ****        24.2500 -13.2500  33.5000 Du        
  20630 ****        24.2500 -13.2500  33.7500 Du        
  20631 ****        24.2500 -13.2500  34.0000 Du        
  20632 ****        24.2500 -13.2500  34.2500 Du        
  20633 ****        24.2500 -13.2500  34.5000 Du        
  20634 ****        24.2500 -13.0000  33.5000 Du        
  20635 ****        24.2500 -13.0000  33.7500 Du        
  20636 ****        24.2500 -13.0000  34.0000 Du        
  20637 ****        24.2500 -13.0000  34.2500 Du        
  20638 ****        24.2500 -12.7500  33.5000 Du        
  20639 ****        24.2500 -12.7500  33.7500 Du        
  20640 ****        24.2500 -12.7500  34.0000 Du        
  20641 ****        24.2500 -12.5000  33.5000 Du        
  20642 ****        24.2500 -12.5000  33.7500 Du        
  20643 ****        24.2500 -12.2500  33.5000 Du        
  20644 ****        24.2500   6.0000  23.7500 Du        
  20645 ****        24.2500   6.0000  24.0000 Du        
  20646 ****        24.2500   6.2500  23.5000 Du        
  20647 ****        24.2500   6.2500  23.7500 Du        
  20648 ****        24.2500   6.2500  24.0000 Du        
  20649 ****        24.2500   6.5000  23.2500 Du        
  20650 ****        24.2500   6.5000  23.5000 Du        
  20651 ****        24.2500  11.5000  28.7500 Du        
  20652 ****        24.2500  11.5000  29.0000 Du        
  20653 ****        24.2500  11.5000  29.2500 Du        
  20654 ****        24.2500  11.7500  28.5000 Du        
  20655 ****        24.2500  11.7500  28.7500 Du        
  20656 ****        24.2500  11.7500  29.0000 Du        
  20657 ****        24.2500  11.7500  29.2500 Du        
  20658 ****        24.2500  11.7500  29.5000 Du        
  20659 ****        24.2500  12.0000  28.5000 Du        
  20660 ****        24.2500  12.0000  28.7500 Du        
  20661 ****        24.2500  12.0000  29.0000 Du        
  20662 ****        24.2500  12.0000  29.2500 Du        
  20663 ****        24.2500  12.2500  28.7500 Du        
  20664 ****        24.2500  12.2500  29.0000 Du        
  20665 ****        24.2500  12.2500  29.2500 Du        
  20666 ****        24.2500  12.2500  42.5000 Du        
  20667 ****        24.2500  12.2500  42.7500 Du        
  20668 ****        24.2500  12.2500  43.0000 Du        
  20669 ****        24.2500  12.5000  42.0000 Du        
  20670 ****        24.2500  12.5000  42.2500 Du        
  20671 ****        24.2500  12.5000  42.5000 Du        
  20672 ****        24.2500  12.5000  42.7500 Du        
  20673 ****        24.2500  12.5000  43.0000 Du        
  20674 ****        24.2500  12.7500  41.5000 Du        
  20675 ****        24.2500  12.7500  41.7500 Du        
  20676 ****        24.2500  12.7500  42.0000 Du        
  20677 ****        24.2500  12.7500  42.2500 Du        
  20678 ****        24.2500  12.7500  42.5000 Du        
  20679 ****        24.2500  12.7500  42.7500 Du        
  20680 ****        24.2500  12.7500  43.0000 Du        
  20681 ****        24.2500  12.7500  43.2500 Du        
  20682 ****        24.2500  13.0000  41.2500 Du        
  20683 ****        24.2500  13.0000  41.5000 Du        
  20684 ****        24.2500  13.0000  41.7500 Du        
  20685 ****        24.2500  13.0000  42.0000 Du        
  20686 ****        24.2500  13.0000  42.2500 Du        
  20687 ****        24.2500  13.0000  42.5000 Du        
  20688 ****        24.2500  13.0000  42.7500 Du        
  20689 ****        24.2500  13.0000  43.0000 Du        
  20690 ****        24.2500  13.0000  43.2500 Du        
  20691 ****        24.2500  13.2500  41.0000 Du        
  20692 ****        24.2500  13.2500  41.2500 Du        
  20693 ****        24.2500  13.2500  41.5000 Du        
  20694 ****        24.2500  13.2500  41.7500 Du        
  20695 ****        24.2500  13.2500  42.0000 Du        
  20696 ****        24.2500  13.2500  42.2500 Du        
  20697 ****        24.2500  13.2500  42.5000 Du        
  20698 ****        24.2500  13.2500  42.7500 Du        
  20699 ****        24.2500  13.2500  43.0000 Du        
  20700 ****        24.2500  13.2500  43.2500 Du        
  20701 ****        24.2500  13.5000  40.5000 Du        
  20702 ****        24.2500  13.5000  40.7500 Du        
  20703 ****        24.2500  13.5000  41.0000 Du        
  20704 ****        24.2500  13.5000  41.2500 Du        
  20705 ****        24.2500  13.5000  41.5000 Du        
  20706 ****        24.2500  13.5000  41.7500 Du        
  20707 ****        24.2500  13.5000  42.0000 Du        
  20708 ****        24.2500  13.5000  42.2500 Du        
  20709 ****        24.2500  13.5000  42.5000 Du        
  20710 ****        24.2500  13.5000  42.7500 Du        
  20711 ****        24.2500  13.5000  43.0000 Du        
  20712 ****        24.2500  13.7500  40.5000 Du        
  20713 ****        24.2500  13.7500  40.7500 Du        
  20714 ****        24.2500  13.7500  41.0000 Du        
  20715 ****        24.2500  13.7500  41.2500 Du        
  20716 ****        24.2500  13.7500  41.5000 Du        
  20717 ****        24.2500  13.7500  41.7500 Du        
  20718 ****        24.2500  13.7500  42.0000 Du        
  20719 ****        24.2500  13.7500  42.2500 Du        
  20720 ****        24.2500  13.7500  42.5000 Du        
  20721 ****        24.2500  13.7500  42.7500 Du        
  20722 ****        24.2500  13.7500  43.0000 Du        
  20723 ****        24.2500  14.0000  40.5000 Du        
  20724 ****        24.2500  14.0000  40.7500 Du        
  20725 ****        24.2500  14.0000  41.0000 Du        
  20726 ****        24.2500  14.0000  41.2500 Du        
  20727 ****        24.2500  14.0000  41.5000 Du        
  20728 ****        24.2500  14.0000  41.7500 Du        
  20729 ****        24.2500  14.0000  42.0000 Du        
  20730 ****        24.2500  14.0000  42.2500 Du        
  20731 ****        24.2500  14.0000  42.5000 Du        
  20732 ****        24.2500  14.0000  42.7500 Du        
  20733 ****        24.2500  14.0000  43.0000 Du        
  20734 ****        24.2500  14.2500  40.5000 Du        
  20735 ****        24.2500  14.2500  40.7500 Du        
  20736 ****        24.2500  14.2500  41.0000 Du        
  20737 ****        24.2500  14.2500  41.2500 Du        
  20738 ****        24.2500  14.2500  41.5000 Du        
  20739 ****        24.2500  14.2500  41.7500 Du        
  20740 ****        24.2500  14.2500  42.0000 Du        
  20741 ****        24.2500  14.2500  42.2500 Du        
  20742 ****        24.2500  14.2500  42.5000 Du        
  20743 ****        24.2500  14.2500  42.7500 Du        
  20744 ****        24.2500  14.2500  43.0000 Du        
  20745 ****        24.2500  14.5000  41.0000 Du        
  20746 ****        24.2500  14.5000  41.2500 Du        
  20747 ****        24.2500  14.5000  41.5000 Du        
  20748 ****        24.2500  14.5000  41.7500 Du        
  20749 ****        24.2500  14.5000  42.0000 Du        
  20750 ****        24.2500  14.5000  42.2500 Du        
  20751 ****        24.2500  14.5000  42.5000 Du        
  20752 ****        24.2500  14.5000  42.7500 Du        
  20753 ****        24.2500  14.7500  41.7500 Du        
  20754 ****        24.2500  14.7500  42.0000 Du        
  20755 ****        24.2500  14.7500  42.2500 Du        
  20756 ****        24.2500  14.7500  42.5000 Du        
  20757 ****        24.5000 -14.0000  33.7500 Du        
  20758 ****        24.5000 -14.0000  34.0000 Du        
  20759 ****        24.5000 -14.0000  34.2500 Du        
  20760 ****        24.5000 -13.7500  33.5000 Du        
  20761 ****        24.5000 -13.7500  33.7500 Du        
  20762 ****        24.5000 -13.7500  34.0000 Du        
  20763 ****        24.5000 -13.7500  34.2500 Du        
  20764 ****        24.5000 -13.7500  34.5000 Du        
  20765 ****        24.5000 -13.5000  33.5000 Du        
  20766 ****        24.5000 -13.5000  33.7500 Du        
  20767 ****        24.5000 -13.5000  34.0000 Du        
  20768 ****        24.5000 -13.5000  34.2500 Du        
  20769 ****        24.5000 -13.5000  34.5000 Du        
  20770 ****        24.5000 -13.2500  33.5000 Du        
  20771 ****        24.5000 -13.2500  33.7500 Du        
  20772 ****        24.5000 -13.2500  34.0000 Du        
  20773 ****        24.5000 -13.2500  34.2500 Du        
  20774 ****        24.5000 -13.2500  34.5000 Du        
  20775 ****        24.5000 -13.0000  33.5000 Du        
  20776 ****        24.5000 -13.0000  33.7500 Du        
  20777 ****        24.5000 -13.0000  34.0000 Du        
  20778 ****        24.5000 -13.0000  34.2500 Du        
  20779 ****        24.5000 -12.7500  33.5000 Du        
  20780 ****        24.5000 -12.7500  33.7500 Du        
  20781 ****        24.5000 -12.7500  34.0000 Du        
  20782 ****        24.5000 -12.5000  33.5000 Du        
  20783 ****        24.5000 -12.5000  33.7500 Du        
  20784 ****        24.5000 -12.2500  33.5000 Du        
  20785 ****        24.5000  11.5000  28.7500 Du        
  20786 ****        24.5000  11.5000  29.0000 Du        
  20787 ****        24.5000  11.5000  29.2500 Du        
  20788 ****        24.5000  11.7500  28.7500 Du        
  20789 ****        24.5000  11.7500  29.0000 Du        
  20790 ****        24.5000  11.7500  29.2500 Du        
  20791 ****        24.5000  11.7500  29.5000 Du        
  20792 ****        24.5000  12.0000  28.5000 Du        
  20793 ****        24.5000  12.0000  28.7500 Du        
  20794 ****        24.5000  12.0000  29.0000 Du        
  20795 ****        24.5000  12.0000  29.2500 Du        
  20796 ****        24.5000  12.2500  28.7500 Du        
  20797 ****        24.5000  12.2500  29.0000 Du        
  20798 ****        24.5000  12.2500  42.5000 Du        
  20799 ****        24.5000  12.5000  41.5000 Du        
  20800 ****        24.5000  12.5000  41.7500 Du        
  20801 ****        24.5000  12.5000  42.0000 Du        
  20802 ****        24.5000  12.5000  42.2500 Du        
  20803 ****        24.5000  12.5000  42.5000 Du        
  20804 ****        24.5000  12.5000  42.7500 Du        
  20805 ****        24.5000  12.5000  43.0000 Du        
  20806 ****        24.5000  12.7500  41.5000 Du        
  20807 ****        24.5000  12.7500  41.7500 Du        
  20808 ****        24.5000  12.7500  42.0000 Du        
  20809 ****        24.5000  12.7500  42.2500 Du        
  20810 ****        24.5000  12.7500  42.5000 Du        
  20811 ****        24.5000  12.7500  42.7500 Du        
  20812 ****        24.5000  12.7500  43.0000 Du        
  20813 ****        24.5000  13.0000  41.2500 Du        
  20814 ****        24.5000  13.0000  41.5000 Du        
  20815 ****        24.5000  13.0000  41.7500 Du        
  20816 ****        24.5000  13.0000  42.0000 Du        
  20817 ****        24.5000  13.0000  42.2500 Du        
  20818 ****        24.5000  13.0000  42.5000 Du        
  20819 ****        24.5000  13.0000  42.7500 Du        
  20820 ****        24.5000  13.0000  43.0000 Du        
  20821 ****        24.5000  13.0000  43.2500 Du        
  20822 ****        24.5000  13.2500  41.0000 Du        
  20823 ****        24.5000  13.2500  41.2500 Du        
  20824 ****        24.5000  13.2500  41.5000 Du        
  20825 ****        24.5000  13.2500  41.7500 Du        
  20826 ****        24.5000  13.2500  42.0000 Du        
  20827 ****        24.5000  13.2500  42.2500 Du        
  20828 ****        24.5000  13.2500  42.5000 Du        
  20829 ****        24.5000  13.2500  42.7500 Du        
  20830 ****        24.5000  13.2500  43.0000 Du        
  20831 ****        24.5000  13.2500  43.2500 Du        
  20832 ****        24.5000  13.5000  40.7500 Du        
  20833 ****        24.5000  13.5000  41.0000 Du        
  20834 ****        24.5000  13.5000  41.2500 Du        
  20835 ****        24.5000  13.5000  41.5000 Du        
  20836 ****        24.5000  13.5000  41.7500 Du        
  20837 ****        24.5000  13.5000  42.0000 Du        
  20838 ****        24.5000  13.5000  42.2500 Du        
  20839 ****        24.5000  13.5000  42.5000 Du        
  20840 ****        24.5000  13.5000  42.7500 Du        
  20841 ****        24.5000  13.5000  43.0000 Du        
  20842 ****        24.5000  13.7500  40.5000 Du        
  20843 ****        24.5000  13.7500  40.7500 Du        
  20844 ****        24.5000  13.7500  41.0000 Du        
  20845 ****        24.5000  13.7500  41.2500 Du        
  20846 ****        24.5000  13.7500  41.5000 Du        
  20847 ****        24.5000  13.7500  41.7500 Du        
  20848 ****        24.5000  13.7500  42.0000 Du        
  20849 ****        24.5000  13.7500  42.2500 Du        
  20850 ****        24.5000  13.7500  42.5000 Du        
  20851 ****        24.5000  13.7500  42.7500 Du        
  20852 ****        24.5000  13.7500  43.0000 Du        
  20853 ****        24.5000  14.0000  40.5000 Du        
  20854 ****        24.5000  14.0000  40.7500 Du        
  20855 ****        24.5000  14.0000  41.0000 Du        
  20856 ****        24.5000  14.0000  41.2500 Du        
  20857 ****        24.5000  14.0000  41.5000 Du        
  20858 ****        24.5000  14.0000  41.7500 Du        
  20859 ****        24.5000  14.0000  42.0000 Du        
  20860 ****        24.5000  14.0000  42.2500 Du        
  20861 ****        24.5000  14.0000  42.5000 Du        
  20862 ****        24.5000  14.0000  42.7500 Du        
  20863 ****        24.5000  14.0000  43.0000 Du        
  20864 ****        24.5000  14.2500  40.5000 Du        
  20865 ****        24.5000  14.2500  40.7500 Du        
  20866 ****        24.5000  14.2500  41.0000 Du        
  20867 ****        24.5000  14.2500  41.2500 Du        
  20868 ****        24.5000  14.2500  41.5000 Du        
  20869 ****        24.5000  14.2500  41.7500 Du        
  20870 ****        24.5000  14.2500  42.0000 Du        
  20871 ****        24.5000  14.2500  42.2500 Du        
  20872 ****        24.5000  14.2500  42.5000 Du        
  20873 ****        24.5000  14.2500  42.7500 Du        
  20874 ****        24.5000  14.2500  43.0000 Du        
  20875 ****        24.5000  14.5000  41.0000 Du        
  20876 ****        24.5000  14.5000  41.2500 Du        
  20877 ****        24.5000  14.5000  41.5000 Du        
  20878 ****        24.5000  14.5000  41.7500 Du        
  20879 ****        24.5000  14.5000  42.0000 Du        
  20880 ****        24.5000  14.5000  42.2500 Du        
  20881 ****        24.5000  14.5000  42.5000 Du        
  20882 ****        24.5000  14.5000  42.7500 Du        
  20883 ****        24.5000  14.7500  41.7500 Du        
  20884 ****        24.5000  14.7500  42.0000 Du        
  20885 ****        24.5000  14.7500  42.2500 Du        
  20886 ****        24.5000  14.7500  42.5000 Du        
  20887 ****        24.7500 -14.0000  33.5000 Du        
  20888 ****        24.7500 -14.0000  33.7500 Du        
  20889 ****        24.7500 -14.0000  34.0000 Du        
  20890 ****        24.7500 -14.0000  34.2500 Du        
  20891 ****        24.7500 -13.7500  33.5000 Du        
  20892 ****        24.7500 -13.7500  33.7500 Du        
  20893 ****        24.7500 -13.7500  34.0000 Du        
  20894 ****        24.7500 -13.7500  34.2500 Du        
  20895 ****        24.7500 -13.7500  34.5000 Du        
  20896 ****        24.7500 -13.5000  33.5000 Du        
  20897 ****        24.7500 -13.5000  33.7500 Du        
  20898 ****        24.7500 -13.5000  34.0000 Du        
  20899 ****        24.7500 -13.5000  34.2500 Du        
  20900 ****        24.7500 -13.5000  34.5000 Du        
  20901 ****        24.7500 -13.2500  33.5000 Du        
  20902 ****        24.7500 -13.2500  33.7500 Du        
  20903 ****        24.7500 -13.2500  34.0000 Du        
  20904 ****        24.7500 -13.2500  34.2500 Du        
  20905 ****        24.7500 -13.2500  34.5000 Du        
  20906 ****        24.7500 -13.0000  33.5000 Du        
  20907 ****        24.7500 -13.0000  33.7500 Du        
  20908 ****        24.7500 -13.0000  34.0000 Du        
  20909 ****        24.7500 -13.0000  34.2500 Du        
  20910 ****        24.7500 -12.7500  33.5000 Du        
  20911 ****        24.7500 -12.7500  33.7500 Du        
  20912 ****        24.7500 -12.7500  34.0000 Du        
  20913 ****        24.7500 -12.5000  33.5000 Du        
  20914 ****        24.7500   6.2500  23.2500 Du        
  20915 ****        24.7500   6.5000  23.0000 Du        
  20916 ****        24.7500  11.5000  29.0000 Du        
  20917 ****        24.7500  11.5000  29.2500 Du        
  20918 ****        24.7500  11.7500  28.7500 Du        
  20919 ****        24.7500  11.7500  29.0000 Du        
  20920 ****        24.7500  11.7500  29.2500 Du        
  20921 ****        24.7500  12.0000  28.7500 Du        
  20922 ****        24.7500  12.0000  29.0000 Du        
  20923 ****        24.7500  12.0000  29.2500 Du        
  20924 ****        24.7500  12.2500  28.7500 Du        
  20925 ****        24.7500  12.2500  29.0000 Du        
  20926 ****        24.7500  12.2500  42.0000 Du        
  20927 ****        24.7500  12.5000  41.5000 Du        
  20928 ****        24.7500  12.5000  41.7500 Du        
  20929 ****        24.7500  12.5000  42.0000 Du        
  20930 ****        24.7500  12.5000  42.2500 Du        
  20931 ****        24.7500  12.5000  42.5000 Du        
  20932 ****        24.7500  12.7500  41.5000 Du        
  20933 ****        24.7500  12.7500  41.7500 Du        
  20934 ****        24.7500  12.7500  42.0000 Du        
  20935 ****        24.7500  12.7500  42.2500 Du        
  20936 ****        24.7500  12.7500  42.5000 Du        
  20937 ****        24.7500  12.7500  42.7500 Du        
  20938 ****        24.7500  12.7500  43.0000 Du        
  20939 ****        24.7500  13.0000  41.2500 Du        
  20940 ****        24.7500  13.0000  41.5000 Du        
  20941 ****        24.7500  13.0000  41.7500 Du        
  20942 ****        24.7500  13.0000  42.0000 Du        
  20943 ****        24.7500  13.0000  42.2500 Du        
  20944 ****        24.7500  13.0000  42.5000 Du        
  20945 ****        24.7500  13.0000  42.7500 Du        
  20946 ****        24.7500  13.0000  43.0000 Du        
  20947 ****        24.7500  13.2500  41.0000 Du        
  20948 ****        24.7500  13.2500  41.2500 Du        
  20949 ****        24.7500  13.2500  41.5000 Du        
  20950 ****        24.7500  13.2500  41.7500 Du        
  20951 ****        24.7500  13.2500  42.0000 Du        
  20952 ****        24.7500  13.2500  42.2500 Du        
  20953 ****        24.7500  13.2500  42.5000 Du        
  20954 ****        24.7500  13.2500  42.7500 Du        
  20955 ****        24.7500  13.2500  43.0000 Du        
  20956 ****        24.7500  13.5000  41.0000 Du        
  20957 ****        24.7500  13.5000  41.2500 Du        
  20958 ****        24.7500  13.5000  41.5000 Du        
  20959 ****        24.7500  13.5000  41.7500 Du        
  20960 ****        24.7500  13.5000  42.0000 Du        
  20961 ****        24.7500  13.5000  42.2500 Du        
  20962 ****        24.7500  13.5000  42.5000 Du        
  20963 ****        24.7500  13.5000  42.7500 Du        
  20964 ****        24.7500  13.5000  43.0000 Du        
  20965 ****        24.7500  13.7500  40.5000 Du        
  20966 ****        24.7500  13.7500  40.7500 Du        
  20967 ****        24.7500  13.7500  41.0000 Du        
  20968 ****        24.7500  13.7500  41.2500 Du        
  20969 ****        24.7500  13.7500  41.5000 Du        
  20970 ****        24.7500  13.7500  41.7500 Du        
  20971 ****        24.7500  13.7500  42.0000 Du        
  20972 ****        24.7500  13.7500  42.2500 Du        
  20973 ****        24.7500  13.7500  42.5000 Du        
  20974 ****        24.7500  13.7500  42.7500 Du        
  20975 ****        24.7500  13.7500  43.0000 Du        
  20976 ****        24.7500  14.0000  40.5000 Du        
  20977 ****        24.7500  14.0000  40.7500 Du        
  20978 ****        24.7500  14.0000  41.0000 Du        
  20979 ****        24.7500  14.0000  41.2500 Du        
  20980 ****        24.7500  14.0000  41.5000 Du        
  20981 ****        24.7500  14.0000  41.7500 Du        
  20982 ****        24.7500  14.0000  42.0000 Du        
  20983 ****        24.7500  14.0000  42.2500 Du        
  20984 ****        24.7500  14.0000  42.5000 Du        
  20985 ****        24.7500  14.0000  42.7500 Du        
  20986 ****        24.7500  14.0000  43.0000 Du        
  20987 ****        24.7500  14.2500  40.5000 Du        
  20988 ****        24.7500  14.2500  40.7500 Du        
  20989 ****        24.7500  14.2500  41.0000 Du        
  20990 ****        24.7500  14.2500  41.2500 Du        
  20991 ****        24.7500  14.2500  41.5000 Du        
  20992 ****        24.7500  14.2500  41.7500 Du        
  20993 ****        24.7500  14.2500  42.0000 Du        
  20994 ****        24.7500  14.2500  42.2500 Du        
  20995 ****        24.7500  14.2500  42.5000 Du        
  20996 ****        24.7500  14.2500  42.7500 Du        
  20997 ****        24.7500  14.2500  43.0000 Du        
  20998 ****        24.7500  14.5000  41.0000 Du        
  20999 ****        24.7500  14.5000  41.2500 Du        
  21000 ****        24.7500  14.5000  41.5000 Du        
  21001 ****        24.7500  14.5000  41.7500 Du        
  21002 ****        24.7500  14.5000  42.0000 Du        
  21003 ****        24.7500  14.5000  42.2500 Du        
  21004 ****        24.7500  14.5000  42.5000 Du        
  21005 ****        24.7500  14.5000  42.7500 Du        
  21006 ****        24.7500  14.7500  41.7500 Du        
  21007 ****        24.7500  14.7500  42.0000 Du        
  21008 ****        24.7500  14.7500  42.2500 Du        
  21009 ****        24.7500  14.7500  42.5000 Du        
  21010 ****        25.0000 -14.0000  33.7500 Du        
  21011 ****        25.0000 -14.0000  34.0000 Du        
  21012 ****        25.0000 -14.0000  34.2500 Du        
  21013 ****        25.0000 -13.7500  33.5000 Du        
  21014 ****        25.0000 -13.7500  33.7500 Du        
  21015 ****        25.0000 -13.7500  34.0000 Du        
  21016 ****        25.0000 -13.7500  34.2500 Du        
  21017 ****        25.0000 -13.7500  34.5000 Du        
  21018 ****        25.0000 -13.5000  33.5000 Du        
  21019 ****        25.0000 -13.5000  33.7500 Du        
  21020 ****        25.0000 -13.5000  34.0000 Du        
  21021 ****        25.0000 -13.5000  34.2500 Du        
  21022 ****        25.0000 -13.2500  33.5000 Du        
  21023 ****        25.0000 -13.2500  33.7500 Du        
  21024 ****        25.0000 -13.2500  34.0000 Du        
  21025 ****        25.0000 -13.0000  33.7500 Du        
  21026 ****        25.0000  -9.7500  32.7500 Du        
  21027 ****        25.0000  -9.7500  33.0000 Du        
  21028 ****        25.0000  -9.5000  32.7500 Du        
  21029 ****        25.0000  -9.5000  33.0000 Du        
  21030 ****        25.0000  -9.2500  32.7500 Du        
  21031 ****        25.0000  -9.2500  33.0000 Du        
  21032 ****        25.0000  -9.0000  32.5000 Du        
  21033 ****        25.0000  -9.0000  32.7500 Du        
  21034 ****        25.0000  -9.0000  33.0000 Du        
  21035 ****        25.0000  -8.7500  32.5000 Du        
  21036 ****        25.0000  -8.7500  32.7500 Du        
  21037 ****        25.0000  -8.7500  33.0000 Du        
  21038 ****        25.0000  -8.5000  32.5000 Du        
  21039 ****        25.0000  -8.5000  32.7500 Du        
  21040 ****        25.0000  -8.5000  33.0000 Du        
  21041 ****        25.0000  -8.2500  32.5000 Du        
  21042 ****        25.0000  -8.2500  32.7500 Du        
  21043 ****        25.0000   6.2500  23.0000 Du        
  21044 ****        25.0000   6.2500  23.2500 Du        
  21045 ****        25.0000   6.5000  22.7500 Du        
  21046 ****        25.0000   6.5000  23.0000 Du        
  21047 ****        25.0000  11.5000  29.2500 Du        
  21048 ****        25.0000  11.7500  28.7500 Du        
  21049 ****        25.0000  11.7500  29.0000 Du        
  21050 ****        25.0000  11.7500  29.2500 Du        
  21051 ****        25.0000  12.0000  28.7500 Du        
  21052 ****        25.0000  12.0000  29.0000 Du        
  21053 ****        25.0000  12.0000  29.2500 Du        
  21054 ****        25.0000  12.2500  28.7500 Du        
  21055 ****        25.0000  12.2500  29.0000 Du        
  21056 ****        25.0000  12.5000  41.7500 Du        
  21057 ****        25.0000  12.5000  42.0000 Du        
  21058 ****        25.0000  12.5000  42.2500 Du        
  21059 ****        25.0000  12.7500  41.5000 Du        
  21060 ****        25.0000  12.7500  41.7500 Du        
  21061 ****        25.0000  12.7500  42.0000 Du        
  21062 ****        25.0000  12.7500  42.2500 Du        
  21063 ****        25.0000  12.7500  42.5000 Du        
  21064 ****        25.0000  12.7500  42.7500 Du        
  21065 ****        25.0000  13.0000  41.2500 Du        
  21066 ****        25.0000  13.0000  41.5000 Du        
  21067 ****        25.0000  13.0000  41.7500 Du        
  21068 ****        25.0000  13.0000  42.0000 Du        
  21069 ****        25.0000  13.0000  42.2500 Du        
  21070 ****        25.0000  13.0000  42.5000 Du        
  21071 ****        25.0000  13.0000  42.7500 Du        
  21072 ****        25.0000  13.0000  43.0000 Du        
  21073 ****        25.0000  13.2500  41.2500 Du        
  21074 ****        25.0000  13.2500  41.5000 Du        
  21075 ****        25.0000  13.2500  41.7500 Du        
  21076 ****        25.0000  13.2500  42.0000 Du        
  21077 ****        25.0000  13.2500  42.2500 Du        
  21078 ****        25.0000  13.2500  42.5000 Du        
  21079 ****        25.0000  13.2500  42.7500 Du        
  21080 ****        25.0000  13.2500  43.0000 Du        
  21081 ****        25.0000  13.5000  41.0000 Du        
  21082 ****        25.0000  13.5000  41.2500 Du        
  21083 ****        25.0000  13.5000  41.5000 Du        
  21084 ****        25.0000  13.5000  41.7500 Du        
  21085 ****        25.0000  13.5000  42.0000 Du        
  21086 ****        25.0000  13.5000  42.2500 Du        
  21087 ****        25.0000  13.5000  42.5000 Du        
  21088 ****        25.0000  13.5000  42.7500 Du        
  21089 ****        25.0000  13.5000  43.0000 Du        
  21090 ****        25.0000  13.7500  40.5000 Du        
  21091 ****        25.0000  13.7500  40.7500 Du        
  21092 ****        25.0000  13.7500  41.0000 Du        
  21093 ****        25.0000  13.7500  41.2500 Du        
  21094 ****        25.0000  13.7500  41.5000 Du        
  21095 ****        25.0000  13.7500  41.7500 Du        
  21096 ****        25.0000  13.7500  42.0000 Du        
  21097 ****        25.0000  13.7500  42.2500 Du        
  21098 ****        25.0000  13.7500  42.5000 Du        
  21099 ****        25.0000  13.7500  42.7500 Du        
  21100 ****        25.0000  13.7500  43.0000 Du        
  21101 ****        25.0000  14.0000  40.5000 Du        
  21102 ****        25.0000  14.0000  40.7500 Du        
  21103 ****        25.0000  14.0000  41.0000 Du        
  21104 ****        25.0000  14.0000  41.2500 Du        
  21105 ****        25.0000  14.0000  41.5000 Du        
  21106 ****        25.0000  14.0000  41.7500 Du        
  21107 ****        25.0000  14.0000  42.0000 Du        
  21108 ****        25.0000  14.0000  42.2500 Du        
  21109 ****        25.0000  14.0000  42.5000 Du        
  21110 ****        25.0000  14.0000  42.7500 Du        
  21111 ****        25.0000  14.0000  43.0000 Du        
  21112 ****        25.0000  14.2500  40.7500 Du        
  21113 ****        25.0000  14.2500  41.0000 Du        
  21114 ****        25.0000  14.2500  41.2500 Du        
  21115 ****        25.0000  14.2500  41.5000 Du        
  21116 ****        25.0000  14.2500  41.7500 Du        
  21117 ****        25.0000  14.2500  42.0000 Du        
  21118 ****        25.0000  14.2500  42.2500 Du        
  21119 ****        25.0000  14.2500  42.5000 Du        
  21120 ****        25.0000  14.2500  42.7500 Du        
  21121 ****        25.0000  14.2500  43.0000 Du        
  21122 ****        25.0000  14.5000  41.0000 Du        
  21123 ****        25.0000  14.5000  41.2500 Du        
  21124 ****        25.0000  14.5000  41.5000 Du        
  21125 ****        25.0000  14.5000  41.7500 Du        
  21126 ****        25.0000  14.5000  42.0000 Du        
  21127 ****        25.0000  14.5000  42.2500 Du        
  21128 ****        25.0000  14.5000  42.5000 Du        
  21129 ****        25.0000  14.5000  42.7500 Du        
  21130 ****        25.0000  14.5000  43.0000 Du        
  21131 ****        25.0000  14.7500  41.5000 Du        
  21132 ****        25.0000  14.7500  41.7500 Du        
  21133 ****        25.0000  14.7500  42.0000 Du        
  21134 ****        25.0000  14.7500  42.2500 Du        
  21135 ****        25.0000  14.7500  42.5000 Du        
  21136 ****        25.0000  14.7500  42.7500 Du        
  21137 ****        25.0000  15.0000  42.0000 Du        
  21138 ****        25.0000  15.0000  42.2500 Du        
  21139 ****        25.0000  15.0000  42.5000 Du        
  21140 ****        25.2500 -18.7500  41.2500 Du        
  21141 ****        25.2500 -18.5000  41.2500 Du        
  21142 ****        25.2500 -14.0000  34.0000 Du        
  21143 ****        25.2500 -13.7500  33.7500 Du        
  21144 ****        25.2500  -9.7500  33.0000 Du        
  21145 ****        25.2500  -9.5000  32.7500 Du        
  21146 ****        25.2500  -9.5000  33.0000 Du        
  21147 ****        25.2500  -9.5000  33.2500 Du        
  21148 ****        25.2500  -9.5000  33.5000 Du        
  21149 ****        25.2500  -9.2500  32.5000 Du        
  21150 ****        25.2500  -9.2500  32.7500 Du        
  21151 ****        25.2500  -9.2500  33.0000 Du        
  21152 ****        25.2500  -9.2500  33.2500 Du        
  21153 ****        25.2500  -9.2500  33.5000 Du        
  21154 ****        25.2500  -9.0000  32.5000 Du        
  21155 ****        25.2500  -9.0000  32.7500 Du        
  21156 ****        25.2500  -9.0000  33.0000 Du        
  21157 ****        25.2500  -9.0000  33.2500 Du        
  21158 ****        25.2500  -9.0000  33.5000 Du        
  21159 ****        25.2500  -9.0000  33.7500 Du        
  21160 ****        25.2500  -8.7500  32.5000 Du        
  21161 ****        25.2500  -8.7500  32.7500 Du        
  21162 ****        25.2500  -8.7500  33.0000 Du        
  21163 ****        25.2500  -8.7500  33.2500 Du        
  21164 ****        25.2500  -8.7500  33.5000 Du        
  21165 ****        25.2500  -8.5000  32.5000 Du        
  21166 ****        25.2500  -8.5000  32.7500 Du        
  21167 ****        25.2500  -8.5000  33.0000 Du        
  21168 ****        25.2500  -8.5000  33.2500 Du        
  21169 ****        25.2500  -8.2500  32.5000 Du        
  21170 ****        25.2500  -8.2500  32.7500 Du        
  21171 ****        25.2500  -8.0000  32.5000 Du        
  21172 ****        25.2500   6.0000  23.2500 Du        
  21173 ****        25.2500   6.2500  23.0000 Du        
  21174 ****        25.2500   6.2500  23.2500 Du        
  21175 ****        25.2500   6.5000  22.7500 Du        
  21176 ****        25.2500  11.5000  29.2500 Du        
  21177 ****        25.2500  11.7500  29.0000 Du        
  21178 ****        25.2500  11.7500  29.2500 Du        
  21179 ****        25.2500  12.0000  29.0000 Du        
  21180 ****        25.2500  12.0000  29.2500 Du        
  21181 ****        25.2500  12.2500  28.7500 Du        
  21182 ****        25.2500  12.2500  29.0000 Du        
  21183 ****        25.2500  12.7500  41.7500 Du        
  21184 ****        25.2500  12.7500  42.0000 Du        
  21185 ****        25.2500  13.0000  41.5000 Du        
  21186 ****        25.2500  13.0000  41.7500 Du        
  21187 ****        25.2500  13.0000  42.0000 Du        
  21188 ****        25.2500  13.0000  42.2500 Du        
  21189 ****        25.2500  13.0000  42.5000 Du        
  21190 ****        25.2500  13.0000  42.7500 Du        
  21191 ****        25.2500  13.2500  41.2500 Du        
  21192 ****        25.2500  13.2500  41.5000 Du        
  21193 ****        25.2500  13.2500  41.7500 Du        
  21194 ****        25.2500  13.2500  42.0000 Du        
  21195 ****        25.2500  13.2500  42.2500 Du        
  21196 ****        25.2500  13.2500  42.5000 Du        
  21197 ****        25.2500  13.2500  42.7500 Du        
  21198 ****        25.2500  13.2500  43.0000 Du        
  21199 ****        25.2500  13.5000  41.0000 Du        
  21200 ****        25.2500  13.5000  41.2500 Du        
  21201 ****        25.2500  13.5000  41.5000 Du        
  21202 ****        25.2500  13.5000  41.7500 Du        
  21203 ****        25.2500  13.5000  42.0000 Du        
  21204 ****        25.2500  13.5000  42.2500 Du        
  21205 ****        25.2500  13.5000  42.5000 Du        
  21206 ****        25.2500  13.5000  42.7500 Du        
  21207 ****        25.2500  13.5000  43.0000 Du        
  21208 ****        25.2500  13.7500  40.7500 Du        
  21209 ****        25.2500  13.7500  41.0000 Du        
  21210 ****        25.2500  13.7500  41.2500 Du        
  21211 ****        25.2500  13.7500  41.5000 Du        
  21212 ****        25.2500  13.7500  41.7500 Du        
  21213 ****        25.2500  13.7500  42.0000 Du        
  21214 ****        25.2500  13.7500  42.2500 Du        
  21215 ****        25.2500  13.7500  42.5000 Du        
  21216 ****        25.2500  13.7500  42.7500 Du        
  21217 ****        25.2500  13.7500  43.0000 Du        
  21218 ****        25.2500  14.0000  40.7500 Du        
  21219 ****        25.2500  14.0000  41.0000 Du        
  21220 ****        25.2500  14.0000  41.2500 Du        
  21221 ****        25.2500  14.0000  41.5000 Du        
  21222 ****        25.2500  14.0000  41.7500 Du        
  21223 ****        25.2500  14.0000  42.0000 Du        
  21224 ****        25.2500  14.0000  42.2500 Du        
  21225 ****        25.2500  14.0000  42.5000 Du        
  21226 ****        25.2500  14.0000  42.7500 Du        
  21227 ****        25.2500  14.0000  43.0000 Du        
  21228 ****        25.2500  14.2500  40.7500 Du        
  21229 ****        25.2500  14.2500  41.0000 Du        
  21230 ****        25.2500  14.2500  41.2500 Du        
  21231 ****        25.2500  14.2500  41.5000 Du        
  21232 ****        25.2500  14.2500  41.7500 Du        
  21233 ****        25.2500  14.2500  42.0000 Du        
  21234 ****        25.2500  14.2500  42.2500 Du        
  21235 ****        25.2500  14.2500  42.5000 Du        
  21236 ****        25.2500  14.2500  42.7500 Du        
  21237 ****        25.2500  14.2500  43.0000 Du        
  21238 ****        25.2500  14.5000  41.0000 Du        
  21239 ****        25.2500  14.5000  41.2500 Du        
  21240 ****        25.2500  14.5000  41.5000 Du        
  21241 ****        25.2500  14.5000  41.7500 Du        
  21242 ****        25.2500  14.5000  42.0000 Du        
  21243 ****        25.2500  14.5000  42.2500 Du        
  21244 ****        25.2500  14.5000  42.5000 Du        
  21245 ****        25.2500  14.5000  42.7500 Du        
  21246 ****        25.2500  14.5000  43.0000 Du        
  21247 ****        25.2500  14.7500  41.5000 Du        
  21248 ****        25.2500  14.7500  41.7500 Du        
  21249 ****        25.2500  14.7500  42.0000 Du        
  21250 ****        25.2500  14.7500  42.2500 Du        
  21251 ****        25.2500  14.7500  42.5000 Du        
  21252 ****        25.2500  14.7500  42.7500 Du        
  21253 ****        25.2500  15.0000  42.0000 Du        
  21254 ****        25.2500  15.0000  42.2500 Du        
  21255 ****        25.2500  15.0000  42.5000 Du        
  21256 ****        25.5000 -18.5000  41.0000 Du        
  21257 ****        25.5000 -18.5000  41.2500 Du        
  21258 ****        25.5000 -18.2500  41.0000 Du        
  21259 ****        25.5000 -18.2500  41.2500 Du        
  21260 ****        25.5000 -18.0000  41.0000 Du        
  21261 ****        25.5000  -9.5000  33.0000 Du        
  21262 ****        25.5000  -9.2500  32.7500 Du        
  21263 ****        25.5000  -9.2500  33.0000 Du        
  21264 ****        25.5000  -9.2500  33.2500 Du        
  21265 ****        25.5000  -9.2500  33.5000 Du        
  21266 ****        25.5000  -9.0000  32.5000 Du        
  21267 ****        25.5000  -9.0000  32.7500 Du        
  21268 ****        25.5000  -9.0000  33.0000 Du        
  21269 ****        25.5000  -9.0000  33.2500 Du        
  21270 ****        25.5000  -9.0000  33.5000 Du        
  21271 ****        25.5000  -9.0000  33.7500 Du        
  21272 ****        25.5000  -8.7500  32.5000 Du        
  21273 ****        25.5000  -8.7500  32.7500 Du        
  21274 ****        25.5000  -8.7500  33.0000 Du        
  21275 ****        25.5000  -8.7500  33.2500 Du        
  21276 ****        25.5000  -8.7500  33.5000 Du        
  21277 ****        25.5000  -8.7500  33.7500 Du        
  21278 ****        25.5000  -8.5000  32.5000 Du        
  21279 ****        25.5000  -8.5000  32.7500 Du        
  21280 ****        25.5000  -8.5000  33.0000 Du        
  21281 ****        25.5000  -8.5000  33.2500 Du        
  21282 ****        25.5000  -8.2500  32.5000 Du        
  21283 ****        25.5000  -8.2500  32.7500 Du        
  21284 ****        25.5000   6.0000  23.2500 Du        
  21285 ****        25.5000   6.2500  23.0000 Du        
  21286 ****        25.5000  11.7500  29.0000 Du        
  21287 ****        25.5000  11.7500  29.2500 Du        
  21288 ****        25.5000  12.0000  29.0000 Du        
  21289 ****        25.5000  12.0000  29.2500 Du        
  21290 ****        25.5000  13.0000  41.7500 Du        
  21291 ****        25.5000  13.0000  42.0000 Du        
  21292 ****        25.5000  13.2500  41.7500 Du        
  21293 ****        25.5000  13.2500  42.0000 Du        
  21294 ****        25.5000  13.2500  42.2500 Du        
  21295 ****        25.5000  13.2500  42.5000 Du        
  21296 ****        25.5000  13.2500  42.7500 Du        
  21297 ****        25.5000  13.5000  41.5000 Du        
  21298 ****        25.5000  13.5000  41.7500 Du        
  21299 ****        25.5000  13.5000  42.0000 Du        
  21300 ****        25.5000  13.5000  42.2500 Du        
  21301 ****        25.5000  13.5000  42.5000 Du        
  21302 ****        25.5000  13.5000  42.7500 Du        
  21303 ****        25.5000  13.5000  43.0000 Du        
  21304 ****        25.5000  13.7500  41.5000 Du        
  21305 ****        25.5000  13.7500  41.7500 Du        
  21306 ****        25.5000  13.7500  42.0000 Du        
  21307 ****        25.5000  13.7500  42.2500 Du        
  21308 ****        25.5000  13.7500  42.5000 Du        
  21309 ****        25.5000  13.7500  42.7500 Du        
  21310 ****        25.5000  13.7500  43.0000 Du        
  21311 ****        25.5000  14.0000  41.2500 Du        
  21312 ****        25.5000  14.0000  41.5000 Du        
  21313 ****        25.5000  14.0000  41.7500 Du        
  21314 ****        25.5000  14.0000  42.0000 Du        
  21315 ****        25.5000  14.0000  42.2500 Du        
  21316 ****        25.5000  14.0000  42.5000 Du        
  21317 ****        25.5000  14.0000  42.7500 Du        
  21318 ****        25.5000  14.0000  43.0000 Du        
  21319 ****        25.5000  14.2500  41.2500 Du        
  21320 ****        25.5000  14.2500  41.5000 Du        
  21321 ****        25.5000  14.2500  41.7500 Du        
  21322 ****        25.5000  14.2500  42.0000 Du        
  21323 ****        25.5000  14.2500  42.2500 Du        
  21324 ****        25.5000  14.2500  42.5000 Du        
  21325 ****        25.5000  14.2500  42.7500 Du        
  21326 ****        25.5000  14.2500  43.0000 Du        
  21327 ****        25.5000  14.5000  41.0000 Du        
  21328 ****        25.5000  14.5000  41.2500 Du        
  21329 ****        25.5000  14.5000  41.5000 Du        
  21330 ****        25.5000  14.5000  41.7500 Du        
  21331 ****        25.5000  14.5000  42.0000 Du        
  21332 ****        25.5000  14.5000  42.2500 Du        
  21333 ****        25.5000  14.5000  42.5000 Du        
  21334 ****        25.5000  14.5000  42.7500 Du        
  21335 ****        25.5000  14.5000  43.0000 Du        
  21336 ****        25.5000  14.7500  41.5000 Du        
  21337 ****        25.5000  14.7500  41.7500 Du        
  21338 ****        25.5000  14.7500  42.0000 Du        
  21339 ****        25.5000  14.7500  42.2500 Du        
  21340 ****        25.5000  14.7500  42.5000 Du        
  21341 ****        25.5000  14.7500  42.7500 Du        
  21342 ****        25.5000  14.7500  43.0000 Du        
  21343 ****        25.5000  15.0000  41.7500 Du        
  21344 ****        25.5000  15.0000  42.0000 Du        
  21345 ****        25.5000  15.0000  42.2500 Du        
  21346 ****        25.5000  15.0000  42.5000 Du        
  21347 ****        25.5000  15.0000  42.7500 Du        
  21348 ****        25.5000  15.2500  42.2500 Du        
  21349 ****        25.5000  15.2500  42.5000 Du        
  21350 ****        25.7500 -18.7500  41.0000 Du        
  21351 ****        25.7500 -18.7500  41.2500 Du        
  21352 ****        25.7500 -18.5000  40.7500 Du        
  21353 ****        25.7500 -18.5000  41.0000 Du        
  21354 ****        25.7500 -18.5000  41.2500 Du        
  21355 ****        25.7500 -18.2500  40.7500 Du        
  21356 ****        25.7500 -18.2500  41.0000 Du        
  21357 ****        25.7500 -18.2500  41.2500 Du        
  21358 ****        25.7500 -18.0000  40.7500 Du        
  21359 ****        25.7500 -18.0000  41.0000 Du        
  21360 ****        25.7500 -17.7500  40.7500 Du        
  21361 ****        25.7500 -17.7500  41.0000 Du        
  21362 ****        25.7500 -17.5000  40.7500 Du        
  21363 ****        25.7500  -9.2500  32.7500 Du        
  21364 ****        25.7500  -9.2500  33.0000 Du        
  21365 ****        25.7500  -9.0000  32.5000 Du        
  21366 ****        25.7500  -9.0000  32.7500 Du        
  21367 ****        25.7500  -9.0000  33.0000 Du        
  21368 ****        25.7500  -9.0000  33.2500 Du        
  21369 ****        25.7500  -9.0000  33.5000 Du        
  21370 ****        25.7500  -9.0000  33.7500 Du        
  21371 ****        25.7500  -8.7500  32.5000 Du        
  21372 ****        25.7500  -8.7500  32.7500 Du        
  21373 ****        25.7500  -8.7500  33.0000 Du        
  21374 ****        25.7500  -8.7500  33.2500 Du        
  21375 ****        25.7500  -8.7500  33.5000 Du        
  21376 ****        25.7500  -8.7500  33.7500 Du        
  21377 ****        25.7500  -8.5000  32.2500 Du        
  21378 ****        25.7500  -8.5000  32.5000 Du        
  21379 ****        25.7500  -8.5000  32.7500 Du        
  21380 ****        25.7500  -8.5000  33.0000 Du        
  21381 ****        25.7500  -8.5000  33.2500 Du        
  21382 ****        25.7500  -8.2500  32.5000 Du        
  21383 ****        25.7500  -8.2500  32.7500 Du        
  21384 ****        25.7500   6.0000  23.0000 Du        
  21385 ****        25.7500   6.0000  23.2500 Du        
  21386 ****        25.7500   6.2500  22.7500 Du        
  21387 ****        25.7500   6.2500  23.0000 Du        
  21388 ****        25.7500  11.7500  29.2500 Du        
  21389 ****        25.7500  12.0000  29.0000 Du        
  21390 ****        25.7500  12.0000  29.2500 Du        
  21391 ****        25.7500  13.2500  42.0000 Du        
  21392 ****        25.7500  13.2500  42.2500 Du        
  21393 ****        25.7500  13.2500  42.5000 Du        
  21394 ****        25.7500  13.2500  42.7500 Du        
  21395 ****        25.7500  13.5000  41.5000 Du        
  21396 ****        25.7500  13.5000  41.7500 Du        
  21397 ****        25.7500  13.5000  42.0000 Du        
  21398 ****        25.7500  13.5000  42.2500 Du        
  21399 ****        25.7500  13.5000  42.5000 Du        
  21400 ****        25.7500  13.5000  42.7500 Du        
  21401 ****        25.7500  13.5000  43.0000 Du        
  21402 ****        25.7500  13.7500  41.5000 Du        
  21403 ****        25.7500  13.7500  41.7500 Du        
  21404 ****        25.7500  13.7500  42.0000 Du        
  21405 ****        25.7500  13.7500  42.2500 Du        
  21406 ****        25.7500  13.7500  42.5000 Du        
  21407 ****        25.7500  13.7500  42.7500 Du        
  21408 ****        25.7500  13.7500  43.0000 Du        
  21409 ****        25.7500  14.0000  41.5000 Du        
  21410 ****        25.7500  14.0000  41.7500 Du        
  21411 ****        25.7500  14.0000  42.0000 Du        
  21412 ****        25.7500  14.0000  42.2500 Du        
  21413 ****        25.7500  14.0000  42.5000 Du        
  21414 ****        25.7500  14.0000  42.7500 Du        
  21415 ****        25.7500  14.0000  43.0000 Du        
  21416 ****        25.7500  14.0000  43.2500 Du        
  21417 ****        25.7500  14.2500  41.2500 Du        
  21418 ****        25.7500  14.2500  41.5000 Du        
  21419 ****        25.7500  14.2500  41.7500 Du        
  21420 ****        25.7500  14.2500  42.0000 Du        
  21421 ****        25.7500  14.2500  42.2500 Du        
  21422 ****        25.7500  14.2500  42.5000 Du        
  21423 ****        25.7500  14.2500  42.7500 Du        
  21424 ****        25.7500  14.2500  43.0000 Du        
  21425 ****        25.7500  14.2500  43.2500 Du        
  21426 ****        25.7500  14.5000  40.7500 Du        
  21427 ****        25.7500  14.5000  41.0000 Du        
  21428 ****        25.7500  14.5000  41.2500 Du        
  21429 ****        25.7500  14.5000  41.5000 Du        
  21430 ****        25.7500  14.5000  41.7500 Du        
  21431 ****        25.7500  14.5000  42.0000 Du        
  21432 ****        25.7500  14.5000  42.2500 Du        
  21433 ****        25.7500  14.5000  42.5000 Du        
  21434 ****        25.7500  14.5000  42.7500 Du        
  21435 ****        25.7500  14.5000  43.0000 Du        
  21436 ****        25.7500  14.5000  43.2500 Du        
  21437 ****        25.7500  14.7500  41.2500 Du        
  21438 ****        25.7500  14.7500  41.5000 Du        
  21439 ****        25.7500  14.7500  41.7500 Du        
  21440 ****        25.7500  14.7500  42.0000 Du        
  21441 ****        25.7500  14.7500  42.2500 Du        
  21442 ****        25.7500  14.7500  42.5000 Du        
  21443 ****        25.7500  14.7500  42.7500 Du        
  21444 ****        25.7500  14.7500  43.0000 Du        
  21445 ****        25.7500  14.7500  43.2500 Du        
  21446 ****        25.7500  15.0000  41.7500 Du        
  21447 ****        25.7500  15.0000  42.0000 Du        
  21448 ****        25.7500  15.0000  42.2500 Du        
  21449 ****        25.7500  15.0000  42.5000 Du        
  21450 ****        25.7500  15.0000  42.7500 Du        
  21451 ****        25.7500  15.0000  43.0000 Du        
  21452 ****        25.7500  15.2500  42.0000 Du        
  21453 ****        25.7500  15.2500  42.2500 Du        
  21454 ****        25.7500  15.2500  42.5000 Du        
  21455 ****        25.7500  15.2500  42.7500 Du        
  21456 ****        25.7500  15.5000  42.5000 Du        
  21457 ****        26.0000  -9.2500  32.5000 Du        
  21458 ****        26.0000  -9.2500  32.7500 Du        
  21459 ****        26.0000  -9.0000  32.5000 Du        
  21460 ****        26.0000  -9.0000  32.7500 Du        
  21461 ****        26.0000  -9.0000  33.0000 Du        
  21462 ****        26.0000  -9.0000  33.2500 Du        
  21463 ****        26.0000  -8.7500  32.5000 Du        
  21464 ****        26.0000  -8.7500  32.7500 Du        
  21465 ****        26.0000  -8.7500  33.0000 Du        
  21466 ****        26.0000  -8.7500  33.2500 Du        
  21467 ****        26.0000  -8.7500  33.5000 Du        
  21468 ****        26.0000  -8.5000  32.2500 Du        
  21469 ****        26.0000  -8.5000  32.5000 Du        
  21470 ****        26.0000  -8.5000  32.7500 Du        
  21471 ****        26.0000  -8.5000  33.0000 Du        
  21472 ****        26.0000  -8.2500  32.5000 Du        
  21473 ****        26.0000   6.0000  22.7500 Du        
  21474 ****        26.0000   6.0000  23.0000 Du        
  21475 ****        26.0000   6.2500  22.7500 Du        
  21476 ****        26.0000   8.0000  40.2500 Du        
  21477 ****        26.0000   8.0000  40.5000 Du        
  21478 ****        26.0000   8.2500  40.5000 Du        
  21479 ****        26.0000   8.2500  40.7500 Du        
  21480 ****        26.0000  11.7500  29.2500 Du        
  21481 ****        26.0000  12.0000  29.2500 Du        
  21482 ****        26.0000  13.5000  42.0000 Du        
  21483 ****        26.0000  13.5000  42.2500 Du        
  21484 ****        26.0000  13.5000  42.5000 Du        
  21485 ****        26.0000  13.5000  42.7500 Du        
  21486 ****        26.0000  13.7500  41.5000 Du        
  21487 ****        26.0000  13.7500  41.7500 Du        
  21488 ****        26.0000  13.7500  42.0000 Du        
  21489 ****        26.0000  13.7500  42.2500 Du        
  21490 ****        26.0000  13.7500  42.5000 Du        
  21491 ****        26.0000  13.7500  42.7500 Du        
  21492 ****        26.0000  13.7500  43.0000 Du        
  21493 ****        26.0000  13.7500  43.2500 Du        
  21494 ****        26.0000  14.0000  41.5000 Du        
  21495 ****        26.0000  14.0000  41.7500 Du        
  21496 ****        26.0000  14.0000  42.0000 Du        
  21497 ****        26.0000  14.0000  42.2500 Du        
  21498 ****        26.0000  14.0000  42.5000 Du        
  21499 ****        26.0000  14.0000  42.7500 Du        
  21500 ****        26.0000  14.0000  43.0000 Du        
  21501 ****        26.0000  14.0000  43.2500 Du        
  21502 ****        26.0000  14.2500  41.0000 Du        
  21503 ****        26.0000  14.2500  41.2500 Du        
  21504 ****        26.0000  14.2500  41.5000 Du        
  21505 ****        26.0000  14.2500  41.7500 Du        
  21506 ****        26.0000  14.2500  42.0000 Du        
  21507 ****        26.0000  14.2500  42.2500 Du        
  21508 ****        26.0000  14.2500  42.5000 Du        
  21509 ****        26.0000  14.2500  42.7500 Du        
  21510 ****        26.0000  14.2500  43.0000 Du        
  21511 ****        26.0000  14.2500  43.2500 Du        
  21512 ****        26.0000  14.5000  41.0000 Du        
  21513 ****        26.0000  14.5000  41.2500 Du        
  21514 ****        26.0000  14.5000  41.5000 Du        
  21515 ****        26.0000  14.5000  41.7500 Du        
  21516 ****        26.0000  14.5000  42.0000 Du        
  21517 ****        26.0000  14.5000  42.2500 Du        
  21518 ****        26.0000  14.5000  42.5000 Du        
  21519 ****        26.0000  14.5000  42.7500 Du        
  21520 ****        26.0000  14.5000  43.0000 Du        
  21521 ****        26.0000  14.5000  43.2500 Du        
  21522 ****        26.0000  14.5000  43.5000 Du        
  21523 ****        26.0000  14.7500  41.2500 Du        
  21524 ****        26.0000  14.7500  41.5000 Du        
  21525 ****        26.0000  14.7500  41.7500 Du        
  21526 ****        26.0000  14.7500  42.0000 Du        
  21527 ****        26.0000  14.7500  42.2500 Du        
  21528 ****        26.0000  14.7500  42.5000 Du        
  21529 ****        26.0000  14.7500  42.7500 Du        
  21530 ****        26.0000  14.7500  43.0000 Du        
  21531 ****        26.0000  14.7500  43.2500 Du        
  21532 ****        26.0000  14.7500  43.5000 Du        
  21533 ****        26.0000  15.0000  41.5000 Du        
  21534 ****        26.0000  15.0000  41.7500 Du        
  21535 ****        26.0000  15.0000  42.0000 Du        
  21536 ****        26.0000  15.0000  42.2500 Du        
  21537 ****        26.0000  15.0000  42.5000 Du        
  21538 ****        26.0000  15.0000  42.7500 Du        
  21539 ****        26.0000  15.0000  43.0000 Du        
  21540 ****        26.0000  15.0000  43.2500 Du        
  21541 ****        26.0000  15.2500  41.7500 Du        
  21542 ****        26.0000  15.2500  42.0000 Du        
  21543 ****        26.0000  15.2500  42.2500 Du        
  21544 ****        26.0000  15.2500  42.5000 Du        
  21545 ****        26.0000  15.2500  42.7500 Du        
  21546 ****        26.0000  15.2500  43.0000 Du        
  21547 ****        26.0000  15.5000  42.0000 Du        
  21548 ****        26.0000  15.5000  42.2500 Du        
  21549 ****        26.0000  15.5000  42.5000 Du        
  21550 ****        26.0000  15.5000  42.7500 Du        
  21551 ****        26.0000  15.5000  43.0000 Du        
  21552 ****        26.0000  15.7500  42.5000 Du        
  21553 ****        26.2500  -9.2500  32.5000 Du        
  21554 ****        26.2500  -9.0000  32.5000 Du        
  21555 ****        26.2500  -9.0000  32.7500 Du        
  21556 ****        26.2500  -8.7500  32.5000 Du        
  21557 ****        26.2500  -8.7500  32.7500 Du        
  21558 ****        26.2500  -8.7500  33.0000 Du        
  21559 ****        26.2500  -8.5000  32.2500 Du        
  21560 ****        26.2500  -8.5000  32.5000 Du        
  21561 ****        26.2500  -8.5000  32.7500 Du        
  21562 ****        26.2500   7.5000  39.7500 Du        
  21563 ****        26.2500   7.5000  40.0000 Du        
  21564 ****        26.2500   7.5000  40.2500 Du        
  21565 ****        26.2500   7.7500  40.0000 Du        
  21566 ****        26.2500   7.7500  40.2500 Du        
  21567 ****        26.2500   7.7500  40.5000 Du        
  21568 ****        26.2500   8.0000  40.0000 Du        
  21569 ****        26.2500   8.0000  40.2500 Du        
  21570 ****        26.2500   8.0000  40.5000 Du        
  21571 ****        26.2500   8.2500  40.2500 Du        
  21572 ****        26.2500   8.2500  40.5000 Du        
  21573 ****        26.2500   8.2500  40.7500 Du        
  21574 ****        26.2500  11.7500  29.2500 Du        
  21575 ****        26.2500  12.0000  29.2500 Du        
  21576 ****        26.2500  13.5000  42.5000 Du        
  21577 ****        26.2500  13.5000  42.7500 Du        
  21578 ****        26.2500  13.7500  42.0000 Du        
  21579 ****        26.2500  13.7500  42.2500 Du        
  21580 ****        26.2500  13.7500  42.5000 Du        
  21581 ****        26.2500  13.7500  42.7500 Du        
  21582 ****        26.2500  13.7500  43.0000 Du        
  21583 ****        26.2500  13.7500  43.2500 Du        
  21584 ****        26.2500  14.0000  41.7500 Du        
  21585 ****        26.2500  14.0000  42.0000 Du        
  21586 ****        26.2500  14.0000  42.2500 Du        
  21587 ****        26.2500  14.0000  42.5000 Du        
  21588 ****        26.2500  14.0000  42.7500 Du        
  21589 ****        26.2500  14.0000  43.0000 Du        
  21590 ****        26.2500  14.0000  43.2500 Du        
  21591 ****        26.2500  14.0000  43.5000 Du        
  21592 ****        26.2500  14.2500  41.7500 Du        
  21593 ****        26.2500  14.2500  42.0000 Du        
  21594 ****        26.2500  14.2500  42.2500 Du        
  21595 ****        26.2500  14.2500  42.5000 Du        
  21596 ****        26.2500  14.2500  42.7500 Du        
  21597 ****        26.2500  14.2500  43.0000 Du        
  21598 ****        26.2500  14.2500  43.2500 Du        
  21599 ****        26.2500  14.2500  43.5000 Du        
  21600 ****        26.2500  14.5000  41.2500 Du        
  21601 ****        26.2500  14.5000  41.5000 Du        
  21602 ****        26.2500  14.5000  41.7500 Du        
  21603 ****        26.2500  14.5000  42.0000 Du        
  21604 ****        26.2500  14.5000  42.2500 Du        
  21605 ****        26.2500  14.5000  42.5000 Du        
  21606 ****        26.2500  14.5000  42.7500 Du        
  21607 ****        26.2500  14.5000  43.0000 Du        
  21608 ****        26.2500  14.5000  43.2500 Du        
  21609 ****        26.2500  14.5000  43.5000 Du        
  21610 ****        26.2500  14.7500  41.2500 Du        
  21611 ****        26.2500  14.7500  41.5000 Du        
  21612 ****        26.2500  14.7500  41.7500 Du        
  21613 ****        26.2500  14.7500  42.0000 Du        
  21614 ****        26.2500  14.7500  42.2500 Du        
  21615 ****        26.2500  14.7500  42.5000 Du        
  21616 ****        26.2500  14.7500  42.7500 Du        
  21617 ****        26.2500  14.7500  43.0000 Du        
  21618 ****        26.2500  14.7500  43.2500 Du        
  21619 ****        26.2500  14.7500  43.5000 Du        
  21620 ****        26.2500  15.0000  41.2500 Du        
  21621 ****        26.2500  15.0000  41.5000 Du        
  21622 ****        26.2500  15.0000  41.7500 Du        
  21623 ****        26.2500  15.0000  42.0000 Du        
  21624 ****        26.2500  15.0000  42.2500 Du        
  21625 ****        26.2500  15.0000  42.5000 Du        
  21626 ****        26.2500  15.0000  42.7500 Du        
  21627 ****        26.2500  15.0000  43.0000 Du        
  21628 ****        26.2500  15.0000  43.2500 Du        
  21629 ****        26.2500  15.0000  43.5000 Du        
  21630 ****        26.2500  15.2500  41.7500 Du        
  21631 ****        26.2500  15.2500  42.0000 Du        
  21632 ****        26.2500  15.2500  42.2500 Du        
  21633 ****        26.2500  15.2500  42.5000 Du        
  21634 ****        26.2500  15.2500  42.7500 Du        
  21635 ****        26.2500  15.2500  43.0000 Du        
  21636 ****        26.2500  15.2500  43.2500 Du        
  21637 ****        26.2500  15.5000  42.0000 Du        
  21638 ****        26.2500  15.5000  42.2500 Du        
  21639 ****        26.2500  15.5000  42.5000 Du        
  21640 ****        26.2500  15.5000  42.7500 Du        
  21641 ****        26.2500  15.5000  43.0000 Du        
  21642 ****        26.2500  15.5000  43.2500 Du        
  21643 ****        26.2500  15.7500  42.2500 Du        
  21644 ****        26.2500  15.7500  42.5000 Du        
  21645 ****        26.2500  15.7500  42.7500 Du        
  21646 ****        26.2500  15.7500  43.0000 Du        
  21647 ****        26.2500  16.0000  42.5000 Du        
  21648 ****        26.2500  16.0000  42.7500 Du        
  21649 ****        26.5000  -9.0000  32.5000 Du        
  21650 ****        26.5000  -9.0000  32.7500 Du        
  21651 ****        26.5000  -8.7500  32.5000 Du        
  21652 ****        26.5000  -8.7500  32.7500 Du        
  21653 ****        26.5000  -8.5000  32.5000 Du        
  21654 ****        26.5000  -8.5000  32.7500 Du        
  21655 ****        26.5000   8.0000  40.5000 Du        
  21656 ****        26.5000  11.5000  29.2500 Du        
  21657 ****        26.5000  11.7500  29.2500 Du        
  21658 ****        26.5000  11.7500  29.5000 Du        
  21659 ****        26.5000  12.0000  29.0000 Du        
  21660 ****        26.5000  12.0000  29.2500 Du        
  21661 ****        26.5000  14.0000  42.2500 Du        
  21662 ****        26.5000  14.0000  42.5000 Du        
  21663 ****        26.5000  14.0000  42.7500 Du        
  21664 ****        26.5000  14.0000  43.0000 Du        
  21665 ****        26.5000  14.0000  43.2500 Du        
  21666 ****        26.5000  14.0000  43.5000 Du        
  21667 ****        26.5000  14.2500  42.0000 Du        
  21668 ****        26.5000  14.2500  42.2500 Du        
  21669 ****        26.5000  14.2500  42.5000 Du        
  21670 ****        26.5000  14.2500  42.7500 Du        
  21671 ****        26.5000  14.2500  43.0000 Du        
  21672 ****        26.5000  14.2500  43.2500 Du        
  21673 ****        26.5000  14.2500  43.5000 Du        
  21674 ****        26.5000  14.2500  43.7500 Du        
  21675 ****        26.5000  14.5000  41.7500 Du        
  21676 ****        26.5000  14.5000  42.0000 Du        
  21677 ****        26.5000  14.5000  42.2500 Du        
  21678 ****        26.5000  14.5000  42.5000 Du        
  21679 ****        26.5000  14.5000  42.7500 Du        
  21680 ****        26.5000  14.5000  43.0000 Du        
  21681 ****        26.5000  14.5000  43.2500 Du        
  21682 ****        26.5000  14.5000  43.5000 Du        
  21683 ****        26.5000  14.5000  43.7500 Du        
  21684 ****        26.5000  14.7500  41.7500 Du        
  21685 ****        26.5000  14.7500  42.0000 Du        
  21686 ****        26.5000  14.7500  42.2500 Du        
  21687 ****        26.5000  14.7500  42.5000 Du        
  21688 ****        26.5000  14.7500  42.7500 Du        
  21689 ****        26.5000  14.7500  43.0000 Du        
  21690 ****        26.5000  14.7500  43.2500 Du        
  21691 ****        26.5000  14.7500  43.5000 Du        
  21692 ****        26.5000  14.7500  43.7500 Du        
  21693 ****        26.5000  14.7500  44.0000 Du        
  21694 ****        26.5000  15.0000  41.7500 Du        
  21695 ****        26.5000  15.0000  42.0000 Du        
  21696 ****        26.5000  15.0000  42.2500 Du        
  21697 ****        26.5000  15.0000  42.5000 Du        
  21698 ****        26.5000  15.0000  42.7500 Du        
  21699 ****        26.5000  15.0000  43.0000 Du        
  21700 ****        26.5000  15.0000  43.2500 Du        
  21701 ****        26.5000  15.0000  43.5000 Du        
  21702 ****        26.5000  15.0000  43.7500 Du        
  21703 ****        26.5000  15.0000  44.0000 Du        
  21704 ****        26.5000  15.2500  41.7500 Du        
  21705 ****        26.5000  15.2500  42.0000 Du        
  21706 ****        26.5000  15.2500  42.2500 Du        
  21707 ****        26.5000  15.2500  42.5000 Du        
  21708 ****        26.5000  15.2500  42.7500 Du        
  21709 ****        26.5000  15.2500  43.0000 Du        
  21710 ****        26.5000  15.2500  43.2500 Du        
  21711 ****        26.5000  15.2500  43.5000 Du        
  21712 ****        26.5000  15.2500  43.7500 Du        
  21713 ****        26.5000  15.2500  44.0000 Du        
  21714 ****        26.5000  15.5000  41.7500 Du        
  21715 ****        26.5000  15.5000  42.0000 Du        
  21716 ****        26.5000  15.5000  42.2500 Du        
  21717 ****        26.5000  15.5000  42.5000 Du        
  21718 ****        26.5000  15.5000  42.7500 Du        
  21719 ****        26.5000  15.5000  43.0000 Du        
  21720 ****        26.5000  15.5000  43.2500 Du        
  21721 ****        26.5000  15.5000  43.5000 Du        
  21722 ****        26.5000  15.5000  43.7500 Du        
  21723 ****        26.5000  15.7500  42.0000 Du        
  21724 ****        26.5000  15.7500  42.2500 Du        
  21725 ****        26.5000  15.7500  42.5000 Du        
  21726 ****        26.5000  15.7500  42.7500 Du        
  21727 ****        26.5000  15.7500  43.0000 Du        
  21728 ****        26.5000  15.7500  43.2500 Du        
  21729 ****        26.5000  15.7500  43.5000 Du        
  21730 ****        26.5000  16.0000  42.2500 Du        
  21731 ****        26.5000  16.0000  42.5000 Du        
  21732 ****        26.5000  16.0000  42.7500 Du        
  21733 ****        26.5000  16.0000  43.0000 Du        
  21734 ****        26.5000  16.0000  43.2500 Du        
  21735 ****        26.5000  16.0000  43.5000 Du        
  21736 ****        26.5000  16.2500  42.5000 Du        
  21737 ****        26.5000  16.2500  42.7500 Du        
  21738 ****        26.5000  16.2500  43.0000 Du        
  21739 ****        26.7500  -9.0000  32.2500 Du        
  21740 ****        26.7500  -9.0000  32.5000 Du        
  21741 ****        26.7500  -8.7500  32.2500 Du        
  21742 ****        26.7500  -8.7500  32.5000 Du        
  21743 ****        26.7500  -8.5000  32.5000 Du        
  21744 ****        26.7500   7.2500  40.0000 Du        
  21745 ****        26.7500  11.2500  29.2500 Du        
  21746 ****        26.7500  11.5000  29.2500 Du        
  21747 ****        26.7500  11.5000  29.5000 Du        
  21748 ****        26.7500  11.5000  29.7500 Du        
  21749 ****        26.7500  11.7500  29.2500 Du        
  21750 ****        26.7500  11.7500  29.5000 Du        
  21751 ****        26.7500  12.0000  29.0000 Du        
  21752 ****        26.7500  12.0000  29.2500 Du        
  21753 ****        26.7500  14.0000  42.2500 Du        
  21754 ****        26.7500  14.0000  42.5000 Du        
  21755 ****        26.7500  14.0000  42.7500 Du        
  21756 ****        26.7500  14.0000  43.0000 Du        
  21757 ****        26.7500  14.0000  43.2500 Du        
  21758 ****        26.7500  14.0000  43.5000 Du        
  21759 ****        26.7500  14.0000  43.7500 Du        
  21760 ****        26.7500  14.2500  42.0000 Du        
  21761 ****        26.7500  14.2500  42.2500 Du        
  21762 ****        26.7500  14.2500  42.5000 Du        
  21763 ****        26.7500  14.2500  42.7500 Du        
  21764 ****        26.7500  14.2500  43.0000 Du        
  21765 ****        26.7500  14.2500  43.2500 Du        
  21766 ****        26.7500  14.2500  43.5000 Du        
  21767 ****        26.7500  14.2500  43.7500 Du        
  21768 ****        26.7500  14.2500  44.0000 Du        
  21769 ****        26.7500  14.5000  41.7500 Du        
  21770 ****        26.7500  14.5000  42.0000 Du        
  21771 ****        26.7500  14.5000  42.2500 Du        
  21772 ****        26.7500  14.5000  42.5000 Du        
  21773 ****        26.7500  14.5000  42.7500 Du        
  21774 ****        26.7500  14.5000  43.0000 Du        
  21775 ****        26.7500  14.5000  43.2500 Du        
  21776 ****        26.7500  14.5000  43.5000 Du        
  21777 ****        26.7500  14.5000  43.7500 Du        
  21778 ****        26.7500  14.5000  44.0000 Du        
  21779 ****        26.7500  14.5000  44.2500 Du        
  21780 ****        26.7500  14.7500  41.5000 Du        
  21781 ****        26.7500  14.7500  41.7500 Du        
  21782 ****        26.7500  14.7500  42.0000 Du        
  21783 ****        26.7500  14.7500  42.2500 Du        
  21784 ****        26.7500  14.7500  42.5000 Du        
  21785 ****        26.7500  14.7500  42.7500 Du        
  21786 ****        26.7500  14.7500  43.0000 Du        
  21787 ****        26.7500  14.7500  43.2500 Du        
  21788 ****        26.7500  14.7500  43.5000 Du        
  21789 ****        26.7500  14.7500  43.7500 Du        
  21790 ****        26.7500  14.7500  44.0000 Du        
  21791 ****        26.7500  14.7500  44.2500 Du        
  21792 ****        26.7500  15.0000  41.7500 Du        
  21793 ****        26.7500  15.0000  42.0000 Du        
  21794 ****        26.7500  15.0000  42.2500 Du        
  21795 ****        26.7500  15.0000  42.5000 Du        
  21796 ****        26.7500  15.0000  42.7500 Du        
  21797 ****        26.7500  15.0000  43.0000 Du        
  21798 ****        26.7500  15.0000  43.2500 Du        
  21799 ****        26.7500  15.0000  43.5000 Du        
  21800 ****        26.7500  15.0000  43.7500 Du        
  21801 ****        26.7500  15.0000  44.0000 Du        
  21802 ****        26.7500  15.0000  44.2500 Du        
  21803 ****        26.7500  15.0000  44.5000 Du        
  21804 ****        26.7500  15.2500  41.7500 Du        
  21805 ****        26.7500  15.2500  42.0000 Du        
  21806 ****        26.7500  15.2500  42.2500 Du        
  21807 ****        26.7500  15.2500  42.5000 Du        
  21808 ****        26.7500  15.2500  42.7500 Du        
  21809 ****        26.7500  15.2500  43.0000 Du        
  21810 ****        26.7500  15.2500  43.2500 Du        
  21811 ****        26.7500  15.2500  43.5000 Du        
  21812 ****        26.7500  15.2500  43.7500 Du        
  21813 ****        26.7500  15.2500  44.0000 Du        
  21814 ****        26.7500  15.2500  44.2500 Du        
  21815 ****        26.7500  15.2500  44.5000 Du        
  21816 ****        26.7500  15.5000  42.0000 Du        
  21817 ****        26.7500  15.5000  42.2500 Du        
  21818 ****        26.7500  15.5000  42.5000 Du        
  21819 ****        26.7500  15.5000  42.7500 Du        
  21820 ****        26.7500  15.5000  43.0000 Du        
  21821 ****        26.7500  15.5000  43.2500 Du        
  21822 ****        26.7500  15.5000  43.5000 Du        
  21823 ****        26.7500  15.5000  43.7500 Du        
  21824 ****        26.7500  15.5000  44.0000 Du        
  21825 ****        26.7500  15.5000  44.2500 Du        
  21826 ****        26.7500  15.5000  44.5000 Du        
  21827 ****        26.7500  15.7500  42.2500 Du        
  21828 ****        26.7500  15.7500  42.5000 Du        
  21829 ****        26.7500  15.7500  42.7500 Du        
  21830 ****        26.7500  15.7500  43.0000 Du        
  21831 ****        26.7500  15.7500  43.2500 Du        
  21832 ****        26.7500  15.7500  43.5000 Du        
  21833 ****        26.7500  15.7500  43.7500 Du        
  21834 ****        26.7500  15.7500  44.0000 Du        
  21835 ****        26.7500  15.7500  44.2500 Du        
  21836 ****        26.7500  15.7500  44.5000 Du        
  21837 ****        26.7500  16.0000  42.2500 Du        
  21838 ****        26.7500  16.0000  42.5000 Du        
  21839 ****        26.7500  16.0000  42.7500 Du        
  21840 ****        26.7500  16.0000  43.0000 Du        
  21841 ****        26.7500  16.0000  43.2500 Du        
  21842 ****        26.7500  16.0000  43.5000 Du        
  21843 ****        26.7500  16.0000  43.7500 Du        
  21844 ****        26.7500  16.0000  44.0000 Du        
  21845 ****        26.7500  16.0000  44.2500 Du        
  21846 ****        26.7500  16.2500  42.5000 Du        
  21847 ****        26.7500  16.2500  42.7500 Du        
  21848 ****        26.7500  16.2500  43.0000 Du        
  21849 ****        26.7500  16.2500  43.2500 Du        
  21850 ****        26.7500  16.2500  43.5000 Du        
  21851 ****        26.7500  16.2500  43.7500 Du        
  21852 ****        26.7500  16.2500  44.0000 Du        
  21853 ****        26.7500  16.5000  42.7500 Du        
  21854 ****        26.7500  16.5000  43.0000 Du        
  21855 ****        26.7500  16.5000  43.2500 Du        
  21856 ****        26.7500  16.5000  43.5000 Du        
  21857 ****        26.7500  16.7500  43.0000 Du        
  21858 ****        26.7500  16.7500  43.2500 Du        
  21859 ****        27.0000   7.2500  40.0000 Du        
  21860 ****        27.0000  11.2500  29.2500 Du        
  21861 ****        27.0000  11.5000  29.2500 Du        
  21862 ****        27.0000  11.5000  29.5000 Du        
  21863 ****        27.0000  11.5000  29.7500 Du        
  21864 ****        27.0000  11.7500  29.0000 Du        
  21865 ****        27.0000  11.7500  29.2500 Du        
  21866 ****        27.0000  11.7500  29.5000 Du        
  21867 ****        27.0000  11.7500  29.7500 Du        
  21868 ****        27.0000  12.0000  29.0000 Du        
  21869 ****        27.0000  12.0000  29.2500 Du        
  21870 ****        27.0000  12.0000  29.5000 Du        
  21871 ****        27.0000  12.2500  29.0000 Du        
  21872 ****        27.0000  13.7500  43.0000 Du        
  21873 ****        27.0000  14.0000  42.5000 Du        
  21874 ****        27.0000  14.0000  42.7500 Du        
  21875 ****        27.0000  14.0000  43.0000 Du        
  21876 ****        27.0000  14.0000  43.2500 Du        
  21877 ****        27.0000  14.0000  43.5000 Du        
  21878 ****        27.0000  14.0000  43.7500 Du        
  21879 ****        27.0000  14.0000  44.0000 Du        
  21880 ****        27.0000  14.0000  44.2500 Du        
  21881 ****        27.0000  14.2500  42.0000 Du        
  21882 ****        27.0000  14.2500  42.2500 Du        
  21883 ****        27.0000  14.2500  42.5000 Du        
  21884 ****        27.0000  14.2500  42.7500 Du        
  21885 ****        27.0000  14.2500  43.0000 Du        
  21886 ****        27.0000  14.2500  43.2500 Du        
  21887 ****        27.0000  14.2500  43.5000 Du        
  21888 ****        27.0000  14.2500  43.7500 Du        
  21889 ****        27.0000  14.2500  44.0000 Du        
  21890 ****        27.0000  14.2500  44.2500 Du        
  21891 ****        27.0000  14.2500  44.5000 Du        
  21892 ****        27.0000  14.5000  42.0000 Du        
  21893 ****        27.0000  14.5000  42.2500 Du        
  21894 ****        27.0000  14.5000  42.5000 Du        
  21895 ****        27.0000  14.5000  42.7500 Du        
  21896 ****        27.0000  14.5000  43.0000 Du        
  21897 ****        27.0000  14.5000  43.2500 Du        
  21898 ****        27.0000  14.5000  43.5000 Du        
  21899 ****        27.0000  14.5000  43.7500 Du        
  21900 ****        27.0000  14.5000  44.0000 Du        
  21901 ****        27.0000  14.5000  44.2500 Du        
  21902 ****        27.0000  14.5000  44.5000 Du        
  21903 ****        27.0000  14.7500  41.7500 Du        
  21904 ****        27.0000  14.7500  42.0000 Du        
  21905 ****        27.0000  14.7500  42.2500 Du        
  21906 ****        27.0000  14.7500  42.5000 Du        
  21907 ****        27.0000  14.7500  42.7500 Du        
  21908 ****        27.0000  14.7500  43.0000 Du        
  21909 ****        27.0000  14.7500  43.2500 Du        
  21910 ****        27.0000  14.7500  43.5000 Du        
  21911 ****        27.0000  14.7500  43.7500 Du        
  21912 ****        27.0000  14.7500  44.0000 Du        
  21913 ****        27.0000  14.7500  44.2500 Du        
  21914 ****        27.0000  14.7500  44.5000 Du        
  21915 ****        27.0000  14.7500  44.7500 Du        
  21916 ****        27.0000  15.0000  42.0000 Du        
  21917 ****        27.0000  15.0000  42.2500 Du        
  21918 ****        27.0000  15.0000  42.5000 Du        
  21919 ****        27.0000  15.0000  42.7500 Du        
  21920 ****        27.0000  15.0000  43.0000 Du        
  21921 ****        27.0000  15.0000  43.2500 Du        
  21922 ****        27.0000  15.0000  43.5000 Du        
  21923 ****        27.0000  15.0000  43.7500 Du        
  21924 ****        27.0000  15.0000  44.0000 Du        
  21925 ****        27.0000  15.0000  44.2500 Du        
  21926 ****        27.0000  15.0000  44.5000 Du        
  21927 ****        27.0000  15.0000  44.7500 Du        
  21928 ****        27.0000  15.0000  45.0000 Du        
  21929 ****        27.0000  15.2500  42.0000 Du        
  21930 ****        27.0000  15.2500  42.2500 Du        
  21931 ****        27.0000  15.2500  42.5000 Du        
  21932 ****        27.0000  15.2500  42.7500 Du        
  21933 ****        27.0000  15.2500  43.0000 Du        
  21934 ****        27.0000  15.2500  43.2500 Du        
  21935 ****        27.0000  15.2500  43.5000 Du        
  21936 ****        27.0000  15.2500  43.7500 Du        
  21937 ****        27.0000  15.2500  44.0000 Du        
  21938 ****        27.0000  15.2500  44.2500 Du        
  21939 ****        27.0000  15.2500  44.5000 Du        
  21940 ****        27.0000  15.2500  44.7500 Du        
  21941 ****        27.0000  15.2500  45.0000 Du        
  21942 ****        27.0000  15.5000  42.2500 Du        
  21943 ****        27.0000  15.5000  42.5000 Du        
  21944 ****        27.0000  15.5000  42.7500 Du        
  21945 ****        27.0000  15.5000  43.0000 Du        
  21946 ****        27.0000  15.5000  43.2500 Du        
  21947 ****        27.0000  15.5000  43.5000 Du        
  21948 ****        27.0000  15.5000  43.7500 Du        
  21949 ****        27.0000  15.5000  44.0000 Du        
  21950 ****        27.0000  15.5000  44.2500 Du        
  21951 ****        27.0000  15.5000  44.5000 Du        
  21952 ****        27.0000  15.5000  44.7500 Du        
  21953 ****        27.0000  15.5000  45.0000 Du        
  21954 ****        27.0000  15.7500  42.2500 Du        
  21955 ****        27.0000  15.7500  42.5000 Du        
  21956 ****        27.0000  15.7500  42.7500 Du        
  21957 ****        27.0000  15.7500  43.0000 Du        
  21958 ****        27.0000  15.7500  43.2500 Du        
  21959 ****        27.0000  15.7500  43.5000 Du        
  21960 ****        27.0000  15.7500  43.7500 Du        
  21961 ****        27.0000  15.7500  44.0000 Du        
  21962 ****        27.0000  15.7500  44.2500 Du        
  21963 ****        27.0000  15.7500  44.5000 Du        
  21964 ****        27.0000  15.7500  44.7500 Du        
  21965 ****        27.0000  15.7500  45.0000 Du        
  21966 ****        27.0000  16.0000  42.5000 Du        
  21967 ****        27.0000  16.0000  42.7500 Du        
  21968 ****        27.0000  16.0000  43.0000 Du        
  21969 ****        27.0000  16.0000  43.2500 Du        
  21970 ****        27.0000  16.0000  43.5000 Du        
  21971 ****        27.0000  16.0000  43.7500 Du        
  21972 ****        27.0000  16.0000  44.0000 Du        
  21973 ****        27.0000  16.0000  44.2500 Du        
  21974 ****        27.0000  16.0000  44.5000 Du        
  21975 ****        27.0000  16.0000  44.7500 Du        
  21976 ****        27.0000  16.2500  42.7500 Du        
  21977 ****        27.0000  16.2500  43.0000 Du        
  21978 ****        27.0000  16.2500  43.2500 Du        
  21979 ****        27.0000  16.2500  43.5000 Du        
  21980 ****        27.0000  16.2500  43.7500 Du        
  21981 ****        27.0000  16.2500  44.0000 Du        
  21982 ****        27.0000  16.2500  44.2500 Du        
  21983 ****        27.0000  16.2500  44.5000 Du        
  21984 ****        27.0000  16.5000  42.7500 Du        
  21985 ****        27.0000  16.5000  43.0000 Du        
  21986 ****        27.0000  16.5000  43.2500 Du        
  21987 ****        27.0000  16.5000  43.5000 Du        
  21988 ****        27.0000  16.5000  43.7500 Du        
  21989 ****        27.0000  16.5000  44.0000 Du        
  21990 ****        27.0000  16.5000  44.2500 Du        
  21991 ****        27.0000  16.7500  43.0000 Du        
  21992 ****        27.0000  16.7500  43.2500 Du        
  21993 ****        27.0000  16.7500  43.5000 Du        
  21994 ****        27.0000  16.7500  43.7500 Du        
  21995 ****        27.2500   6.7500  22.7500 Du        
  21996 ****        27.2500  11.2500  29.2500 Du        
  21997 ****        27.2500  11.5000  29.2500 Du        
  21998 ****        27.2500  11.5000  29.5000 Du        
  21999 ****        27.2500  11.5000  29.7500 Du        
  22000 ****        27.2500  11.7500  29.0000 Du        
  22001 ****        27.2500  11.7500  29.2500 Du        
  22002 ****        27.2500  11.7500  29.5000 Du        
  22003 ****        27.2500  11.7500  29.7500 Du        
  22004 ****        27.2500  12.0000  29.0000 Du        
  22005 ****        27.2500  12.0000  29.2500 Du        
  22006 ****        27.2500  12.0000  29.5000 Du        
  22007 ****        27.2500  12.0000  29.7500 Du        
  22008 ****        27.2500  12.2500  29.0000 Du        
  22009 ****        27.2500  12.2500  29.2500 Du        
  22010 ****        27.2500  13.7500  43.0000 Du        
  22011 ****        27.2500  13.7500  43.2500 Du        
  22012 ****        27.2500  13.7500  43.5000 Du        
  22013 ****        27.2500  14.0000  42.5000 Du        
  22014 ****        27.2500  14.0000  42.7500 Du        
  22015 ****        27.2500  14.0000  43.0000 Du        
  22016 ****        27.2500  14.0000  43.2500 Du        
  22017 ****        27.2500  14.0000  43.5000 Du        
  22018 ****        27.2500  14.0000  43.7500 Du        
  22019 ****        27.2500  14.0000  44.0000 Du        
  22020 ****        27.2500  14.0000  44.2500 Du        
  22021 ****        27.2500  14.0000  44.5000 Du        
  22022 ****        27.2500  14.2500  42.2500 Du        
  22023 ****        27.2500  14.2500  42.5000 Du        
  22024 ****        27.2500  14.2500  42.7500 Du        
  22025 ****        27.2500  14.2500  43.0000 Du        
  22026 ****        27.2500  14.2500  43.2500 Du        
  22027 ****        27.2500  14.2500  43.5000 Du        
  22028 ****        27.2500  14.2500  43.7500 Du        
  22029 ****        27.2500  14.2500  44.0000 Du        
  22030 ****        27.2500  14.2500  44.2500 Du        
  22031 ****        27.2500  14.2500  44.5000 Du        
  22032 ****        27.2500  14.2500  44.7500 Du        
  22033 ****        27.2500  14.5000  42.2500 Du        
  22034 ****        27.2500  14.5000  42.5000 Du        
  22035 ****        27.2500  14.5000  42.7500 Du        
  22036 ****        27.2500  14.5000  43.0000 Du        
  22037 ****        27.2500  14.5000  43.2500 Du        
  22038 ****        27.2500  14.5000  43.5000 Du        
  22039 ****        27.2500  14.5000  43.7500 Du        
  22040 ****        27.2500  14.5000  44.0000 Du        
  22041 ****        27.2500  14.5000  44.2500 Du        
  22042 ****        27.2500  14.5000  44.5000 Du        
  22043 ****        27.2500  14.5000  44.7500 Du        
  22044 ****        27.2500  14.7500  42.0000 Du        
  22045 ****        27.2500  14.7500  42.2500 Du        
  22046 ****        27.2500  14.7500  42.5000 Du        
  22047 ****        27.2500  14.7500  42.7500 Du        
  22048 ****        27.2500  14.7500  43.0000 Du        
  22049 ****        27.2500  14.7500  43.2500 Du        
  22050 ****        27.2500  14.7500  43.5000 Du        
  22051 ****        27.2500  14.7500  43.7500 Du        
  22052 ****        27.2500  14.7500  44.0000 Du        
  22053 ****        27.2500  14.7500  44.2500 Du        
  22054 ****        27.2500  14.7500  44.5000 Du        
  22055 ****        27.2500  14.7500  44.7500 Du        
  22056 ****        27.2500  14.7500  45.0000 Du        
  22057 ****        27.2500  15.0000  42.2500 Du        
  22058 ****        27.2500  15.0000  42.5000 Du        
  22059 ****        27.2500  15.0000  42.7500 Du        
  22060 ****        27.2500  15.0000  43.0000 Du        
  22061 ****        27.2500  15.0000  43.2500 Du        
  22062 ****        27.2500  15.0000  43.5000 Du        
  22063 ****        27.2500  15.0000  43.7500 Du        
  22064 ****        27.2500  15.0000  44.0000 Du        
  22065 ****        27.2500  15.0000  44.2500 Du        
  22066 ****        27.2500  15.0000  44.5000 Du        
  22067 ****        27.2500  15.0000  44.7500 Du        
  22068 ****        27.2500  15.0000  45.0000 Du        
  22069 ****        27.2500  15.2500  42.2500 Du        
  22070 ****        27.2500  15.2500  42.5000 Du        
  22071 ****        27.2500  15.2500  42.7500 Du        
  22072 ****        27.2500  15.2500  43.0000 Du        
  22073 ****        27.2500  15.2500  43.2500 Du        
  22074 ****        27.2500  15.2500  43.5000 Du        
  22075 ****        27.2500  15.2500  43.7500 Du        
  22076 ****        27.2500  15.2500  44.0000 Du        
  22077 ****        27.2500  15.2500  44.2500 Du        
  22078 ****        27.2500  15.2500  44.5000 Du        
  22079 ****        27.2500  15.2500  44.7500 Du        
  22080 ****        27.2500  15.2500  45.0000 Du        
  22081 ****        27.2500  15.5000  42.5000 Du        
  22082 ****        27.2500  15.5000  42.7500 Du        
  22083 ****        27.2500  15.5000  43.0000 Du        
  22084 ****        27.2500  15.5000  43.2500 Du        
  22085 ****        27.2500  15.5000  43.5000 Du        
  22086 ****        27.2500  15.5000  43.7500 Du        
  22087 ****        27.2500  15.5000  44.0000 Du        
  22088 ****        27.2500  15.5000  44.2500 Du        
  22089 ****        27.2500  15.5000  44.5000 Du        
  22090 ****        27.2500  15.5000  44.7500 Du        
  22091 ****        27.2500  15.5000  45.0000 Du        
  22092 ****        27.2500  15.5000  45.2500 Du        
  22093 ****        27.2500  15.7500  42.7500 Du        
  22094 ****        27.2500  15.7500  43.0000 Du        
  22095 ****        27.2500  15.7500  43.2500 Du        
  22096 ****        27.2500  15.7500  43.5000 Du        
  22097 ****        27.2500  15.7500  43.7500 Du        
  22098 ****        27.2500  15.7500  44.0000 Du        
  22099 ****        27.2500  15.7500  44.2500 Du        
  22100 ****        27.2500  15.7500  44.5000 Du        
  22101 ****        27.2500  15.7500  44.7500 Du        
  22102 ****        27.2500  15.7500  45.0000 Du        
  22103 ****        27.2500  15.7500  45.2500 Du        
  22104 ****        27.2500  16.0000  42.7500 Du        
  22105 ****        27.2500  16.0000  43.0000 Du        
  22106 ****        27.2500  16.0000  43.2500 Du        
  22107 ****        27.2500  16.0000  43.5000 Du        
  22108 ****        27.2500  16.0000  43.7500 Du        
  22109 ****        27.2500  16.0000  44.0000 Du        
  22110 ****        27.2500  16.0000  44.2500 Du        
  22111 ****        27.2500  16.0000  44.5000 Du        
  22112 ****        27.2500  16.0000  44.7500 Du        
  22113 ****        27.2500  16.0000  45.0000 Du        
  22114 ****        27.2500  16.2500  43.0000 Du        
  22115 ****        27.2500  16.2500  43.2500 Du        
  22116 ****        27.2500  16.2500  43.5000 Du        
  22117 ****        27.2500  16.2500  43.7500 Du        
  22118 ****        27.2500  16.2500  44.0000 Du        
  22119 ****        27.2500  16.2500  44.2500 Du        
  22120 ****        27.2500  16.2500  44.5000 Du        
  22121 ****        27.2500  16.2500  44.7500 Du        
  22122 ****        27.2500  16.5000  43.0000 Du        
  22123 ****        27.2500  16.5000  43.2500 Du        
  22124 ****        27.2500  16.5000  43.5000 Du        
  22125 ****        27.2500  16.5000  43.7500 Du        
  22126 ****        27.2500  16.5000  44.0000 Du        
  22127 ****        27.2500  16.5000  44.2500 Du        
  22128 ****        27.2500  16.7500  43.2500 Du        
  22129 ****        27.2500  16.7500  43.5000 Du        
  22130 ****        27.2500  16.7500  43.7500 Du        
  22131 ****        27.2500  16.7500  44.0000 Du        
  22132 ****        27.5000  11.5000  29.0000 Du        
  22133 ****        27.5000  11.5000  29.2500 Du        
  22134 ****        27.5000  11.5000  29.5000 Du        
  22135 ****        27.5000  11.5000  29.7500 Du        
  22136 ****        27.5000  11.7500  29.0000 Du        
  22137 ****        27.5000  11.7500  29.2500 Du        
  22138 ****        27.5000  11.7500  29.5000 Du        
  22139 ****        27.5000  11.7500  29.7500 Du        
  22140 ****        27.5000  12.0000  29.0000 Du        
  22141 ****        27.5000  12.0000  29.2500 Du        
  22142 ****        27.5000  12.0000  29.5000 Du        
  22143 ****        27.5000  12.0000  29.7500 Du        
  22144 ****        27.5000  12.2500  28.7500 Du        
  22145 ****        27.5000  12.2500  29.0000 Du        
  22146 ****        27.5000  12.2500  29.2500 Du        
  22147 ****        27.5000  12.5000  28.7500 Du        
  22148 ****        27.5000  12.5000  29.0000 Du        
  22149 ****        27.5000  13.7500  43.5000 Du        
  22150 ****        27.5000  13.7500  43.7500 Du        
  22151 ****        27.5000  13.7500  44.0000 Du        
  22152 ****        27.5000  14.0000  42.7500 Du        
  22153 ****        27.5000  14.0000  43.0000 Du        
  22154 ****        27.5000  14.0000  43.2500 Du        
  22155 ****        27.5000  14.0000  43.5000 Du        
  22156 ****        27.5000  14.0000  43.7500 Du        
  22157 ****        27.5000  14.0000  44.0000 Du        
  22158 ****        27.5000  14.0000  44.2500 Du        
  22159 ****        27.5000  14.0000  44.5000 Du        
  22160 ****        27.5000  14.2500  42.7500 Du        
  22161 ****        27.5000  14.2500  43.0000 Du        
  22162 ****        27.5000  14.2500  43.2500 Du        
  22163 ****        27.5000  14.2500  43.5000 Du        
  22164 ****        27.5000  14.2500  43.7500 Du        
  22165 ****        27.5000  14.2500  44.0000 Du        
  22166 ****        27.5000  14.2500  44.2500 Du        
  22167 ****        27.5000  14.2500  44.5000 Du        
  22168 ****        27.5000  14.5000  42.5000 Du        
  22169 ****        27.5000  14.5000  42.7500 Du        
  22170 ****        27.5000  14.5000  43.0000 Du        
  22171 ****        27.5000  14.5000  43.2500 Du        
  22172 ****        27.5000  14.5000  43.5000 Du        
  22173 ****        27.5000  14.5000  43.7500 Du        
  22174 ****        27.5000  14.5000  44.0000 Du        
  22175 ****        27.5000  14.5000  44.2500 Du        
  22176 ****        27.5000  14.5000  44.5000 Du        
  22177 ****        27.5000  14.5000  44.7500 Du        
  22178 ****        27.5000  14.7500  42.5000 Du        
  22179 ****        27.5000  14.7500  42.7500 Du        
  22180 ****        27.5000  14.7500  43.0000 Du        
  22181 ****        27.5000  14.7500  43.2500 Du        
  22182 ****        27.5000  14.7500  43.5000 Du        
  22183 ****        27.5000  14.7500  43.7500 Du        
  22184 ****        27.5000  14.7500  44.0000 Du        
  22185 ****        27.5000  14.7500  44.2500 Du        
  22186 ****        27.5000  14.7500  44.5000 Du        
  22187 ****        27.5000  14.7500  44.7500 Du        
  22188 ****        27.5000  15.0000  42.5000 Du        
  22189 ****        27.5000  15.0000  42.7500 Du        
  22190 ****        27.5000  15.0000  43.0000 Du        
  22191 ****        27.5000  15.0000  43.2500 Du        
  22192 ****        27.5000  15.0000  43.5000 Du        
  22193 ****        27.5000  15.0000  43.7500 Du        
  22194 ****        27.5000  15.0000  44.0000 Du        
  22195 ****        27.5000  15.0000  44.2500 Du        
  22196 ****        27.5000  15.0000  44.5000 Du        
  22197 ****        27.5000  15.0000  44.7500 Du        
  22198 ****        27.5000  15.0000  45.0000 Du        
  22199 ****        27.5000  15.2500  42.7500 Du        
  22200 ****        27.5000  15.2500  43.0000 Du        
  22201 ****        27.5000  15.2500  43.2500 Du        
  22202 ****        27.5000  15.2500  43.5000 Du        
  22203 ****        27.5000  15.2500  43.7500 Du        
  22204 ****        27.5000  15.2500  44.0000 Du        
  22205 ****        27.5000  15.2500  44.2500 Du        
  22206 ****        27.5000  15.2500  44.5000 Du        
  22207 ****        27.5000  15.2500  44.7500 Du        
  22208 ****        27.5000  15.2500  45.0000 Du        
  22209 ****        27.5000  15.5000  43.0000 Du        
  22210 ****        27.5000  15.5000  43.2500 Du        
  22211 ****        27.5000  15.5000  43.5000 Du        
  22212 ****        27.5000  15.5000  43.7500 Du        
  22213 ****        27.5000  15.5000  44.0000 Du        
  22214 ****        27.5000  15.5000  44.2500 Du        
  22215 ****        27.5000  15.5000  44.5000 Du        
  22216 ****        27.5000  15.5000  44.7500 Du        
  22217 ****        27.5000  15.5000  45.0000 Du        
  22218 ****        27.5000  15.7500  43.0000 Du        
  22219 ****        27.5000  15.7500  43.2500 Du        
  22220 ****        27.5000  15.7500  43.5000 Du        
  22221 ****        27.5000  15.7500  43.7500 Du        
  22222 ****        27.5000  15.7500  44.0000 Du        
  22223 ****        27.5000  15.7500  44.2500 Du        
  22224 ****        27.5000  15.7500  44.5000 Du        
  22225 ****        27.5000  15.7500  44.7500 Du        
  22226 ****        27.5000  15.7500  45.0000 Du        
  22227 ****        27.5000  16.0000  43.2500 Du        
  22228 ****        27.5000  16.0000  43.5000 Du        
  22229 ****        27.5000  16.0000  43.7500 Du        
  22230 ****        27.5000  16.0000  44.0000 Du        
  22231 ****        27.5000  16.0000  44.2500 Du        
  22232 ****        27.5000  16.0000  44.5000 Du        
  22233 ****        27.5000  16.0000  44.7500 Du        
  22234 ****        27.5000  16.0000  45.0000 Du        
  22235 ****        27.5000  16.2500  43.2500 Du        
  22236 ****        27.5000  16.2500  43.5000 Du        
  22237 ****        27.5000  16.2500  43.7500 Du        
  22238 ****        27.5000  16.2500  44.0000 Du        
  22239 ****        27.5000  16.2500  44.2500 Du        
  22240 ****        27.5000  16.2500  44.5000 Du        
  22241 ****        27.5000  16.2500  44.7500 Du        
  22242 ****        27.5000  16.5000  43.2500 Du        
  22243 ****        27.5000  16.5000  43.5000 Du        
  22244 ****        27.5000  16.5000  43.7500 Du        
  22245 ****        27.5000  16.5000  44.0000 Du        
  22246 ****        27.5000  16.5000  44.2500 Du        
  22247 ****        27.5000  16.7500  43.5000 Du        
  22248 ****        27.5000  16.7500  43.7500 Du        
  22249 ****        27.5000  16.7500  44.0000 Du        
  22250 ****        27.7500 -16.2500  35.5000 Du        
  22251 ****        27.7500 -16.2500  35.7500 Du        
  22252 ****        27.7500 -16.2500  36.0000 Du        
  22253 ****        27.7500 -16.2500  36.2500 Du        
  22254 ****        27.7500 -16.2500  36.5000 Du        
  22255 ****        27.7500 -16.2500  36.7500 Du        
  22256 ****        27.7500 -16.0000  35.5000 Du        
  22257 ****        27.7500 -16.0000  35.7500 Du        
  22258 ****        27.7500 -16.0000  36.0000 Du        
  22259 ****        27.7500   7.0000  22.7500 Du        
  22260 ****        27.7500   7.0000  23.0000 Du        
  22261 ****        27.7500   7.2500  22.7500 Du        
  22262 ****        27.7500   7.2500  23.0000 Du        
  22263 ****        27.7500  11.2500  29.2500 Du        
  22264 ****        27.7500  11.5000  29.0000 Du        
  22265 ****        27.7500  11.5000  29.2500 Du        
  22266 ****        27.7500  11.5000  29.5000 Du        
  22267 ****        27.7500  11.5000  29.7500 Du        
  22268 ****        27.7500  11.5000  30.0000 Du        
  22269 ****        27.7500  11.7500  29.0000 Du        
  22270 ****        27.7500  11.7500  29.2500 Du        
  22271 ****        27.7500  11.7500  29.5000 Du        
  22272 ****        27.7500  11.7500  29.7500 Du        
  22273 ****        27.7500  11.7500  30.0000 Du        
  22274 ****        27.7500  12.0000  28.7500 Du        
  22275 ****        27.7500  12.0000  29.0000 Du        
  22276 ****        27.7500  12.0000  29.2500 Du        
  22277 ****        27.7500  12.0000  29.5000 Du        
  22278 ****        27.7500  12.0000  29.7500 Du        
  22279 ****        27.7500  12.0000  30.0000 Du        
  22280 ****        27.7500  12.2500  28.7500 Du        
  22281 ****        27.7500  12.2500  29.0000 Du        
  22282 ****        27.7500  12.2500  29.2500 Du        
  22283 ****        27.7500  12.2500  29.5000 Du        
  22284 ****        27.7500  12.2500  29.7500 Du        
  22285 ****        27.7500  12.5000  28.7500 Du        
  22286 ****        27.7500  12.5000  29.0000 Du        
  22287 ****        27.7500  12.5000  29.2500 Du        
  22288 ****        27.7500  13.7500  43.5000 Du        
  22289 ****        27.7500  13.7500  43.7500 Du        
  22290 ****        27.7500  13.7500  44.0000 Du        
  22291 ****        27.7500  13.7500  44.2500 Du        
  22292 ****        27.7500  14.0000  42.7500 Du        
  22293 ****        27.7500  14.0000  43.0000 Du        
  22294 ****        27.7500  14.0000  43.2500 Du        
  22295 ****        27.7500  14.0000  43.5000 Du        
  22296 ****        27.7500  14.0000  43.7500 Du        
  22297 ****        27.7500  14.0000  44.0000 Du        
  22298 ****        27.7500  14.0000  44.2500 Du        
  22299 ****        27.7500  14.0000  44.5000 Du        
  22300 ****        27.7500  14.2500  42.7500 Du        
  22301 ****        27.7500  14.2500  43.0000 Du        
  22302 ****        27.7500  14.2500  43.2500 Du        
  22303 ****        27.7500  14.2500  43.5000 Du        
  22304 ****        27.7500  14.2500  43.7500 Du        
  22305 ****        27.7500  14.2500  44.0000 Du        
  22306 ****        27.7500  14.2500  44.2500 Du        
  22307 ****        27.7500  14.2500  44.5000 Du        
  22308 ****        27.7500  14.5000  42.5000 Du        
  22309 ****        27.7500  14.5000  42.7500 Du        
  22310 ****        27.7500  14.5000  43.0000 Du        
  22311 ****        27.7500  14.5000  43.2500 Du        
  22312 ****        27.7500  14.5000  43.5000 Du        
  22313 ****        27.7500  14.5000  43.7500 Du        
  22314 ****        27.7500  14.5000  44.0000 Du        
  22315 ****        27.7500  14.5000  44.2500 Du        
  22316 ****        27.7500  14.5000  44.5000 Du        
  22317 ****        27.7500  14.7500  42.5000 Du        
  22318 ****        27.7500  14.7500  42.7500 Du        
  22319 ****        27.7500  14.7500  43.0000 Du        
  22320 ****        27.7500  14.7500  43.2500 Du        
  22321 ****        27.7500  14.7500  43.5000 Du        
  22322 ****        27.7500  14.7500  43.7500 Du        
  22323 ****        27.7500  14.7500  44.0000 Du        
  22324 ****        27.7500  14.7500  44.2500 Du        
  22325 ****        27.7500  14.7500  44.5000 Du        
  22326 ****        27.7500  15.0000  42.7500 Du        
  22327 ****        27.7500  15.0000  43.0000 Du        
  22328 ****        27.7500  15.0000  43.2500 Du        
  22329 ****        27.7500  15.0000  43.5000 Du        
  22330 ****        27.7500  15.0000  43.7500 Du        
  22331 ****        27.7500  15.0000  44.0000 Du        
  22332 ****        27.7500  15.0000  44.2500 Du        
  22333 ****        27.7500  15.0000  44.5000 Du        
  22334 ****        27.7500  15.0000  44.7500 Du        
  22335 ****        27.7500  15.2500  43.0000 Du        
  22336 ****        27.7500  15.2500  43.2500 Du        
  22337 ****        27.7500  15.2500  43.5000 Du        
  22338 ****        27.7500  15.2500  43.7500 Du        
  22339 ****        27.7500  15.2500  44.0000 Du        
  22340 ****        27.7500  15.2500  44.2500 Du        
  22341 ****        27.7500  15.2500  44.5000 Du        
  22342 ****        27.7500  15.2500  44.7500 Du        
  22343 ****        27.7500  15.5000  43.2500 Du        
  22344 ****        27.7500  15.5000  43.5000 Du        
  22345 ****        27.7500  15.5000  43.7500 Du        
  22346 ****        27.7500  15.5000  44.0000 Du        
  22347 ****        27.7500  15.5000  44.2500 Du        
  22348 ****        27.7500  15.5000  44.5000 Du        
  22349 ****        27.7500  15.5000  44.7500 Du        
  22350 ****        27.7500  15.5000  45.0000 Du        
  22351 ****        27.7500  15.7500  43.2500 Du        
  22352 ****        27.7500  15.7500  43.5000 Du        
  22353 ****        27.7500  15.7500  43.7500 Du        
  22354 ****        27.7500  15.7500  44.0000 Du        
  22355 ****        27.7500  15.7500  44.2500 Du        
  22356 ****        27.7500  15.7500  44.5000 Du        
  22357 ****        27.7500  15.7500  44.7500 Du        
  22358 ****        27.7500  15.7500  45.0000 Du        
  22359 ****        27.7500  16.0000  43.5000 Du        
  22360 ****        27.7500  16.0000  43.7500 Du        
  22361 ****        27.7500  16.0000  44.0000 Du        
  22362 ****        27.7500  16.0000  44.2500 Du        
  22363 ****        27.7500  16.0000  44.5000 Du        
  22364 ****        27.7500  16.0000  44.7500 Du        
  22365 ****        27.7500  16.0000  45.0000 Du        
  22366 ****        27.7500  16.2500  43.5000 Du        
  22367 ****        27.7500  16.2500  43.7500 Du        
  22368 ****        27.7500  16.2500  44.0000 Du        
  22369 ****        27.7500  16.2500  44.2500 Du        
  22370 ****        27.7500  16.2500  44.5000 Du        
  22371 ****        27.7500  16.2500  44.7500 Du        
  22372 ****        27.7500  16.5000  43.5000 Du        
  22373 ****        27.7500  16.5000  43.7500 Du        
  22374 ****        27.7500  16.5000  44.0000 Du        
  22375 ****        27.7500  16.5000  44.2500 Du        
  22376 ****        27.7500  16.7500  43.7500 Du        
  22377 ****        27.7500  16.7500  44.0000 Du        
  22378 ****        28.0000   7.0000  22.5000 Du        
  22379 ****        28.0000   7.0000  22.7500 Du        
  22380 ****        28.0000   7.2500  22.5000 Du        
  22381 ****        28.0000   7.2500  22.7500 Du        
  22382 ****        28.0000   7.2500  23.0000 Du        
  22383 ****        28.0000   7.5000  22.7500 Du        
  22384 ****        28.0000   7.5000  23.0000 Du        
  22385 ****        28.0000  11.5000  29.2500 Du        
  22386 ****        28.0000  11.5000  29.5000 Du        
  22387 ****        28.0000  11.5000  29.7500 Du        
  22388 ****        28.0000  11.5000  30.0000 Du        
  22389 ****        28.0000  11.7500  29.0000 Du        
  22390 ****        28.0000  11.7500  29.2500 Du        
  22391 ****        28.0000  11.7500  29.5000 Du        
  22392 ****        28.0000  11.7500  29.7500 Du        
  22393 ****        28.0000  11.7500  30.0000 Du        
  22394 ****        28.0000  12.0000  28.7500 Du        
  22395 ****        28.0000  12.0000  29.0000 Du        
  22396 ****        28.0000  12.0000  29.2500 Du        
  22397 ****        28.0000  12.0000  29.5000 Du        
  22398 ****        28.0000  12.0000  29.7500 Du        
  22399 ****        28.0000  12.0000  30.0000 Du        
  22400 ****        28.0000  12.2500  28.7500 Du        
  22401 ****        28.0000  12.2500  29.0000 Du        
  22402 ****        28.0000  12.2500  29.2500 Du        
  22403 ****        28.0000  12.2500  29.5000 Du        
  22404 ****        28.0000  12.2500  29.7500 Du        
  22405 ****        28.0000  12.2500  30.0000 Du        
  22406 ****        28.0000  12.5000  28.5000 Du        
  22407 ****        28.0000  12.5000  28.7500 Du        
  22408 ****        28.0000  12.5000  29.0000 Du        
  22409 ****        28.0000  12.5000  29.2500 Du        
  22410 ****        28.0000  12.7500  28.5000 Du        
  22411 ****        28.0000  12.7500  28.7500 Du        
  22412 ****        28.0000  13.7500  43.2500 Du        
  22413 ****        28.0000  13.7500  43.5000 Du        
  22414 ****        28.0000  13.7500  43.7500 Du        
  22415 ****        28.0000  13.7500  44.0000 Du        
  22416 ****        28.0000  13.7500  44.2500 Du        
  22417 ****        28.0000  14.0000  42.7500 Du        
  22418 ****        28.0000  14.0000  43.0000 Du        
  22419 ****        28.0000  14.0000  43.2500 Du        
  22420 ****        28.0000  14.0000  43.5000 Du        
  22421 ****        28.0000  14.0000  43.7500 Du        
  22422 ****        28.0000  14.0000  44.0000 Du        
  22423 ****        28.0000  14.0000  44.2500 Du        
  22424 ****        28.0000  14.2500  42.7500 Du        
  22425 ****        28.0000  14.2500  43.0000 Du        
  22426 ****        28.0000  14.2500  43.2500 Du        
  22427 ****        28.0000  14.2500  43.5000 Du        
  22428 ****        28.0000  14.2500  43.7500 Du        
  22429 ****        28.0000  14.2500  44.0000 Du        
  22430 ****        28.0000  14.2500  44.2500 Du        
  22431 ****        28.0000  14.5000  42.7500 Du        
  22432 ****        28.0000  14.5000  43.0000 Du        
  22433 ****        28.0000  14.5000  43.2500 Du        
  22434 ****        28.0000  14.5000  43.5000 Du        
  22435 ****        28.0000  14.5000  43.7500 Du        
  22436 ****        28.0000  14.5000  44.0000 Du        
  22437 ****        28.0000  14.5000  44.2500 Du        
  22438 ****        28.0000  14.5000  44.5000 Du        
  22439 ****        28.0000  14.7500  42.7500 Du        
  22440 ****        28.0000  14.7500  43.0000 Du        
  22441 ****        28.0000  14.7500  43.2500 Du        
  22442 ****        28.0000  14.7500  43.5000 Du        
  22443 ****        28.0000  14.7500  43.7500 Du        
  22444 ****        28.0000  14.7500  44.0000 Du        
  22445 ****        28.0000  14.7500  44.2500 Du        
  22446 ****        28.0000  14.7500  44.5000 Du        
  22447 ****        28.0000  15.0000  43.0000 Du        
  22448 ****        28.0000  15.0000  43.2500 Du        
  22449 ****        28.0000  15.0000  43.5000 Du        
  22450 ****        28.0000  15.0000  43.7500 Du        
  22451 ****        28.0000  15.0000  44.0000 Du        
  22452 ****        28.0000  15.0000  44.2500 Du        
  22453 ****        28.0000  15.0000  44.5000 Du        
  22454 ****        28.0000  15.2500  43.2500 Du        
  22455 ****        28.0000  15.2500  43.5000 Du        
  22456 ****        28.0000  15.2500  43.7500 Du        
  22457 ****        28.0000  15.2500  44.0000 Du        
  22458 ****        28.0000  15.2500  44.2500 Du        
  22459 ****        28.0000  15.2500  44.5000 Du        
  22460 ****        28.0000  15.5000  43.5000 Du        
  22461 ****        28.0000  15.5000  43.7500 Du        
  22462 ****        28.0000  15.5000  44.0000 Du        
  22463 ****        28.0000  15.5000  44.2500 Du        
  22464 ****        28.0000  15.5000  44.5000 Du        
  22465 ****        28.0000  15.5000  44.7500 Du        
  22466 ****        28.0000  15.7500  43.5000 Du        
  22467 ****        28.0000  15.7500  43.7500 Du        
  22468 ****        28.0000  15.7500  44.0000 Du        
  22469 ****        28.0000  15.7500  44.2500 Du        
  22470 ****        28.0000  15.7500  44.5000 Du        
  22471 ****        28.0000  15.7500  44.7500 Du        
  22472 ****        28.0000  16.0000  43.7500 Du        
  22473 ****        28.0000  16.0000  44.0000 Du        
  22474 ****        28.0000  16.0000  44.2500 Du        
  22475 ****        28.0000  16.0000  44.5000 Du        
  22476 ****        28.0000  16.0000  44.7500 Du        
  22477 ****        28.0000  16.2500  43.7500 Du        
  22478 ****        28.0000  16.2500  44.0000 Du        
  22479 ****        28.0000  16.2500  44.2500 Du        
  22480 ****        28.0000  16.2500  44.5000 Du        
  22481 ****        28.0000  16.2500  44.7500 Du        
  22482 ****        28.0000  16.5000  43.7500 Du        
  22483 ****        28.0000  16.5000  44.0000 Du        
  22484 ****        28.0000  16.5000  44.2500 Du        
  22485 ****        28.0000  21.5000  29.2500 Du        
  22486 ****        28.0000  21.7500  29.0000 Du        
  22487 ****        28.0000  21.7500  29.2500 Du        
  22488 ****        28.0000  22.0000  29.0000 Du        
  22489 ****        28.2500   7.0000  22.0000 Du        
  22490 ****        28.2500   7.0000  22.2500 Du        
  22491 ****        28.2500   7.0000  22.5000 Du        
  22492 ****        28.2500   7.0000  22.7500 Du        
  22493 ****        28.2500   7.2500  22.2500 Du        
  22494 ****        28.2500   7.2500  22.5000 Du        
  22495 ****        28.2500   7.2500  22.7500 Du        
  22496 ****        28.2500   7.2500  23.0000 Du        
  22497 ****        28.2500   7.5000  22.5000 Du        
  22498 ****        28.2500   7.5000  22.7500 Du        
  22499 ****        28.2500   7.5000  23.0000 Du        
  22500 ****        28.2500  12.0000  29.7500 Du        
  22501 ****        28.2500  12.0000  30.0000 Du        
  22502 ****        28.2500  12.2500  29.2500 Du        
  22503 ****        28.2500  12.2500  29.5000 Du        
  22504 ****        28.2500  12.2500  29.7500 Du        
  22505 ****        28.2500  12.2500  30.0000 Du        
  22506 ****        28.2500  12.5000  28.7500 Du        
  22507 ****        28.2500  12.5000  29.0000 Du        
  22508 ****        28.2500  12.5000  29.2500 Du        
  22509 ****        28.2500  12.7500  28.7500 Du        
  22510 ****        28.2500  13.5000  43.7500 Du        
  22511 ****        28.2500  13.5000  44.0000 Du        
  22512 ****        28.2500  13.7500  43.0000 Du        
  22513 ****        28.2500  13.7500  43.2500 Du        
  22514 ****        28.2500  13.7500  43.5000 Du        
  22515 ****        28.2500  13.7500  43.7500 Du        
  22516 ****        28.2500  13.7500  44.0000 Du        
  22517 ****        28.2500  13.7500  44.2500 Du        
  22518 ****        28.2500  14.0000  42.7500 Du        
  22519 ****        28.2500  14.0000  43.0000 Du        
  22520 ****        28.2500  14.0000  43.2500 Du        
  22521 ****        28.2500  14.0000  43.5000 Du        
  22522 ****        28.2500  14.0000  43.7500 Du        
  22523 ****        28.2500  14.0000  44.0000 Du        
  22524 ****        28.2500  14.0000  44.2500 Du        
  22525 ****        28.2500  14.2500  42.7500 Du        
  22526 ****        28.2500  14.2500  43.0000 Du        
  22527 ****        28.2500  14.2500  43.2500 Du        
  22528 ****        28.2500  14.2500  43.5000 Du        
  22529 ****        28.2500  14.2500  43.7500 Du        
  22530 ****        28.2500  14.2500  44.0000 Du        
  22531 ****        28.2500  14.2500  44.2500 Du        
  22532 ****        28.2500  14.5000  43.0000 Du        
  22533 ****        28.2500  14.5000  43.2500 Du        
  22534 ****        28.2500  14.5000  43.5000 Du        
  22535 ****        28.2500  14.5000  43.7500 Du        
  22536 ****        28.2500  14.5000  44.0000 Du        
  22537 ****        28.2500  14.5000  44.2500 Du        
  22538 ****        28.2500  14.7500  43.0000 Du        
  22539 ****        28.2500  14.7500  43.2500 Du        
  22540 ****        28.2500  14.7500  43.5000 Du        
  22541 ****        28.2500  14.7500  43.7500 Du        
  22542 ****        28.2500  14.7500  44.0000 Du        
  22543 ****        28.2500  14.7500  44.2500 Du        
  22544 ****        28.2500  15.0000  43.2500 Du        
  22545 ****        28.2500  15.0000  43.5000 Du        
  22546 ****        28.2500  15.0000  43.7500 Du        
  22547 ****        28.2500  15.0000  44.0000 Du        
  22548 ****        28.2500  15.0000  44.2500 Du        
  22549 ****        28.2500  15.2500  43.5000 Du        
  22550 ****        28.2500  15.2500  43.7500 Du        
  22551 ****        28.2500  15.2500  44.0000 Du        
  22552 ****        28.2500  15.2500  44.2500 Du        
  22553 ****        28.2500  15.2500  44.5000 Du        
  22554 ****        28.2500  15.5000  43.7500 Du        
  22555 ****        28.2500  15.5000  44.0000 Du        
  22556 ****        28.2500  15.5000  44.2500 Du        
  22557 ****        28.2500  15.5000  44.5000 Du        
  22558 ****        28.2500  15.7500  43.7500 Du        
  22559 ****        28.2500  15.7500  44.0000 Du        
  22560 ****        28.2500  15.7500  44.2500 Du        
  22561 ****        28.2500  15.7500  44.5000 Du        
  22562 ****        28.2500  15.7500  44.7500 Du        
  22563 ****        28.2500  16.0000  43.7500 Du        
  22564 ****        28.2500  16.0000  44.0000 Du        
  22565 ****        28.2500  16.0000  44.2500 Du        
  22566 ****        28.2500  16.0000  44.5000 Du        
  22567 ****        28.2500  16.0000  44.7500 Du        
  22568 ****        28.2500  16.2500  44.0000 Du        
  22569 ****        28.2500  16.2500  44.2500 Du        
  22570 ****        28.2500  16.2500  44.5000 Du        
  22571 ****        28.2500  16.2500  44.7500 Du        
  22572 ****        28.2500  16.5000  44.0000 Du        
  22573 ****        28.2500  16.5000  44.2500 Du        
  22574 ****        28.2500  21.7500  29.0000 Du        
  22575 ****        28.2500  22.0000  29.0000 Du        
  22576 ****        28.2500  22.2500  28.7500 Du        
  22577 ****        28.2500  22.2500  29.0000 Du        
  22578 ****        28.2500  24.2500  28.0000 Du        
  22579 ****        28.2500  24.5000  28.0000 Du        
  22580 ****        28.5000   7.5000  22.2500 Du        
  22581 ****        28.5000   7.5000  22.5000 Du        
  22582 ****        28.5000   7.5000  22.7500 Du        
  22583 ****        28.5000   7.5000  23.0000 Du        
  22584 ****        28.5000   7.7500  22.7500 Du        
  22585 ****        28.5000   7.7500  23.0000 Du        
  22586 ****        28.5000  13.5000  43.5000 Du        
  22587 ****        28.5000  13.5000  43.7500 Du        
  22588 ****        28.5000  13.5000  44.0000 Du        
  22589 ****        28.5000  13.7500  43.0000 Du        
  22590 ****        28.5000  13.7500  43.5000 Du        
  22591 ****        28.5000  13.7500  43.7500 Du        
  22592 ****        28.5000  13.7500  44.0000 Du        
  22593 ****        28.5000  14.0000  43.0000 Du        
  22594 ****        28.5000  14.0000  43.2500 Du        
  22595 ****        28.5000  14.0000  43.5000 Du        
  22596 ****        28.5000  14.0000  43.7500 Du        
  22597 ****        28.5000  14.0000  44.0000 Du        
  22598 ****        28.5000  14.2500  43.2500 Du        
  22599 ****        28.5000  14.2500  43.5000 Du        
  22600 ****        28.5000  14.2500  43.7500 Du        
  22601 ****        28.5000  14.2500  44.0000 Du        
  22602 ****        28.5000  14.5000  43.0000 Du        
  22603 ****        28.5000  14.5000  43.2500 Du        
  22604 ****        28.5000  14.5000  43.5000 Du        
  22605 ****        28.5000  14.5000  43.7500 Du        
  22606 ****        28.5000  14.5000  44.0000 Du        
  22607 ****        28.5000  14.7500  43.2500 Du        
  22608 ****        28.5000  14.7500  43.5000 Du        
  22609 ****        28.5000  14.7500  43.7500 Du        
  22610 ****        28.5000  14.7500  44.0000 Du        
  22611 ****        28.5000  15.0000  43.5000 Du        
  22612 ****        28.5000  15.0000  43.7500 Du        
  22613 ****        28.5000  15.0000  44.0000 Du        
  22614 ****        28.5000  15.0000  44.2500 Du        
  22615 ****        28.5000  15.2500  43.7500 Du        
  22616 ****        28.5000  15.2500  44.0000 Du        
  22617 ****        28.5000  15.2500  44.2500 Du        
  22618 ****        28.5000  15.5000  43.7500 Du        
  22619 ****        28.5000  15.5000  44.0000 Du        
  22620 ****        28.5000  15.5000  44.2500 Du        
  22621 ****        28.5000  15.5000  44.5000 Du        
  22622 ****        28.5000  15.7500  44.0000 Du        
  22623 ****        28.5000  15.7500  44.2500 Du        
  22624 ****        28.5000  15.7500  44.5000 Du        
  22625 ****        28.5000  16.0000  44.0000 Du        
  22626 ****        28.5000  16.0000  44.2500 Du        
  22627 ****        28.5000  16.0000  44.5000 Du        
  22628 ****        28.5000  16.2500  44.0000 Du        
  22629 ****        28.5000  16.2500  44.2500 Du        
  22630 ****        28.5000  16.2500  44.5000 Du        
  22631 ****        28.5000  16.5000  44.2500 Du        
  22632 ****        28.5000  24.5000  27.7500 Du        
  22633 ****        28.7500   7.5000  22.2500 Du        
  22634 ****        28.7500   7.5000  22.5000 Du        
  22635 ****        28.7500   7.5000  22.7500 Du        
  22636 ****        28.7500   7.5000  23.0000 Du        
  22637 ****        28.7500   7.7500  22.5000 Du        
  22638 ****        28.7500   7.7500  22.7500 Du        
  22639 ****        28.7500   7.7500  23.0000 Du        
  22640 ****        28.7500   7.7500  23.2500 Du        
  22641 ****        28.7500   8.0000  23.0000 Du        
  22642 ****        28.7500  13.5000  43.5000 Du        
  22643 ****        28.7500  13.5000  43.7500 Du        
  22644 ****        28.7500  13.7500  43.0000 Du        
  22645 ****        28.7500  13.7500  43.2500 Du        
  22646 ****        28.7500  13.7500  43.5000 Du        
  22647 ****        28.7500  13.7500  43.7500 Du        
  22648 ****        28.7500  13.7500  44.0000 Du        
  22649 ****        28.7500  14.0000  43.0000 Du        
  22650 ****        28.7500  14.0000  43.2500 Du        
  22651 ****        28.7500  14.0000  43.5000 Du        
  22652 ****        28.7500  14.0000  43.7500 Du        
  22653 ****        28.7500  14.0000  44.0000 Du        
  22654 ****        28.7500  14.2500  43.2500 Du        
  22655 ****        28.7500  14.2500  43.5000 Du        
  22656 ****        28.7500  14.2500  43.7500 Du        
  22657 ****        28.7500  14.2500  44.0000 Du        
  22658 ****        28.7500  14.5000  43.2500 Du        
  22659 ****        28.7500  14.5000  43.5000 Du        
  22660 ****        28.7500  14.5000  43.7500 Du        
  22661 ****        28.7500  14.5000  44.0000 Du        
  22662 ****        28.7500  14.7500  43.5000 Du        
  22663 ****        28.7500  14.7500  43.7500 Du        
  22664 ****        28.7500  14.7500  44.0000 Du        
  22665 ****        28.7500  15.0000  43.5000 Du        
  22666 ****        28.7500  15.0000  43.7500 Du        
  22667 ****        28.7500  15.0000  44.0000 Du        
  22668 ****        28.7500  15.2500  43.7500 Du        
  22669 ****        28.7500  15.2500  44.0000 Du        
  22670 ****        28.7500  15.2500  44.2500 Du        
  22671 ****        28.7500  15.5000  44.0000 Du        
  22672 ****        28.7500  15.5000  44.2500 Du        
  22673 ****        28.7500  15.7500  44.0000 Du        
  22674 ****        28.7500  15.7500  44.2500 Du        
  22675 ****        28.7500  15.7500  44.5000 Du        
  22676 ****        28.7500  16.0000  44.0000 Du        
  22677 ****        28.7500  16.0000  44.2500 Du        
  22678 ****        28.7500  16.0000  44.5000 Du        
  22679 ****        28.7500  16.2500  44.2500 Du        
  22680 ****        28.7500  16.2500  44.5000 Du        
  22681 ****        28.7500  24.2500  27.7500 Du        
  22682 ****        28.7500  24.2500  28.0000 Du        
  22683 ****        28.7500  24.5000  27.5000 Du        
  22684 ****        28.7500  24.5000  27.7500 Du        
  22685 ****        29.0000   7.5000  22.7500 Du        
  22686 ****        29.0000   7.7500  22.2500 Du        
  22687 ****        29.0000   7.7500  22.5000 Du        
  22688 ****        29.0000   7.7500  22.7500 Du        
  22689 ****        29.0000   7.7500  23.0000 Du        
  22690 ****        29.0000   8.0000  22.7500 Du        
  22691 ****        29.0000   8.0000  23.0000 Du        
  22692 ****        29.0000   8.0000  23.2500 Du        
  22693 ****        29.0000  13.2500  43.5000 Du        
  22694 ****        29.0000  13.2500  43.7500 Du        
  22695 ****        29.0000  13.2500  44.0000 Du        
  22696 ****        29.0000  13.5000  43.5000 Du        
  22697 ****        29.0000  13.5000  43.7500 Du        
  22698 ****        29.0000  13.5000  44.0000 Du        
  22699 ****        29.0000  13.7500  43.0000 Du        
  22700 ****        29.0000  13.7500  43.2500 Du        
  22701 ****        29.0000  13.7500  43.5000 Du        
  22702 ****        29.0000  13.7500  43.7500 Du        
  22703 ****        29.0000  13.7500  44.0000 Du        
  22704 ****        29.0000  14.0000  43.0000 Du        
  22705 ****        29.0000  14.0000  43.2500 Du        
  22706 ****        29.0000  14.0000  43.5000 Du        
  22707 ****        29.0000  14.0000  43.7500 Du        
  22708 ****        29.0000  14.0000  44.0000 Du        
  22709 ****        29.0000  14.2500  43.2500 Du        
  22710 ****        29.0000  14.2500  43.5000 Du        
  22711 ****        29.0000  14.2500  43.7500 Du        
  22712 ****        29.0000  14.2500  44.0000 Du        
  22713 ****        29.0000  14.5000  43.2500 Du        
  22714 ****        29.0000  14.5000  43.5000 Du        
  22715 ****        29.0000  14.5000  43.7500 Du        
  22716 ****        29.0000  14.5000  44.0000 Du        
  22717 ****        29.0000  14.7500  43.5000 Du        
  22718 ****        29.0000  14.7500  43.7500 Du        
  22719 ****        29.0000  14.7500  44.0000 Du        
  22720 ****        29.0000  15.0000  43.7500 Du        
  22721 ****        29.0000  15.0000  44.0000 Du        
  22722 ****        29.0000  15.2500  43.7500 Du        
  22723 ****        29.0000  15.2500  44.0000 Du        
  22724 ****        29.0000  15.2500  44.2500 Du        
  22725 ****        29.0000  15.5000  44.0000 Du        
  22726 ****        29.0000  15.5000  44.2500 Du        
  22727 ****        29.0000  15.7500  44.0000 Du        
  22728 ****        29.0000  15.7500  44.2500 Du        
  22729 ****        29.0000  15.7500  44.5000 Du        
  22730 ****        29.0000  16.0000  44.2500 Du        
  22731 ****        29.0000  16.0000  44.5000 Du        
  22732 ****        29.0000  16.2500  44.2500 Du        
  22733 ****        29.0000  16.2500  44.5000 Du        
  22734 ****        29.0000  23.0000  28.2500 Du        
  22735 ****        29.0000  24.0000  27.7500 Du        
  22736 ****        29.0000  24.2500  27.5000 Du        
  22737 ****        29.0000  24.2500  27.7500 Du        
  22738 ****        29.0000  24.5000  27.2500 Du        
  22739 ****        29.0000  24.5000  27.5000 Du        
  22740 ****        29.0000  24.5000  27.7500 Du        
  22741 ****        29.2500   7.0000  42.0000 Du        
  22742 ****        29.2500   7.0000  42.2500 Du        
  22743 ****        29.2500   7.0000  42.5000 Du        
  22744 ****        29.2500   7.0000  42.7500 Du        
  22745 ****        29.2500   7.2500  42.0000 Du        
  22746 ****        29.2500   7.2500  42.2500 Du        
  22747 ****        29.2500   7.2500  42.5000 Du        
  22748 ****        29.2500   7.7500  22.7500 Du        
  22749 ****        29.2500   8.0000  23.0000 Du        
  22750 ****        29.2500  13.0000  43.5000 Du        
  22751 ****        29.2500  13.0000  43.7500 Du        
  22752 ****        29.2500  13.0000  44.0000 Du        
  22753 ****        29.2500  13.2500  43.5000 Du        
  22754 ****        29.2500  13.2500  43.7500 Du        
  22755 ****        29.2500  13.2500  44.0000 Du        
  22756 ****        29.2500  13.5000  43.2500 Du        
  22757 ****        29.2500  13.5000  43.5000 Du        
  22758 ****        29.2500  13.5000  43.7500 Du        
  22759 ****        29.2500  13.5000  44.0000 Du        
  22760 ****        29.2500  13.7500  43.0000 Du        
  22761 ****        29.2500  13.7500  43.2500 Du        
  22762 ****        29.2500  13.7500  43.5000 Du        
  22763 ****        29.2500  13.7500  43.7500 Du        
  22764 ****        29.2500  13.7500  44.0000 Du        
  22765 ****        29.2500  14.0000  43.0000 Du        
  22766 ****        29.2500  14.0000  43.2500 Du        
  22767 ****        29.2500  14.0000  43.5000 Du        
  22768 ****        29.2500  14.0000  43.7500 Du        
  22769 ****        29.2500  14.0000  44.0000 Du        
  22770 ****        29.2500  14.2500  43.2500 Du        
  22771 ****        29.2500  14.2500  43.5000 Du        
  22772 ****        29.2500  14.2500  43.7500 Du        
  22773 ****        29.2500  14.2500  44.0000 Du        
  22774 ****        29.2500  14.5000  43.5000 Du        
  22775 ****        29.2500  14.5000  43.7500 Du        
  22776 ****        29.2500  14.5000  44.0000 Du        
  22777 ****        29.2500  14.7500  43.5000 Du        
  22778 ****        29.2500  14.7500  43.7500 Du        
  22779 ****        29.2500  14.7500  44.0000 Du        
  22780 ****        29.2500  15.0000  43.7500 Du        
  22781 ****        29.2500  15.0000  44.0000 Du        
  22782 ****        29.2500  15.2500  44.0000 Du        
  22783 ****        29.2500  15.5000  44.0000 Du        
  22784 ****        29.2500  15.5000  44.2500 Du        
  22785 ****        29.2500  15.7500  44.2500 Du        
  22786 ****        29.2500  16.0000  44.2500 Du        
  22787 ****        29.2500  16.0000  44.5000 Du        
  22788 ****        29.2500  16.2500  44.2500 Du        
  22789 ****        29.2500  16.2500  44.5000 Du        
  22790 ****        29.2500  22.7500  28.2500 Du        
  22791 ****        29.2500  23.0000  28.0000 Du        
  22792 ****        29.2500  23.0000  28.2500 Du        
  22793 ****        29.2500  23.2500  28.0000 Du        
  22794 ****        29.2500  23.2500  28.2500 Du        
  22795 ****        29.2500  23.5000  28.0000 Du        
  22796 ****        29.2500  23.7500  27.7500 Du        
  22797 ****        29.2500  23.7500  28.0000 Du        
  22798 ****        29.2500  24.0000  27.5000 Du        
  22799 ****        29.2500  24.0000  27.7500 Du        
  22800 ****        29.2500  24.2500  27.2500 Du        
  22801 ****        29.2500  24.2500  27.5000 Du        
  22802 ****        29.2500  24.2500  27.7500 Du        
  22803 ****        29.2500  24.5000  27.2500 Du        
  22804 ****        29.2500  24.5000  27.5000 Du        
  22805 ****        29.5000   6.7500  42.5000 Du        
  22806 ****        29.5000   6.7500  42.7500 Du        
  22807 ****        29.5000   7.0000  42.0000 Du        
  22808 ****        29.5000   7.0000  42.2500 Du        
  22809 ****        29.5000   7.0000  42.5000 Du        
  22810 ****        29.5000   7.0000  42.7500 Du        
  22811 ****        29.5000   7.0000  43.0000 Du        
  22812 ****        29.5000   7.2500  42.2500 Du        
  22813 ****        29.5000   7.2500  42.5000 Du        
  22814 ****        29.5000   7.2500  42.7500 Du        
  22815 ****        29.5000  13.0000  43.5000 Du        
  22816 ****        29.5000  13.0000  43.7500 Du        
  22817 ****        29.5000  13.0000  44.0000 Du        
  22818 ****        29.5000  13.2500  43.5000 Du        
  22819 ****        29.5000  13.2500  43.7500 Du        
  22820 ****        29.5000  13.2500  44.0000 Du        
  22821 ****        29.5000  13.5000  43.5000 Du        
  22822 ****        29.5000  13.5000  43.7500 Du        
  22823 ****        29.5000  13.7500  43.0000 Du        
  22824 ****        29.5000  13.7500  43.5000 Du        
  22825 ****        29.5000  13.7500  43.7500 Du        
  22826 ****        29.5000  14.0000  30.7500 Du        
  22827 ****        29.5000  14.0000  43.2500 Du        
  22828 ****        29.5000  14.0000  43.5000 Du        
  22829 ****        29.5000  14.0000  43.7500 Du        
  22830 ****        29.5000  14.2500  43.2500 Du        
  22831 ****        29.5000  14.2500  43.5000 Du        
  22832 ****        29.5000  14.2500  43.7500 Du        
  22833 ****        29.5000  14.5000  43.5000 Du        
  22834 ****        29.5000  14.5000  43.7500 Du        
  22835 ****        29.5000  14.7500  43.5000 Du        
  22836 ****        29.5000  14.7500  43.7500 Du        
  22837 ****        29.5000  14.7500  44.0000 Du        
  22838 ****        29.5000  15.0000  43.7500 Du        
  22839 ****        29.5000  15.0000  44.0000 Du        
  22840 ****        29.5000  15.2500  44.0000 Du        
  22841 ****        29.5000  15.7500  44.2500 Du        
  22842 ****        29.5000  22.7500  28.0000 Du        
  22843 ****        29.5000  22.7500  28.2500 Du        
  22844 ****        29.5000  23.0000  27.7500 Du        
  22845 ****        29.5000  23.0000  28.0000 Du        
  22846 ****        29.5000  23.0000  28.2500 Du        
  22847 ****        29.5000  23.2500  27.7500 Du        
  22848 ****        29.5000  23.2500  28.0000 Du        
  22849 ****        29.5000  23.5000  27.5000 Du        
  22850 ****        29.5000  23.5000  27.7500 Du        
  22851 ****        29.5000  23.5000  28.0000 Du        
  22852 ****        29.5000  23.7500  27.2500 Du        
  22853 ****        29.5000  23.7500  27.5000 Du        
  22854 ****        29.5000  23.7500  27.7500 Du        
  22855 ****        29.5000  23.7500  28.0000 Du        
  22856 ****        29.5000  24.0000  27.2500 Du        
  22857 ****        29.5000  24.0000  27.5000 Du        
  22858 ****        29.5000  24.0000  27.7500 Du        
  22859 ****        29.7500   6.7500  42.2500 Du        
  22860 ****        29.7500   6.7500  42.5000 Du        
  22861 ****        29.7500   6.7500  42.7500 Du        
  22862 ****        29.7500   6.7500  43.0000 Du        
  22863 ****        29.7500   7.0000  42.0000 Du        
  22864 ****        29.7500   7.0000  42.2500 Du        
  22865 ****        29.7500   7.0000  42.5000 Du        
  22866 ****        29.7500   7.0000  42.7500 Du        
  22867 ****        29.7500   7.0000  43.0000 Du        
  22868 ****        29.7500   7.2500  42.2500 Du        
  22869 ****        29.7500   7.2500  42.5000 Du        
  22870 ****        29.7500   7.2500  42.7500 Du        
  22871 ****        29.7500   7.2500  43.0000 Du        
  22872 ****        29.7500   7.5000  42.5000 Du        
  22873 ****        29.7500   7.5000  42.7500 Du        
  22874 ****        29.7500   8.5000  23.5000 Du        
  22875 ****        29.7500   8.7500  23.7500 Du        
  22876 ****        29.7500  12.7500  43.5000 Du        
  22877 ****        29.7500  12.7500  43.7500 Du        
  22878 ****        29.7500  12.7500  44.0000 Du        
  22879 ****        29.7500  13.0000  43.5000 Du        
  22880 ****        29.7500  13.0000  43.7500 Du        
  22881 ****        29.7500  13.0000  44.0000 Du        
  22882 ****        29.7500  13.2500  42.2500 Du        
  22883 ****        29.7500  13.2500  43.2500 Du        
  22884 ****        29.7500  13.2500  43.5000 Du        
  22885 ****        29.7500  13.2500  43.7500 Du        
  22886 ****        29.7500  13.2500  44.0000 Du        
  22887 ****        29.7500  13.5000  42.7500 Du        
  22888 ****        29.7500  13.5000  43.2500 Du        
  22889 ****        29.7500  13.5000  43.5000 Du        
  22890 ****        29.7500  13.5000  43.7500 Du        
  22891 ****        29.7500  13.5000  44.0000 Du        
  22892 ****        29.7500  13.7500  32.0000 Du        
  22893 ****        29.7500  13.7500  32.2500 Du        
  22894 ****        29.7500  13.7500  32.5000 Du        
  22895 ****        29.7500  13.7500  32.7500 Du        
  22896 ****        29.7500  13.7500  42.7500 Du        
  22897 ****        29.7500  13.7500  43.0000 Du        
  22898 ****        29.7500  13.7500  43.2500 Du        
  22899 ****        29.7500  13.7500  43.5000 Du        
  22900 ****        29.7500  13.7500  43.7500 Du        
  22901 ****        29.7500  14.0000  30.0000 Du        
  22902 ****        29.7500  14.0000  30.2500 Du        
  22903 ****        29.7500  14.0000  30.5000 Du        
  22904 ****        29.7500  14.0000  30.7500 Du        
  22905 ****        29.7500  14.0000  31.0000 Du        
  22906 ****        29.7500  14.0000  31.2500 Du        
  22907 ****        29.7500  14.0000  31.5000 Du        
  22908 ****        29.7500  14.0000  31.7500 Du        
  22909 ****        29.7500  14.0000  32.0000 Du        
  22910 ****        29.7500  14.0000  32.2500 Du        
  22911 ****        29.7500  14.0000  32.5000 Du        
  22912 ****        29.7500  14.0000  32.7500 Du        
  22913 ****        29.7500  14.0000  42.7500 Du        
  22914 ****        29.7500  14.0000  43.0000 Du        
  22915 ****        29.7500  14.0000  43.2500 Du        
  22916 ****        29.7500  14.0000  43.5000 Du        
  22917 ****        29.7500  14.0000  43.7500 Du        
  22918 ****        29.7500  14.0000  44.0000 Du        
  22919 ****        29.7500  14.2500  30.0000 Du        
  22920 ****        29.7500  14.2500  30.2500 Du        
  22921 ****        29.7500  14.2500  30.5000 Du        
  22922 ****        29.7500  14.2500  30.7500 Du        
  22923 ****        29.7500  14.2500  31.0000 Du        
  22924 ****        29.7500  14.2500  31.2500 Du        
  22925 ****        29.7500  14.2500  31.5000 Du        
  22926 ****        29.7500  14.2500  31.7500 Du        
  22927 ****        29.7500  14.2500  32.0000 Du        
  22928 ****        29.7500  14.2500  32.2500 Du        
  22929 ****        29.7500  14.2500  43.0000 Du        
  22930 ****        29.7500  14.2500  43.2500 Du        
  22931 ****        29.7500  14.2500  43.5000 Du        
  22932 ****        29.7500  14.2500  43.7500 Du        
  22933 ****        29.7500  14.2500  44.0000 Du        
  22934 ****        29.7500  14.5000  30.5000 Du        
  22935 ****        29.7500  14.5000  30.7500 Du        
  22936 ****        29.7500  14.5000  31.0000 Du        
  22937 ****        29.7500  14.5000  31.2500 Du        
  22938 ****        29.7500  14.5000  31.5000 Du        
  22939 ****        29.7500  14.5000  31.7500 Du        
  22940 ****        29.7500  14.5000  32.0000 Du        
  22941 ****        29.7500  14.5000  32.2500 Du        
  22942 ****        29.7500  14.5000  43.5000 Du        
  22943 ****        29.7500  14.5000  43.7500 Du        
  22944 ****        29.7500  14.5000  44.0000 Du        
  22945 ****        29.7500  14.7500  30.7500 Du        
  22946 ****        29.7500  14.7500  31.0000 Du        
  22947 ****        29.7500  14.7500  31.2500 Du        
  22948 ****        29.7500  14.7500  31.5000 Du        
  22949 ****        29.7500  14.7500  31.7500 Du        
  22950 ****        29.7500  14.7500  43.7500 Du        
  22951 ****        29.7500  14.7500  44.0000 Du        
  22952 ****        29.7500  15.0000  31.0000 Du        
  22953 ****        29.7500  15.0000  31.2500 Du        
  22954 ****        29.7500  15.0000  43.7500 Du        
  22955 ****        29.7500  15.0000  44.0000 Du        
  22956 ****        29.7500  15.2500  44.0000 Du        
  22957 ****        29.7500  15.7500  33.0000 Du        
  22958 ****        29.7500  15.7500  33.2500 Du        
  22959 ****        29.7500  15.7500  33.5000 Du        
  22960 ****        29.7500  15.7500  33.7500 Du        
  22961 ****        29.7500  15.7500  34.0000 Du        
  22962 ****        29.7500  15.7500  34.2500 Du        
  22963 ****        29.7500  15.7500  44.2500 Du        
  22964 ****        29.7500  16.0000  33.0000 Du        
  22965 ****        29.7500  16.0000  33.2500 Du        
  22966 ****        29.7500  16.0000  33.5000 Du        
  22967 ****        29.7500  16.0000  33.7500 Du        
  22968 ****        29.7500  16.0000  34.0000 Du        
  22969 ****        29.7500  16.0000  34.2500 Du        
  22970 ****        29.7500  16.0000  34.5000 Du        
  22971 ****        29.7500  16.0000  34.7500 Du        
  22972 ****        29.7500  16.2500  32.7500 Du        
  22973 ****        29.7500  16.2500  33.0000 Du        
  22974 ****        29.7500  16.2500  33.2500 Du        
  22975 ****        29.7500  16.2500  33.5000 Du        
  22976 ****        29.7500  16.2500  33.7500 Du        
  22977 ****        29.7500  16.2500  34.0000 Du        
  22978 ****        29.7500  16.2500  34.2500 Du        
  22979 ****        29.7500  16.2500  34.7500 Du        
  22980 ****        29.7500  16.5000  31.7500 Du        
  22981 ****        29.7500  16.5000  32.0000 Du        
  22982 ****        29.7500  16.5000  32.2500 Du        
  22983 ****        29.7500  16.5000  32.5000 Du        
  22984 ****        29.7500  16.5000  32.7500 Du        
  22985 ****        29.7500  16.5000  33.0000 Du        
  22986 ****        29.7500  16.5000  33.2500 Du        
  22987 ****        29.7500  16.7500  31.7500 Du        
  22988 ****        29.7500  16.7500  32.0000 Du        
  22989 ****        29.7500  16.7500  32.2500 Du        
  22990 ****        29.7500  16.7500  32.5000 Du        
  22991 ****        29.7500  16.7500  32.7500 Du        
  22992 ****        29.7500  17.0000  31.7500 Du        
  22993 ****        29.7500  17.0000  32.0000 Du        
  22994 ****        29.7500  17.0000  32.2500 Du        
  22995 ****        29.7500  17.2500  31.7500 Du        
  22996 ****        29.7500  17.2500  32.0000 Du        
  22997 ****        29.7500  17.5000  31.7500 Du        
  22998 ****        29.7500  22.7500  27.7500 Du        
  22999 ****        29.7500  22.7500  28.0000 Du        
  23000 ****        29.7500  22.7500  28.2500 Du        
  23001 ****        29.7500  23.0000  27.5000 Du        
  23002 ****        29.7500  23.0000  27.7500 Du        
  23003 ****        29.7500  23.0000  28.0000 Du        
  23004 ****        29.7500  23.0000  28.2500 Du        
  23005 ****        29.7500  23.2500  27.2500 Du        
  23006 ****        29.7500  23.2500  27.5000 Du        
  23007 ****        29.7500  23.2500  27.7500 Du        
  23008 ****        29.7500  23.2500  28.0000 Du        
  23009 ****        29.7500  23.5000  27.0000 Du        
  23010 ****        29.7500  23.5000  27.2500 Du        
  23011 ****        29.7500  23.5000  27.5000 Du        
  23012 ****        29.7500  23.5000  27.7500 Du        
  23013 ****        29.7500  23.5000  28.0000 Du        
  23014 ****        29.7500  23.7500  27.0000 Du        
  23015 ****        29.7500  23.7500  27.2500 Du        
  23016 ****        29.7500  23.7500  27.5000 Du        
  23017 ****        29.7500  23.7500  27.7500 Du        
  23018 ****        29.7500  23.7500  28.0000 Du        
  23019 ****        29.7500  24.0000  26.7500 Du        
  23020 ****        29.7500  24.0000  27.0000 Du        
  23021 ****        29.7500  24.0000  27.2500 Du        
  23022 ****        29.7500  24.0000  27.5000 Du        
  23023 ****        29.7500  24.0000  27.7500 Du        
  23024 ****        30.0000 -15.2500  41.5000 Du        
  23025 ****        30.0000 -15.2500  41.7500 Du        
  23026 ****        30.0000 -15.2500  42.0000 Du        
  23027 ****        30.0000 -15.2500  42.2500 Du        
  23028 ****        30.0000 -15.0000  42.0000 Du        
  23029 ****        30.0000   2.5000  36.7500 Du        
  23030 ****        30.0000   2.5000  37.0000 Du        
  23031 ****        30.0000   2.5000  37.5000 Du        
  23032 ****        30.0000   2.7500  36.7500 Du        
  23033 ****        30.0000   2.7500  37.0000 Du        
  23034 ****        30.0000   2.7500  37.2500 Du        
  23035 ****        30.0000   2.7500  37.5000 Du        
  23036 ****        30.0000   2.7500  37.7500 Du        
  23037 ****        30.0000   2.7500  38.0000 Du        
  23038 ****        30.0000   3.0000  37.0000 Du        
  23039 ****        30.0000   3.0000  37.2500 Du        
  23040 ****        30.0000   3.0000  37.5000 Du        
  23041 ****        30.0000   3.0000  37.7500 Du        
  23042 ****        30.0000   3.0000  38.0000 Du        
  23043 ****        30.0000   3.0000  38.2500 Du        
  23044 ****        30.0000   3.2500  37.5000 Du        
  23045 ****        30.0000   3.2500  37.7500 Du        
  23046 ****        30.0000   3.2500  38.0000 Du        
  23047 ****        30.0000   3.2500  38.2500 Du        
  23048 ****        30.0000   6.5000  42.5000 Du        
  23049 ****        30.0000   6.5000  42.7500 Du        
  23050 ****        30.0000   6.5000  43.0000 Du        
  23051 ****        30.0000   6.7500  42.2500 Du        
  23052 ****        30.0000   6.7500  42.5000 Du        
  23053 ****        30.0000   6.7500  42.7500 Du        
  23054 ****        30.0000   6.7500  43.0000 Du        
  23055 ****        30.0000   7.0000  42.0000 Du        
  23056 ****        30.0000   7.0000  42.2500 Du        
  23057 ****        30.0000   7.0000  42.5000 Du        
  23058 ****        30.0000   7.0000  42.7500 Du        
  23059 ****        30.0000   7.0000  43.0000 Du        
  23060 ****        30.0000   7.2500  42.2500 Du        
  23061 ****        30.0000   7.2500  42.5000 Du        
  23062 ****        30.0000   7.2500  42.7500 Du        
  23063 ****        30.0000   7.2500  43.0000 Du        
  23064 ****        30.0000   7.5000  42.5000 Du        
  23065 ****        30.0000   7.5000  42.7500 Du        
  23066 ****        30.0000   7.5000  43.0000 Du        
  23067 ****        30.0000   7.7500  42.7500 Du        
  23068 ****        30.0000   8.5000  23.2500 Du        
  23069 ****        30.0000   8.7500  23.5000 Du        
  23070 ****        30.0000   8.7500  23.7500 Du        
  23071 ****        30.0000   8.7500  24.0000 Du        
  23072 ****        30.0000   8.7500  24.2500 Du        
  23073 ****        30.0000  12.5000  43.7500 Du        
  23074 ****        30.0000  12.7500  43.5000 Du        
  23075 ****        30.0000  12.7500  43.7500 Du        
  23076 ****        30.0000  12.7500  44.0000 Du        
  23077 ****        30.0000  13.0000  43.2500 Du        
  23078 ****        30.0000  13.0000  43.5000 Du        
  23079 ****        30.0000  13.0000  43.7500 Du        
  23080 ****        30.0000  13.0000  44.0000 Du        
  23081 ****        30.0000  13.0000  44.2500 Du        
  23082 ****        30.0000  13.2500  42.2500 Du        
  23083 ****        30.0000  13.2500  43.2500 Du        
  23084 ****        30.0000  13.2500  43.5000 Du        
  23085 ****        30.0000  13.2500  43.7500 Du        
  23086 ****        30.0000  13.2500  44.0000 Du        
  23087 ****        30.0000  13.5000  42.5000 Du        
  23088 ****        30.0000  13.5000  42.7500 Du        
  23089 ****        30.0000  13.5000  43.0000 Du        
  23090 ****        30.0000  13.5000  43.2500 Du        
  23091 ****        30.0000  13.5000  43.5000 Du        
  23092 ****        30.0000  13.5000  43.7500 Du        
  23093 ****        30.0000  13.5000  44.0000 Du        
  23094 ****        30.0000  13.7500  32.5000 Du        
  23095 ****        30.0000  13.7500  32.7500 Du        
  23096 ****        30.0000  13.7500  33.0000 Du        
  23097 ****        30.0000  13.7500  42.7500 Du        
  23098 ****        30.0000  13.7500  43.0000 Du        
  23099 ****        30.0000  13.7500  43.2500 Du        
  23100 ****        30.0000  13.7500  43.5000 Du        
  23101 ****        30.0000  13.7500  43.7500 Du        
  23102 ****        30.0000  13.7500  44.0000 Du        
  23103 ****        30.0000  14.0000  31.7500 Du        
  23104 ****        30.0000  14.0000  32.0000 Du        
  23105 ****        30.0000  14.0000  32.2500 Du        
  23106 ****        30.0000  14.0000  32.5000 Du        
  23107 ****        30.0000  14.0000  32.7500 Du        
  23108 ****        30.0000  14.0000  33.0000 Du        
  23109 ****        30.0000  14.0000  42.7500 Du        
  23110 ****        30.0000  14.0000  43.0000 Du        
  23111 ****        30.0000  14.0000  43.2500 Du        
  23112 ****        30.0000  14.0000  43.5000 Du        
  23113 ****        30.0000  14.0000  43.7500 Du        
  23114 ****        30.0000  14.0000  44.0000 Du        
  23115 ****        30.0000  14.2500  30.2500 Du        
  23116 ****        30.0000  14.2500  30.5000 Du        
  23117 ****        30.0000  14.2500  30.7500 Du        
  23118 ****        30.0000  14.2500  31.0000 Du        
  23119 ****        30.0000  14.2500  31.2500 Du        
  23120 ****        30.0000  14.2500  31.5000 Du        
  23121 ****        30.0000  14.2500  31.7500 Du        
  23122 ****        30.0000  14.2500  32.0000 Du        
  23123 ****        30.0000  14.2500  32.2500 Du        
  23124 ****        30.0000  14.2500  32.5000 Du        
  23125 ****        30.0000  14.2500  32.7500 Du        
  23126 ****        30.0000  14.2500  33.0000 Du        
  23127 ****        30.0000  14.2500  33.2500 Du        
  23128 ****        30.0000  14.2500  43.0000 Du        
  23129 ****        30.0000  14.2500  43.2500 Du        
  23130 ****        30.0000  14.2500  43.5000 Du        
  23131 ****        30.0000  14.2500  43.7500 Du        
  23132 ****        30.0000  14.2500  44.0000 Du        
  23133 ****        30.0000  14.5000  30.2500 Du        
  23134 ****        30.0000  14.5000  30.5000 Du        
  23135 ****        30.0000  14.5000  30.7500 Du        
  23136 ****        30.0000  14.5000  31.0000 Du        
  23137 ****        30.0000  14.5000  31.2500 Du        
  23138 ****        30.0000  14.5000  31.5000 Du        
  23139 ****        30.0000  14.5000  31.7500 Du        
  23140 ****        30.0000  14.5000  32.0000 Du        
  23141 ****        30.0000  14.5000  32.2500 Du        
  23142 ****        30.0000  14.5000  32.5000 Du        
  23143 ****        30.0000  14.5000  32.7500 Du        
  23144 ****        30.0000  14.5000  33.0000 Du        
  23145 ****        30.0000  14.5000  33.2500 Du        
  23146 ****        30.0000  14.5000  43.2500 Du        
  23147 ****        30.0000  14.5000  43.5000 Du        
  23148 ****        30.0000  14.5000  43.7500 Du        
  23149 ****        30.0000  14.5000  44.0000 Du        
  23150 ****        30.0000  14.7500  30.5000 Du        
  23151 ****        30.0000  14.7500  30.7500 Du        
  23152 ****        30.0000  14.7500  31.0000 Du        
  23153 ****        30.0000  14.7500  31.2500 Du        
  23154 ****        30.0000  14.7500  31.5000 Du        
  23155 ****        30.0000  14.7500  31.7500 Du        
  23156 ****        30.0000  14.7500  32.0000 Du        
  23157 ****        30.0000  14.7500  32.2500 Du        
  23158 ****        30.0000  14.7500  32.5000 Du        
  23159 ****        30.0000  14.7500  32.7500 Du        
  23160 ****        30.0000  14.7500  33.0000 Du        
  23161 ****        30.0000  14.7500  33.2500 Du        
  23162 ****        30.0000  14.7500  43.5000 Du        
  23163 ****        30.0000  14.7500  43.7500 Du        
  23164 ****        30.0000  14.7500  44.0000 Du        
  23165 ****        30.0000  15.0000  30.7500 Du        
  23166 ****        30.0000  15.0000  31.0000 Du        
  23167 ****        30.0000  15.0000  31.2500 Du        
  23168 ****        30.0000  15.0000  31.5000 Du        
  23169 ****        30.0000  15.0000  31.7500 Du        
  23170 ****        30.0000  15.0000  32.0000 Du        
  23171 ****        30.0000  15.0000  32.2500 Du        
  23172 ****        30.0000  15.0000  32.5000 Du        
  23173 ****        30.0000  15.0000  32.7500 Du        
  23174 ****        30.0000  15.0000  33.0000 Du        
  23175 ****        30.0000  15.0000  33.2500 Du        
  23176 ****        30.0000  15.0000  33.5000 Du        
  23177 ****        30.0000  15.0000  33.7500 Du        
  23178 ****        30.0000  15.0000  34.0000 Du        
  23179 ****        30.0000  15.0000  43.7500 Du        
  23180 ****        30.0000  15.0000  44.0000 Du        
  23181 ****        30.0000  15.2500  31.0000 Du        
  23182 ****        30.0000  15.2500  31.2500 Du        
  23183 ****        30.0000  15.2500  31.5000 Du        
  23184 ****        30.0000  15.2500  31.7500 Du        
  23185 ****        30.0000  15.2500  32.0000 Du        
  23186 ****        30.0000  15.2500  32.2500 Du        
  23187 ****        30.0000  15.2500  32.5000 Du        
  23188 ****        30.0000  15.2500  32.7500 Du        
  23189 ****        30.0000  15.2500  33.0000 Du        
  23190 ****        30.0000  15.2500  33.2500 Du        
  23191 ****        30.0000  15.2500  33.5000 Du        
  23192 ****        30.0000  15.2500  33.7500 Du        
  23193 ****        30.0000  15.2500  34.0000 Du        
  23194 ****        30.0000  15.2500  34.2500 Du        
  23195 ****        30.0000  15.2500  44.0000 Du        
  23196 ****        30.0000  15.2500  44.2500 Du        
  23197 ****        30.0000  15.5000  31.0000 Du        
  23198 ****        30.0000  15.5000  31.2500 Du        
  23199 ****        30.0000  15.5000  31.5000 Du        
  23200 ****        30.0000  15.5000  31.7500 Du        
  23201 ****        30.0000  15.5000  32.0000 Du        
  23202 ****        30.0000  15.5000  32.2500 Du        
  23203 ****        30.0000  15.5000  32.5000 Du        
  23204 ****        30.0000  15.5000  32.7500 Du        
  23205 ****        30.0000  15.5000  33.0000 Du        
  23206 ****        30.0000  15.5000  33.2500 Du        
  23207 ****        30.0000  15.5000  33.5000 Du        
  23208 ****        30.0000  15.5000  33.7500 Du        
  23209 ****        30.0000  15.5000  34.0000 Du        
  23210 ****        30.0000  15.5000  34.2500 Du        
  23211 ****        30.0000  15.7500  31.2500 Du        
  23212 ****        30.0000  15.7500  31.5000 Du        
  23213 ****        30.0000  15.7500  31.7500 Du        
  23214 ****        30.0000  15.7500  32.0000 Du        
  23215 ****        30.0000  15.7500  32.2500 Du        
  23216 ****        30.0000  15.7500  32.5000 Du        
  23217 ****        30.0000  15.7500  32.7500 Du        
  23218 ****        30.0000  15.7500  33.0000 Du        
  23219 ****        30.0000  15.7500  33.2500 Du        
  23220 ****        30.0000  15.7500  33.5000 Du        
  23221 ****        30.0000  15.7500  33.7500 Du        
  23222 ****        30.0000  15.7500  34.0000 Du        
  23223 ****        30.0000  15.7500  34.2500 Du        
  23224 ****        30.0000  15.7500  34.5000 Du        
  23225 ****        30.0000  16.0000  31.2500 Du        
  23226 ****        30.0000  16.0000  31.5000 Du        
  23227 ****        30.0000  16.0000  31.7500 Du        
  23228 ****        30.0000  16.0000  32.0000 Du        
  23229 ****        30.0000  16.0000  32.2500 Du        
  23230 ****        30.0000  16.0000  32.5000 Du        
  23231 ****        30.0000  16.0000  32.7500 Du        
  23232 ****        30.0000  16.0000  33.0000 Du        
  23233 ****        30.0000  16.0000  33.2500 Du        
  23234 ****        30.0000  16.0000  33.5000 Du        
  23235 ****        30.0000  16.0000  33.7500 Du        
  23236 ****        30.0000  16.0000  34.0000 Du        
  23237 ****        30.0000  16.0000  34.2500 Du        
  23238 ****        30.0000  16.0000  34.5000 Du        
  23239 ****        30.0000  16.0000  34.7500 Du        
  23240 ****        30.0000  16.2500  31.2500 Du        
  23241 ****        30.0000  16.2500  31.5000 Du        
  23242 ****        30.0000  16.2500  31.7500 Du        
  23243 ****        30.0000  16.2500  32.0000 Du        
  23244 ****        30.0000  16.2500  32.2500 Du        
  23245 ****        30.0000  16.2500  32.5000 Du        
  23246 ****        30.0000  16.2500  32.7500 Du        
  23247 ****        30.0000  16.2500  33.0000 Du        
  23248 ****        30.0000  16.2500  33.2500 Du        
  23249 ****        30.0000  16.2500  33.5000 Du        
  23250 ****        30.0000  16.2500  33.7500 Du        
  23251 ****        30.0000  16.2500  34.0000 Du        
  23252 ****        30.0000  16.2500  34.2500 Du        
  23253 ****        30.0000  16.2500  34.5000 Du        
  23254 ****        30.0000  16.2500  34.7500 Du        
  23255 ****        30.0000  16.5000  31.5000 Du        
  23256 ****        30.0000  16.5000  31.7500 Du        
  23257 ****        30.0000  16.5000  32.0000 Du        
  23258 ****        30.0000  16.5000  32.2500 Du        
  23259 ****        30.0000  16.5000  32.5000 Du        
  23260 ****        30.0000  16.5000  32.7500 Du        
  23261 ****        30.0000  16.5000  33.0000 Du        
  23262 ****        30.0000  16.5000  33.2500 Du        
  23263 ****        30.0000  16.5000  33.5000 Du        
  23264 ****        30.0000  16.5000  33.7500 Du        
  23265 ****        30.0000  16.5000  34.0000 Du        
  23266 ****        30.0000  16.7500  31.5000 Du        
  23267 ****        30.0000  16.7500  31.7500 Du        
  23268 ****        30.0000  16.7500  32.0000 Du        
  23269 ****        30.0000  16.7500  32.2500 Du        
  23270 ****        30.0000  16.7500  32.5000 Du        
  23271 ****        30.0000  16.7500  32.7500 Du        
  23272 ****        30.0000  16.7500  33.0000 Du        
  23273 ****        30.0000  17.0000  31.5000 Du        
  23274 ****        30.0000  17.0000  31.7500 Du        
  23275 ****        30.0000  17.0000  32.0000 Du        
  23276 ****        30.0000  17.0000  32.2500 Du        
  23277 ****        30.0000  17.0000  32.5000 Du        
  23278 ****        30.0000  17.2500  31.5000 Du        
  23279 ****        30.0000  17.2500  31.7500 Du        
  23280 ****        30.0000  17.2500  32.0000 Du        
  23281 ****        30.0000  17.2500  32.2500 Du        
  23282 ****        30.0000  17.5000  31.5000 Du        
  23283 ****        30.0000  17.5000  31.7500 Du        
  23284 ****        30.0000  17.5000  32.0000 Du        
  23285 ****        30.0000  22.7500  27.5000 Du        
  23286 ****        30.0000  22.7500  27.7500 Du        
  23287 ****        30.0000  22.7500  28.0000 Du        
  23288 ****        30.0000  23.0000  27.0000 Du        
  23289 ****        30.0000  23.0000  27.2500 Du        
  23290 ****        30.0000  23.0000  27.5000 Du        
  23291 ****        30.0000  23.0000  27.7500 Du        
  23292 ****        30.0000  23.0000  28.0000 Du        
  23293 ****        30.0000  23.0000  28.2500 Du        
  23294 ****        30.0000  23.2500  26.7500 Du        
  23295 ****        30.0000  23.2500  27.0000 Du        
  23296 ****        30.0000  23.2500  27.2500 Du        
  23297 ****        30.0000  23.2500  27.5000 Du        
  23298 ****        30.0000  23.2500  27.7500 Du        
  23299 ****        30.0000  23.2500  28.0000 Du        
  23300 ****        30.0000  23.5000  26.7500 Du        
  23301 ****        30.0000  23.5000  27.0000 Du        
  23302 ****        30.0000  23.5000  27.2500 Du        
  23303 ****        30.0000  23.5000  27.5000 Du        
  23304 ****        30.0000  23.5000  27.7500 Du        
  23305 ****        30.0000  23.5000  28.0000 Du        
  23306 ****        30.0000  23.7500  26.7500 Du        
  23307 ****        30.0000  23.7500  27.0000 Du        
  23308 ****        30.0000  23.7500  27.2500 Du        
  23309 ****        30.0000  23.7500  27.5000 Du        
  23310 ****        30.0000  23.7500  27.7500 Du        
  23311 ****        30.0000  23.7500  28.0000 Du        
  23312 ****        30.0000  24.0000  26.7500 Du        
  23313 ****        30.0000  24.0000  27.0000 Du        
  23314 ****        30.0000  24.0000  27.2500 Du        
  23315 ****        30.0000  24.0000  27.5000 Du        
  23316 ****        30.0000  24.0000  27.7500 Du        
  23317 ****        30.2500 -15.2500  41.2500 Du        
  23318 ****        30.2500 -15.2500  41.5000 Du        
  23319 ****        30.2500 -15.2500  41.7500 Du        
  23320 ****        30.2500 -15.2500  42.0000 Du        
  23321 ****        30.2500 -15.2500  42.2500 Du        
  23322 ****        30.2500 -15.2500  42.5000 Du        
  23323 ****        30.2500 -15.0000  41.7500 Du        
  23324 ****        30.2500 -15.0000  42.0000 Du        
  23325 ****        30.2500 -15.0000  42.2500 Du        
  23326 ****        30.2500 -15.0000  42.5000 Du        
  23327 ****        30.2500 -14.7500  42.0000 Du        
  23328 ****        30.2500 -14.7500  42.2500 Du        
  23329 ****        30.2500   2.2500  36.7500 Du        
  23330 ****        30.2500   2.2500  37.0000 Du        
  23331 ****        30.2500   2.2500  37.2500 Du        
  23332 ****        30.2500   2.2500  37.5000 Du        
  23333 ****        30.2500   2.5000  36.5000 Du        
  23334 ****        30.2500   2.5000  36.7500 Du        
  23335 ****        30.2500   2.5000  37.0000 Du        
  23336 ****        30.2500   2.5000  37.2500 Du        
  23337 ****        30.2500   2.5000  37.5000 Du        
  23338 ****        30.2500   2.5000  37.7500 Du        
  23339 ****        30.2500   2.5000  38.0000 Du        
  23340 ****        30.2500   2.5000  38.2500 Du        
  23341 ****        30.2500   2.7500  36.5000 Du        
  23342 ****        30.2500   2.7500  36.7500 Du        
  23343 ****        30.2500   2.7500  37.0000 Du        
  23344 ****        30.2500   2.7500  37.2500 Du        
  23345 ****        30.2500   2.7500  37.5000 Du        
  23346 ****        30.2500   2.7500  37.7500 Du        
  23347 ****        30.2500   2.7500  38.0000 Du        
  23348 ****        30.2500   2.7500  38.2500 Du        
  23349 ****        30.2500   2.7500  38.5000 Du        
  23350 ****        30.2500   2.7500  38.7500 Du        
  23351 ****        30.2500   3.0000  37.0000 Du        
  23352 ****        30.2500   3.0000  37.2500 Du        
  23353 ****        30.2500   3.0000  37.5000 Du        
  23354 ****        30.2500   3.0000  37.7500 Du        
  23355 ****        30.2500   3.0000  38.0000 Du        
  23356 ****        30.2500   3.0000  38.2500 Du        
  23357 ****        30.2500   3.0000  38.5000 Du        
  23358 ****        30.2500   3.0000  38.7500 Du        
  23359 ****        30.2500   3.2500  37.2500 Du        
  23360 ****        30.2500   3.2500  37.5000 Du        
  23361 ****        30.2500   3.2500  37.7500 Du        
  23362 ****        30.2500   3.2500  38.0000 Du        
  23363 ****        30.2500   3.2500  38.2500 Du        
  23364 ****        30.2500   3.2500  38.5000 Du        
  23365 ****        30.2500   3.2500  38.7500 Du        
  23366 ****        30.2500   3.5000  38.5000 Du        
  23367 ****        30.2500   3.5000  38.7500 Du        
  23368 ****        30.2500   6.2500  42.7500 Du        
  23369 ****        30.2500   6.2500  43.0000 Du        
  23370 ****        30.2500   6.5000  42.2500 Du        
  23371 ****        30.2500   6.5000  42.5000 Du        
  23372 ****        30.2500   6.5000  42.7500 Du        
  23373 ****        30.2500   6.5000  43.0000 Du        
  23374 ****        30.2500   6.7500  42.2500 Du        
  23375 ****        30.2500   6.7500  42.5000 Du        
  23376 ****        30.2500   6.7500  42.7500 Du        
  23377 ****        30.2500   6.7500  43.0000 Du        
  23378 ****        30.2500   7.0000  42.2500 Du        
  23379 ****        30.2500   7.0000  42.5000 Du        
  23380 ****        30.2500   7.0000  42.7500 Du        
  23381 ****        30.2500   7.0000  43.0000 Du        
  23382 ****        30.2500   7.0000  43.2500 Du        
  23383 ****        30.2500   7.2500  42.2500 Du        
  23384 ****        30.2500   7.2500  42.5000 Du        
  23385 ****        30.2500   7.2500  42.7500 Du        
  23386 ****        30.2500   7.2500  43.0000 Du        
  23387 ****        30.2500   7.5000  42.7500 Du        
  23388 ****        30.2500   7.5000  43.0000 Du        
  23389 ****        30.2500   7.7500  42.7500 Du        
  23390 ****        30.2500   7.7500  43.0000 Du        
  23391 ****        30.2500   8.0000  42.7500 Du        
  23392 ****        30.2500   8.5000  23.5000 Du        
  23393 ****        30.2500   8.7500  23.2500 Du        
  23394 ****        30.2500   8.7500  23.5000 Du        
  23395 ****        30.2500   8.7500  23.7500 Du        
  23396 ****        30.2500   8.7500  24.0000 Du        
  23397 ****        30.2500   8.7500  24.2500 Du        
  23398 ****        30.2500   9.0000  23.7500 Du        
  23399 ****        30.2500   9.0000  24.0000 Du        
  23400 ****        30.2500  13.0000  42.2500 Du        
  23401 ****        30.2500  13.0000  43.5000 Du        
  23402 ****        30.2500  13.0000  43.7500 Du        
  23403 ****        30.2500  13.0000  44.0000 Du        
  23404 ****        30.2500  13.2500  42.2500 Du        
  23405 ****        30.2500  13.2500  43.5000 Du        
  23406 ****        30.2500  13.2500  43.7500 Du        
  23407 ****        30.2500  13.2500  44.0000 Du        
  23408 ****        30.2500  13.5000  42.5000 Du        
  23409 ****        30.2500  13.5000  42.7500 Du        
  23410 ****        30.2500  13.5000  43.0000 Du        
  23411 ****        30.2500  13.5000  43.2500 Du        
  23412 ****        30.2500  13.5000  43.5000 Du        
  23413 ****        30.2500  13.5000  43.7500 Du        
  23414 ****        30.2500  13.5000  44.0000 Du        
  23415 ****        30.2500  13.7500  33.0000 Du        
  23416 ****        30.2500  13.7500  42.7500 Du        
  23417 ****        30.2500  13.7500  43.0000 Du        
  23418 ****        30.2500  13.7500  43.2500 Du        
  23419 ****        30.2500  13.7500  43.5000 Du        
  23420 ****        30.2500  13.7500  43.7500 Du        
  23421 ****        30.2500  13.7500  44.0000 Du        
  23422 ****        30.2500  14.0000  32.0000 Du        
  23423 ****        30.2500  14.0000  32.2500 Du        
  23424 ****        30.2500  14.0000  32.5000 Du        
  23425 ****        30.2500  14.0000  32.7500 Du        
  23426 ****        30.2500  14.0000  33.0000 Du        
  23427 ****        30.2500  14.0000  33.2500 Du        
  23428 ****        30.2500  14.0000  42.7500 Du        
  23429 ****        30.2500  14.0000  43.0000 Du        
  23430 ****        30.2500  14.0000  43.2500 Du        
  23431 ****        30.2500  14.0000  43.5000 Du        
  23432 ****        30.2500  14.0000  43.7500 Du        
  23433 ****        30.2500  14.0000  44.0000 Du        
  23434 ****        30.2500  14.2500  30.7500 Du        
  23435 ****        30.2500  14.2500  31.0000 Du        
  23436 ****        30.2500  14.2500  31.2500 Du        
  23437 ****        30.2500  14.2500  31.5000 Du        
  23438 ****        30.2500  14.2500  31.7500 Du        
  23439 ****        30.2500  14.2500  32.0000 Du        
  23440 ****        30.2500  14.2500  32.2500 Du        
  23441 ****        30.2500  14.2500  32.5000 Du        
  23442 ****        30.2500  14.2500  32.7500 Du        
  23443 ****        30.2500  14.2500  33.0000 Du        
  23444 ****        30.2500  14.2500  33.2500 Du        
  23445 ****        30.2500  14.2500  33.5000 Du        
  23446 ****        30.2500  14.2500  43.0000 Du        
  23447 ****        30.2500  14.2500  43.2500 Du        
  23448 ****        30.2500  14.2500  43.5000 Du        
  23449 ****        30.2500  14.2500  43.7500 Du        
  23450 ****        30.2500  14.2500  44.0000 Du        
  23451 ****        30.2500  14.5000  30.5000 Du        
  23452 ****        30.2500  14.5000  30.7500 Du        
  23453 ****        30.2500  14.5000  31.0000 Du        
  23454 ****        30.2500  14.5000  31.2500 Du        
  23455 ****        30.2500  14.5000  31.5000 Du        
  23456 ****        30.2500  14.5000  31.7500 Du        
  23457 ****        30.2500  14.5000  32.0000 Du        
  23458 ****        30.2500  14.5000  32.2500 Du        
  23459 ****        30.2500  14.5000  32.5000 Du        
  23460 ****        30.2500  14.5000  32.7500 Du        
  23461 ****        30.2500  14.5000  33.0000 Du        
  23462 ****        30.2500  14.5000  33.2500 Du        
  23463 ****        30.2500  14.5000  33.5000 Du        
  23464 ****        30.2500  14.5000  33.7500 Du        
  23465 ****        30.2500  14.5000  43.2500 Du        
  23466 ****        30.2500  14.5000  43.5000 Du        
  23467 ****        30.2500  14.5000  43.7500 Du        
  23468 ****        30.2500  14.5000  44.0000 Du        
  23469 ****        30.2500  14.7500  30.7500 Du        
  23470 ****        30.2500  14.7500  31.0000 Du        
  23471 ****        30.2500  14.7500  31.2500 Du        
  23472 ****        30.2500  14.7500  31.5000 Du        
  23473 ****        30.2500  14.7500  31.7500 Du        
  23474 ****        30.2500  14.7500  32.0000 Du        
  23475 ****        30.2500  14.7500  32.2500 Du        
  23476 ****        30.2500  14.7500  32.5000 Du        
  23477 ****        30.2500  14.7500  32.7500 Du        
  23478 ****        30.2500  14.7500  33.0000 Du        
  23479 ****        30.2500  14.7500  33.2500 Du        
  23480 ****        30.2500  14.7500  33.5000 Du        
  23481 ****        30.2500  14.7500  33.7500 Du        
  23482 ****        30.2500  14.7500  43.5000 Du        
  23483 ****        30.2500  14.7500  43.7500 Du        
  23484 ****        30.2500  14.7500  44.0000 Du        
  23485 ****        30.2500  15.0000  30.7500 Du        
  23486 ****        30.2500  15.0000  31.0000 Du        
  23487 ****        30.2500  15.0000  31.2500 Du        
  23488 ****        30.2500  15.0000  31.5000 Du        
  23489 ****        30.2500  15.0000  31.7500 Du        
  23490 ****        30.2500  15.0000  32.0000 Du        
  23491 ****        30.2500  15.0000  32.2500 Du        
  23492 ****        30.2500  15.0000  32.5000 Du        
  23493 ****        30.2500  15.0000  32.7500 Du        
  23494 ****        30.2500  15.0000  33.0000 Du        
  23495 ****        30.2500  15.0000  33.2500 Du        
  23496 ****        30.2500  15.0000  33.5000 Du        
  23497 ****        30.2500  15.0000  33.7500 Du        
  23498 ****        30.2500  15.0000  34.0000 Du        
  23499 ****        30.2500  15.0000  43.7500 Du        
  23500 ****        30.2500  15.0000  44.0000 Du        
  23501 ****        30.2500  15.2500  31.0000 Du        
  23502 ****        30.2500  15.2500  31.2500 Du        
  23503 ****        30.2500  15.2500  31.5000 Du        
  23504 ****        30.2500  15.2500  31.7500 Du        
  23505 ****        30.2500  15.2500  32.0000 Du        
  23506 ****        30.2500  15.2500  32.2500 Du        
  23507 ****        30.2500  15.2500  32.5000 Du        
  23508 ****        30.2500  15.2500  32.7500 Du        
  23509 ****        30.2500  15.2500  33.0000 Du        
  23510 ****        30.2500  15.2500  33.2500 Du        
  23511 ****        30.2500  15.2500  33.5000 Du        
  23512 ****        30.2500  15.2500  33.7500 Du        
  23513 ****        30.2500  15.2500  34.0000 Du        
  23514 ****        30.2500  15.2500  44.0000 Du        
  23515 ****        30.2500  15.5000  31.0000 Du        
  23516 ****        30.2500  15.5000  31.2500 Du        
  23517 ****        30.2500  15.5000  31.5000 Du        
  23518 ****        30.2500  15.5000  31.7500 Du        
  23519 ****        30.2500  15.5000  32.0000 Du        
  23520 ****        30.2500  15.5000  32.2500 Du        
  23521 ****        30.2500  15.5000  32.5000 Du        
  23522 ****        30.2500  15.5000  32.7500 Du        
  23523 ****        30.2500  15.5000  33.0000 Du        
  23524 ****        30.2500  15.5000  33.2500 Du        
  23525 ****        30.2500  15.5000  33.5000 Du        
  23526 ****        30.2500  15.5000  33.7500 Du        
  23527 ****        30.2500  15.5000  34.0000 Du        
  23528 ****        30.2500  15.5000  34.2500 Du        
  23529 ****        30.2500  15.7500  31.2500 Du        
  23530 ****        30.2500  15.7500  31.5000 Du        
  23531 ****        30.2500  15.7500  31.7500 Du        
  23532 ****        30.2500  15.7500  32.0000 Du        
  23533 ****        30.2500  15.7500  32.2500 Du        
  23534 ****        30.2500  15.7500  32.5000 Du        
  23535 ****        30.2500  15.7500  32.7500 Du        
  23536 ****        30.2500  15.7500  33.0000 Du        
  23537 ****        30.2500  15.7500  33.2500 Du        
  23538 ****        30.2500  15.7500  33.5000 Du        
  23539 ****        30.2500  15.7500  33.7500 Du        
  23540 ****        30.2500  15.7500  34.0000 Du        
  23541 ****        30.2500  15.7500  34.2500 Du        
  23542 ****        30.2500  16.0000  31.2500 Du        
  23543 ****        30.2500  16.0000  31.5000 Du        
  23544 ****        30.2500  16.0000  31.7500 Du        
  23545 ****        30.2500  16.0000  32.0000 Du        
  23546 ****        30.2500  16.0000  32.2500 Du        
  23547 ****        30.2500  16.0000  32.5000 Du        
  23548 ****        30.2500  16.0000  32.7500 Du        
  23549 ****        30.2500  16.0000  33.0000 Du        
  23550 ****        30.2500  16.0000  33.2500 Du        
  23551 ****        30.2500  16.0000  33.5000 Du        
  23552 ****        30.2500  16.0000  33.7500 Du        
  23553 ****        30.2500  16.0000  34.0000 Du        
  23554 ****        30.2500  16.0000  34.2500 Du        
  23555 ****        30.2500  16.0000  34.5000 Du        
  23556 ****        30.2500  16.2500  31.2500 Du        
  23557 ****        30.2500  16.2500  31.5000 Du        
  23558 ****        30.2500  16.2500  31.7500 Du        
  23559 ****        30.2500  16.2500  32.0000 Du        
  23560 ****        30.2500  16.2500  32.2500 Du        
  23561 ****        30.2500  16.2500  32.5000 Du        
  23562 ****        30.2500  16.2500  32.7500 Du        
  23563 ****        30.2500  16.2500  33.0000 Du        
  23564 ****        30.2500  16.2500  33.2500 Du        
  23565 ****        30.2500  16.2500  33.5000 Du        
  23566 ****        30.2500  16.2500  33.7500 Du        
  23567 ****        30.2500  16.2500  34.0000 Du        
  23568 ****        30.2500  16.2500  34.2500 Du        
  23569 ****        30.2500  16.2500  34.5000 Du        
  23570 ****        30.2500  16.5000  31.2500 Du        
  23571 ****        30.2500  16.5000  31.5000 Du        
  23572 ****        30.2500  16.5000  31.7500 Du        
  23573 ****        30.2500  16.5000  32.0000 Du        
  23574 ****        30.2500  16.5000  32.2500 Du        
  23575 ****        30.2500  16.5000  32.5000 Du        
  23576 ****        30.2500  16.5000  32.7500 Du        
  23577 ****        30.2500  16.5000  33.0000 Du        
  23578 ****        30.2500  16.5000  33.2500 Du        
  23579 ****        30.2500  16.5000  33.5000 Du        
  23580 ****        30.2500  16.5000  33.7500 Du        
  23581 ****        30.2500  16.5000  34.0000 Du        
  23582 ****        30.2500  16.7500  31.5000 Du        
  23583 ****        30.2500  16.7500  31.7500 Du        
  23584 ****        30.2500  16.7500  32.0000 Du        
  23585 ****        30.2500  16.7500  32.2500 Du        
  23586 ****        30.2500  16.7500  32.5000 Du        
  23587 ****        30.2500  16.7500  32.7500 Du        
  23588 ****        30.2500  16.7500  33.0000 Du        
  23589 ****        30.2500  16.7500  33.2500 Du        
  23590 ****        30.2500  17.0000  31.5000 Du        
  23591 ****        30.2500  17.0000  31.7500 Du        
  23592 ****        30.2500  17.0000  32.0000 Du        
  23593 ****        30.2500  17.0000  32.2500 Du        
  23594 ****        30.2500  17.0000  32.5000 Du        
  23595 ****        30.2500  17.0000  32.7500 Du        
  23596 ****        30.2500  17.2500  31.5000 Du        
  23597 ****        30.2500  17.2500  31.7500 Du        
  23598 ****        30.2500  17.2500  32.0000 Du        
  23599 ****        30.2500  17.2500  32.2500 Du        
  23600 ****        30.2500  17.5000  31.5000 Du        
  23601 ****        30.2500  17.5000  31.7500 Du        
  23602 ****        30.2500  17.5000  32.0000 Du        
  23603 ****        30.2500  17.7500  31.5000 Du        
  23604 ****        30.2500  17.7500  31.7500 Du        
  23605 ****        30.2500  22.7500  27.5000 Du        
  23606 ****        30.2500  22.7500  27.7500 Du        
  23607 ****        30.2500  22.7500  28.0000 Du        
  23608 ****        30.2500  23.0000  26.7500 Du        
  23609 ****        30.2500  23.0000  27.0000 Du        
  23610 ****        30.2500  23.0000  27.2500 Du        
  23611 ****        30.2500  23.0000  27.5000 Du        
  23612 ****        30.2500  23.0000  27.7500 Du        
  23613 ****        30.2500  23.0000  28.0000 Du        
  23614 ****        30.2500  23.2500  26.7500 Du        
  23615 ****        30.2500  23.2500  27.0000 Du        
  23616 ****        30.2500  23.2500  27.2500 Du        
  23617 ****        30.2500  23.2500  27.5000 Du        
  23618 ****        30.2500  23.2500  27.7500 Du        
  23619 ****        30.2500  23.2500  28.0000 Du        
  23620 ****        30.2500  23.5000  26.7500 Du        
  23621 ****        30.2500  23.5000  27.0000 Du        
  23622 ****        30.2500  23.5000  27.2500 Du        
  23623 ****        30.2500  23.5000  27.5000 Du        
  23624 ****        30.2500  23.5000  27.7500 Du        
  23625 ****        30.2500  23.5000  28.0000 Du        
  23626 ****        30.2500  23.7500  26.7500 Du        
  23627 ****        30.2500  23.7500  27.0000 Du        
  23628 ****        30.2500  23.7500  27.2500 Du        
  23629 ****        30.2500  23.7500  27.5000 Du        
  23630 ****        30.2500  23.7500  27.7500 Du        
  23631 ****        30.2500  24.0000  26.7500 Du        
  23632 ****        30.2500  24.0000  27.0000 Du        
  23633 ****        30.2500  24.0000  27.2500 Du        
  23634 ****        30.2500  24.0000  27.5000 Du        
  23635 ****        30.2500  24.0000  27.7500 Du        
  23636 ****        30.5000 -15.7500  42.2500 Du        
  23637 ****        30.5000 -15.7500  42.5000 Du        
  23638 ****        30.5000 -15.5000  42.2500 Du        
  23639 ****        30.5000 -15.5000  42.5000 Du        
  23640 ****        30.5000 -15.2500  41.5000 Du        
  23641 ****        30.5000 -15.2500  41.7500 Du        
  23642 ****        30.5000 -15.2500  42.0000 Du        
  23643 ****        30.5000 -15.2500  42.2500 Du        
  23644 ****        30.5000 -15.2500  42.5000 Du        
  23645 ****        30.5000 -15.0000  41.7500 Du        
  23646 ****        30.5000 -15.0000  42.0000 Du        
  23647 ****        30.5000 -15.0000  42.2500 Du        
  23648 ****        30.5000 -15.0000  42.5000 Du        
  23649 ****        30.5000 -14.7500  42.0000 Du        
  23650 ****        30.5000 -14.7500  42.2500 Du        
  23651 ****        30.5000 -11.7500  44.7500 Du        
  23652 ****        30.5000 -11.7500  45.0000 Du        
  23653 ****        30.5000 -11.5000  45.0000 Du        
  23654 ****        30.5000   2.2500  36.5000 Du        
  23655 ****        30.5000   2.2500  36.7500 Du        
  23656 ****        30.5000   2.2500  37.0000 Du        
  23657 ****        30.5000   2.2500  37.2500 Du        
  23658 ****        30.5000   2.2500  37.5000 Du        
  23659 ****        30.5000   2.2500  37.7500 Du        
  23660 ****        30.5000   2.2500  38.0000 Du        
  23661 ****        30.5000   2.5000  36.7500 Du        
  23662 ****        30.5000   2.5000  37.0000 Du        
  23663 ****        30.5000   2.5000  37.2500 Du        
  23664 ****        30.5000   2.5000  37.5000 Du        
  23665 ****        30.5000   2.5000  37.7500 Du        
  23666 ****        30.5000   2.5000  38.0000 Du        
  23667 ****        30.5000   2.5000  38.2500 Du        
  23668 ****        30.5000   2.5000  38.5000 Du        
  23669 ****        30.5000   2.5000  38.7500 Du        
  23670 ****        30.5000   2.5000  39.0000 Du        
  23671 ****        30.5000   2.7500  36.7500 Du        
  23672 ****        30.5000   2.7500  37.0000 Du        
  23673 ****        30.5000   2.7500  37.2500 Du        
  23674 ****        30.5000   2.7500  37.5000 Du        
  23675 ****        30.5000   2.7500  37.7500 Du        
  23676 ****        30.5000   2.7500  38.0000 Du        
  23677 ****        30.5000   2.7500  38.2500 Du        
  23678 ****        30.5000   2.7500  38.5000 Du        
  23679 ****        30.5000   2.7500  38.7500 Du        
  23680 ****        30.5000   2.7500  39.0000 Du        
  23681 ****        30.5000   2.7500  39.2500 Du        
  23682 ****        30.5000   3.0000  37.0000 Du        
  23683 ****        30.5000   3.0000  37.2500 Du        
  23684 ****        30.5000   3.0000  37.5000 Du        
  23685 ****        30.5000   3.0000  37.7500 Du        
  23686 ****        30.5000   3.0000  38.0000 Du        
  23687 ****        30.5000   3.0000  38.2500 Du        
  23688 ****        30.5000   3.0000  38.5000 Du        
  23689 ****        30.5000   3.0000  38.7500 Du        
  23690 ****        30.5000   3.0000  39.0000 Du        
  23691 ****        30.5000   3.0000  39.2500 Du        
  23692 ****        30.5000   3.2500  37.5000 Du        
  23693 ****        30.5000   3.2500  37.7500 Du        
  23694 ****        30.5000   3.2500  38.0000 Du        
  23695 ****        30.5000   3.2500  38.2500 Du        
  23696 ****        30.5000   3.2500  38.5000 Du        
  23697 ****        30.5000   3.2500  38.7500 Du        
  23698 ****        30.5000   3.2500  39.0000 Du        
  23699 ****        30.5000   3.2500  39.2500 Du        
  23700 ****        30.5000   3.5000  38.7500 Du        
  23701 ****        30.5000   6.2500  42.5000 Du        
  23702 ****        30.5000   6.2500  42.7500 Du        
  23703 ****        30.5000   6.2500  43.0000 Du        
  23704 ****        30.5000   6.5000  42.7500 Du        
  23705 ****        30.5000   6.7500  42.5000 Du        
  23706 ****        30.5000   6.7500  42.7500 Du        
  23707 ****        30.5000   6.7500  43.0000 Du        
  23708 ****        30.5000   7.0000  42.5000 Du        
  23709 ****        30.5000   7.0000  42.7500 Du        
  23710 ****        30.5000   7.0000  43.0000 Du        
  23711 ****        30.5000   7.2500  42.5000 Du        
  23712 ****        30.5000   7.2500  42.7500 Du        
  23713 ****        30.5000   7.2500  43.0000 Du        
  23714 ****        30.5000   7.2500  43.2500 Du        
  23715 ****        30.5000   7.5000  42.7500 Du        
  23716 ****        30.5000   7.5000  43.0000 Du        
  23717 ****        30.5000   7.7500  43.0000 Du        
  23718 ****        30.5000   8.7500  24.0000 Du        
  23719 ****        30.5000   9.0000  24.0000 Du        
  23720 ****        30.5000  13.0000  42.5000 Du        
  23721 ****        30.5000  13.0000  42.7500 Du        
  23722 ****        30.5000  13.0000  43.0000 Du        
  23723 ****        30.5000  13.2500  42.2500 Du        
  23724 ****        30.5000  13.2500  42.5000 Du        
  23725 ****        30.5000  13.2500  42.7500 Du        
  23726 ****        30.5000  13.2500  43.0000 Du        
  23727 ****        30.5000  13.2500  43.2500 Du        
  23728 ****        30.5000  13.2500  43.5000 Du        
  23729 ****        30.5000  13.5000  42.5000 Du        
  23730 ****        30.5000  13.5000  42.7500 Du        
  23731 ****        30.5000  13.5000  43.0000 Du        
  23732 ****        30.5000  13.5000  43.2500 Du        
  23733 ****        30.5000  13.5000  43.5000 Du        
  23734 ****        30.5000  13.5000  43.7500 Du        
  23735 ****        30.5000  13.5000  44.0000 Du        
  23736 ****        30.5000  13.7500  42.2500 Du        
  23737 ****        30.5000  13.7500  42.5000 Du        
  23738 ****        30.5000  13.7500  42.7500 Du        
  23739 ****        30.5000  13.7500  43.0000 Du        
  23740 ****        30.5000  13.7500  43.2500 Du        
  23741 ****        30.5000  13.7500  43.5000 Du        
  23742 ****        30.5000  13.7500  43.7500 Du        
  23743 ****        30.5000  13.7500  44.0000 Du        
  23744 ****        30.5000  14.0000  32.7500 Du        
  23745 ****        30.5000  14.0000  33.0000 Du        
  23746 ****        30.5000  14.0000  33.2500 Du        
  23747 ****        30.5000  14.0000  42.2500 Du        
  23748 ****        30.5000  14.0000  42.5000 Du        
  23749 ****        30.5000  14.0000  42.7500 Du        
  23750 ****        30.5000  14.0000  43.0000 Du        
  23751 ****        30.5000  14.0000  43.2500 Du        
  23752 ****        30.5000  14.0000  43.5000 Du        
  23753 ****        30.5000  14.0000  43.7500 Du        
  23754 ****        30.5000  14.0000  44.0000 Du        
  23755 ****        30.5000  14.2500  32.0000 Du        
  23756 ****        30.5000  14.2500  32.2500 Du        
  23757 ****        30.5000  14.2500  32.7500 Du        
  23758 ****        30.5000  14.2500  33.0000 Du        
  23759 ****        30.5000  14.2500  33.2500 Du        
  23760 ****        30.5000  14.2500  33.5000 Du        
  23761 ****        30.5000  14.2500  33.7500 Du        
  23762 ****        30.5000  14.2500  42.7500 Du        
  23763 ****        30.5000  14.2500  43.0000 Du        
  23764 ****        30.5000  14.2500  43.2500 Du        
  23765 ****        30.5000  14.2500  43.5000 Du        
  23766 ****        30.5000  14.2500  43.7500 Du        
  23767 ****        30.5000  14.2500  44.0000 Du        
  23768 ****        30.5000  14.5000  30.7500 Du        
  23769 ****        30.5000  14.5000  31.0000 Du        
  23770 ****        30.5000  14.5000  31.2500 Du        
  23771 ****        30.5000  14.5000  31.5000 Du        
  23772 ****        30.5000  14.5000  31.7500 Du        
  23773 ****        30.5000  14.5000  32.0000 Du        
  23774 ****        30.5000  14.5000  32.2500 Du        
  23775 ****        30.5000  14.5000  32.5000 Du        
  23776 ****        30.5000  14.5000  32.7500 Du        
  23777 ****        30.5000  14.5000  33.0000 Du        
  23778 ****        30.5000  14.5000  33.2500 Du        
  23779 ****        30.5000  14.5000  33.5000 Du        
  23780 ****        30.5000  14.5000  33.7500 Du        
  23781 ****        30.5000  14.5000  43.0000 Du        
  23782 ****        30.5000  14.5000  43.2500 Du        
  23783 ****        30.5000  14.5000  43.5000 Du        
  23784 ****        30.5000  14.5000  43.7500 Du        
  23785 ****        30.5000  14.5000  44.0000 Du        
  23786 ****        30.5000  14.7500  30.7500 Du        
  23787 ****        30.5000  14.7500  31.0000 Du        
  23788 ****        30.5000  14.7500  31.2500 Du        
  23789 ****        30.5000  14.7500  31.5000 Du        
  23790 ****        30.5000  14.7500  31.7500 Du        
  23791 ****        30.5000  14.7500  32.0000 Du        
  23792 ****        30.5000  14.7500  32.2500 Du        
  23793 ****        30.5000  14.7500  32.5000 Du        
  23794 ****        30.5000  14.7500  32.7500 Du        
  23795 ****        30.5000  14.7500  33.0000 Du        
  23796 ****        30.5000  14.7500  33.2500 Du        
  23797 ****        30.5000  14.7500  33.5000 Du        
  23798 ****        30.5000  14.7500  33.7500 Du        
  23799 ****        30.5000  14.7500  43.2500 Du        
  23800 ****        30.5000  14.7500  43.5000 Du        
  23801 ****        30.5000  14.7500  43.7500 Du        
  23802 ****        30.5000  14.7500  44.0000 Du        
  23803 ****        30.5000  14.7500  44.2500 Du        
  23804 ****        30.5000  15.0000  31.0000 Du        
  23805 ****        30.5000  15.0000  31.2500 Du        
  23806 ****        30.5000  15.0000  31.5000 Du        
  23807 ****        30.5000  15.0000  31.7500 Du        
  23808 ****        30.5000  15.0000  32.0000 Du        
  23809 ****        30.5000  15.0000  32.2500 Du        
  23810 ****        30.5000  15.0000  32.5000 Du        
  23811 ****        30.5000  15.0000  32.7500 Du        
  23812 ****        30.5000  15.0000  33.0000 Du        
  23813 ****        30.5000  15.0000  33.2500 Du        
  23814 ****        30.5000  15.0000  33.5000 Du        
  23815 ****        30.5000  15.0000  33.7500 Du        
  23816 ****        30.5000  15.0000  43.5000 Du        
  23817 ****        30.5000  15.0000  43.7500 Du        
  23818 ****        30.5000  15.0000  44.0000 Du        
  23819 ****        30.5000  15.0000  44.2500 Du        
  23820 ****        30.5000  15.2500  31.0000 Du        
  23821 ****        30.5000  15.2500  31.2500 Du        
  23822 ****        30.5000  15.2500  31.5000 Du        
  23823 ****        30.5000  15.2500  31.7500 Du        
  23824 ****        30.5000  15.2500  32.0000 Du        
  23825 ****        30.5000  15.2500  32.2500 Du        
  23826 ****        30.5000  15.2500  32.5000 Du        
  23827 ****        30.5000  15.2500  32.7500 Du        
  23828 ****        30.5000  15.2500  33.0000 Du        
  23829 ****        30.5000  15.2500  33.2500 Du        
  23830 ****        30.5000  15.2500  33.5000 Du        
  23831 ****        30.5000  15.2500  33.7500 Du        
  23832 ****        30.5000  15.2500  34.0000 Du        
  23833 ****        30.5000  15.2500  44.0000 Du        
  23834 ****        30.5000  15.2500  44.2500 Du        
  23835 ****        30.5000  15.5000  31.2500 Du        
  23836 ****        30.5000  15.5000  31.5000 Du        
  23837 ****        30.5000  15.5000  31.7500 Du        
  23838 ****        30.5000  15.5000  32.0000 Du        
  23839 ****        30.5000  15.5000  32.2500 Du        
  23840 ****        30.5000  15.5000  32.5000 Du        
  23841 ****        30.5000  15.5000  32.7500 Du        
  23842 ****        30.5000  15.5000  33.0000 Du        
  23843 ****        30.5000  15.5000  33.2500 Du        
  23844 ****        30.5000  15.5000  33.5000 Du        
  23845 ****        30.5000  15.5000  33.7500 Du        
  23846 ****        30.5000  15.5000  34.0000 Du        
  23847 ****        30.5000  15.5000  34.2500 Du        
  23848 ****        30.5000  15.7500  31.2500 Du        
  23849 ****        30.5000  15.7500  31.5000 Du        
  23850 ****        30.5000  15.7500  31.7500 Du        
  23851 ****        30.5000  15.7500  32.0000 Du        
  23852 ****        30.5000  15.7500  32.2500 Du        
  23853 ****        30.5000  15.7500  32.5000 Du        
  23854 ****        30.5000  15.7500  32.7500 Du        
  23855 ****        30.5000  15.7500  33.0000 Du        
  23856 ****        30.5000  15.7500  33.2500 Du        
  23857 ****        30.5000  15.7500  33.5000 Du        
  23858 ****        30.5000  15.7500  33.7500 Du        
  23859 ****        30.5000  15.7500  34.0000 Du        
  23860 ****        30.5000  15.7500  34.2500 Du        
  23861 ****        30.5000  16.0000  31.2500 Du        
  23862 ****        30.5000  16.0000  31.5000 Du        
  23863 ****        30.5000  16.0000  31.7500 Du        
  23864 ****        30.5000  16.0000  32.0000 Du        
  23865 ****        30.5000  16.0000  32.2500 Du        
  23866 ****        30.5000  16.0000  32.5000 Du        
  23867 ****        30.5000  16.0000  32.7500 Du        
  23868 ****        30.5000  16.0000  33.0000 Du        
  23869 ****        30.5000  16.0000  33.2500 Du        
  23870 ****        30.5000  16.0000  33.5000 Du        
  23871 ****        30.5000  16.0000  33.7500 Du        
  23872 ****        30.5000  16.0000  34.0000 Du        
  23873 ****        30.5000  16.0000  34.2500 Du        
  23874 ****        30.5000  16.2500  31.5000 Du        
  23875 ****        30.5000  16.2500  31.7500 Du        
  23876 ****        30.5000  16.2500  32.0000 Du        
  23877 ****        30.5000  16.2500  32.2500 Du        
  23878 ****        30.5000  16.2500  32.5000 Du        
  23879 ****        30.5000  16.2500  32.7500 Du        
  23880 ****        30.5000  16.2500  33.0000 Du        
  23881 ****        30.5000  16.2500  33.2500 Du        
  23882 ****        30.5000  16.2500  33.5000 Du        
  23883 ****        30.5000  16.2500  33.7500 Du        
  23884 ****        30.5000  16.2500  34.0000 Du        
  23885 ****        30.5000  16.2500  34.2500 Du        
  23886 ****        30.5000  16.5000  31.5000 Du        
  23887 ****        30.5000  16.5000  31.7500 Du        
  23888 ****        30.5000  16.5000  32.0000 Du        
  23889 ****        30.5000  16.5000  32.2500 Du        
  23890 ****        30.5000  16.5000  32.5000 Du        
  23891 ****        30.5000  16.5000  32.7500 Du        
  23892 ****        30.5000  16.5000  33.0000 Du        
  23893 ****        30.5000  16.5000  33.2500 Du        
  23894 ****        30.5000  16.5000  33.5000 Du        
  23895 ****        30.5000  16.5000  33.7500 Du        
  23896 ****        30.5000  16.7500  31.5000 Du        
  23897 ****        30.5000  16.7500  31.7500 Du        
  23898 ****        30.5000  16.7500  32.0000 Du        
  23899 ****        30.5000  16.7500  32.2500 Du        
  23900 ****        30.5000  16.7500  32.5000 Du        
  23901 ****        30.5000  16.7500  32.7500 Du        
  23902 ****        30.5000  16.7500  33.0000 Du        
  23903 ****        30.5000  16.7500  33.2500 Du        
  23904 ****        30.5000  17.0000  31.5000 Du        
  23905 ****        30.5000  17.0000  31.7500 Du        
  23906 ****        30.5000  17.0000  32.0000 Du        
  23907 ****        30.5000  17.0000  32.2500 Du        
  23908 ****        30.5000  17.0000  32.5000 Du        
  23909 ****        30.5000  17.0000  32.7500 Du        
  23910 ****        30.5000  17.2500  31.5000 Du        
  23911 ****        30.5000  17.2500  31.7500 Du        
  23912 ****        30.5000  17.2500  32.0000 Du        
  23913 ****        30.5000  17.2500  32.2500 Du        
  23914 ****        30.5000  17.5000  31.5000 Du        
  23915 ****        30.5000  17.5000  31.7500 Du        
  23916 ****        30.5000  17.5000  32.0000 Du        
  23917 ****        30.5000  17.7500  31.5000 Du        
  23918 ****        30.5000  17.7500  31.7500 Du        
  23919 ****        30.5000  23.0000  27.2500 Du        
  23920 ****        30.5000  23.0000  27.5000 Du        
  23921 ****        30.5000  23.0000  27.7500 Du        
  23922 ****        30.5000  23.0000  28.0000 Du        
  23923 ****        30.5000  23.2500  26.7500 Du        
  23924 ****        30.5000  23.2500  27.0000 Du        
  23925 ****        30.5000  23.2500  27.2500 Du        
  23926 ****        30.5000  23.2500  27.5000 Du        
  23927 ****        30.5000  23.2500  27.7500 Du        
  23928 ****        30.5000  23.2500  28.0000 Du        
  23929 ****        30.5000  23.5000  26.7500 Du        
  23930 ****        30.5000  23.5000  27.0000 Du        
  23931 ****        30.5000  23.5000  27.2500 Du        
  23932 ****        30.5000  23.5000  27.5000 Du        
  23933 ****        30.5000  23.5000  27.7500 Du        
  23934 ****        30.5000  23.7500  27.7500 Du        
  23935 ****        30.7500 -15.7500  42.2500 Du        
  23936 ****        30.7500 -15.7500  42.5000 Du        
  23937 ****        30.7500 -15.5000  42.2500 Du        
  23938 ****        30.7500 -15.5000  42.5000 Du        
  23939 ****        30.7500 -15.2500  41.5000 Du        
  23940 ****        30.7500 -15.2500  41.7500 Du        
  23941 ****        30.7500 -15.2500  42.0000 Du        
  23942 ****        30.7500 -15.2500  42.2500 Du        
  23943 ****        30.7500 -15.2500  42.5000 Du        
  23944 ****        30.7500 -15.0000  41.7500 Du        
  23945 ****        30.7500 -15.0000  42.0000 Du        
  23946 ****        30.7500 -15.0000  42.2500 Du        
  23947 ****        30.7500 -15.0000  42.5000 Du        
  23948 ****        30.7500 -14.7500  42.0000 Du        
  23949 ****        30.7500 -14.7500  42.2500 Du        
  23950 ****        30.7500 -14.7500  42.5000 Du        
  23951 ****        30.7500 -14.5000  42.2500 Du        
  23952 ****        30.7500 -14.5000  42.5000 Du        
  23953 ****        30.7500 -12.2500  44.5000 Du        
  23954 ****        30.7500 -12.0000  44.5000 Du        
  23955 ****        30.7500 -12.0000  44.7500 Du        
  23956 ****        30.7500 -12.0000  45.0000 Du        
  23957 ****        30.7500 -11.7500  44.5000 Du        
  23958 ****        30.7500 -11.7500  44.7500 Du        
  23959 ****        30.7500 -11.7500  45.0000 Du        
  23960 ****        30.7500 -11.7500  45.2500 Du        
  23961 ****        30.7500 -11.5000  44.5000 Du        
  23962 ****        30.7500 -11.5000  44.7500 Du        
  23963 ****        30.7500 -11.5000  45.0000 Du        
  23964 ****        30.7500 -11.5000  45.2500 Du        
  23965 ****        30.7500 -11.2500  44.7500 Du        
  23966 ****        30.7500 -11.2500  45.0000 Du        
  23967 ****        30.7500 -11.2500  45.2500 Du        
  23968 ****        30.7500 -11.0000  45.0000 Du        
  23969 ****        30.7500   2.0000  36.7500 Du        
  23970 ****        30.7500   2.0000  37.0000 Du        
  23971 ****        30.7500   2.2500  36.5000 Du        
  23972 ****        30.7500   2.2500  36.7500 Du        
  23973 ****        30.7500   2.2500  37.0000 Du        
  23974 ****        30.7500   2.2500  37.2500 Du        
  23975 ****        30.7500   2.2500  37.5000 Du        
  23976 ****        30.7500   2.2500  37.7500 Du        
  23977 ****        30.7500   2.2500  38.0000 Du        
  23978 ****        30.7500   2.2500  38.2500 Du        
  23979 ****        30.7500   2.2500  38.5000 Du        
  23980 ****        30.7500   2.2500  38.7500 Du        
  23981 ****        30.7500   2.2500  39.0000 Du        
  23982 ****        30.7500   2.2500  39.2500 Du        
  23983 ****        30.7500   2.5000  36.7500 Du        
  23984 ****        30.7500   2.5000  37.0000 Du        
  23985 ****        30.7500   2.5000  37.2500 Du        
  23986 ****        30.7500   2.5000  37.5000 Du        
  23987 ****        30.7500   2.5000  37.7500 Du        
  23988 ****        30.7500   2.5000  38.0000 Du        
  23989 ****        30.7500   2.5000  38.2500 Du        
  23990 ****        30.7500   2.5000  38.5000 Du        
  23991 ****        30.7500   2.5000  38.7500 Du        
  23992 ****        30.7500   2.5000  39.0000 Du        
  23993 ****        30.7500   2.5000  39.2500 Du        
  23994 ****        30.7500   2.5000  39.5000 Du        
  23995 ****        30.7500   2.7500  36.7500 Du        
  23996 ****        30.7500   2.7500  37.0000 Du        
  23997 ****        30.7500   2.7500  37.2500 Du        
  23998 ****        30.7500   2.7500  37.5000 Du        
  23999 ****        30.7500   2.7500  37.7500 Du        
  24000 ****        30.7500   2.7500  38.0000 Du        
  24001 ****        30.7500   2.7500  38.2500 Du        
  24002 ****        30.7500   2.7500  38.5000 Du        
  24003 ****        30.7500   2.7500  38.7500 Du        
  24004 ****        30.7500   2.7500  39.0000 Du        
  24005 ****        30.7500   2.7500  39.2500 Du        
  24006 ****        30.7500   2.7500  39.5000 Du        
  24007 ****        30.7500   2.7500  39.7500 Du        
  24008 ****        30.7500   3.0000  37.2500 Du        
  24009 ****        30.7500   3.0000  37.5000 Du        
  24010 ****        30.7500   3.0000  37.7500 Du        
  24011 ****        30.7500   3.0000  38.0000 Du        
  24012 ****        30.7500   3.0000  38.2500 Du        
  24013 ****        30.7500   3.0000  38.5000 Du        
  24014 ****        30.7500   3.0000  38.7500 Du        
  24015 ****        30.7500   3.0000  39.0000 Du        
  24016 ****        30.7500   3.0000  39.2500 Du        
  24017 ****        30.7500   3.0000  39.5000 Du        
  24018 ****        30.7500   3.0000  39.7500 Du        
  24019 ****        30.7500   3.2500  37.7500 Du        
  24020 ****        30.7500   3.2500  38.0000 Du        
  24021 ****        30.7500   3.2500  38.2500 Du        
  24022 ****        30.7500   3.2500  38.5000 Du        
  24023 ****        30.7500   3.2500  38.7500 Du        
  24024 ****        30.7500   3.2500  39.0000 Du        
  24025 ****        30.7500   3.2500  39.2500 Du        
  24026 ****        30.7500   3.2500  39.5000 Du        
  24027 ****        30.7500   3.2500  39.7500 Du        
  24028 ****        30.7500   3.5000  38.5000 Du        
  24029 ****        30.7500   3.5000  38.7500 Du        
  24030 ****        30.7500   3.5000  39.0000 Du        
  24031 ****        30.7500   3.5000  39.2500 Du        
  24032 ****        30.7500   3.7500  39.0000 Du        
  24033 ****        30.7500   5.7500  43.0000 Du        
  24034 ****        30.7500   6.0000  42.7500 Du        
  24035 ****        30.7500   6.0000  43.0000 Du        
  24036 ****        30.7500   6.2500  42.5000 Du        
  24037 ****        30.7500   6.2500  42.7500 Du        
  24038 ****        30.7500   6.2500  43.0000 Du        
  24039 ****        30.7500   6.5000  42.7500 Du        
  24040 ****        30.7500   6.5000  43.0000 Du        
  24041 ****        30.7500   6.7500  42.7500 Du        
  24042 ****        30.7500   6.7500  43.0000 Du        
  24043 ****        30.7500   7.0000  42.7500 Du        
  24044 ****        30.7500   7.0000  43.0000 Du        
  24045 ****        30.7500   7.2500  42.5000 Du        
  24046 ****        30.7500   7.2500  42.7500 Du        
  24047 ****        30.7500   7.2500  43.0000 Du        
  24048 ****        30.7500   7.2500  43.2500 Du        
  24049 ****        30.7500   7.7500  42.7500 Du        
  24050 ****        30.7500   7.7500  43.0000 Du        
  24051 ****        30.7500   8.0000  43.0000 Du        
  24052 ****        30.7500   9.0000  23.7500 Du        
  24053 ****        30.7500   9.0000  24.0000 Du        
  24054 ****        30.7500   9.0000  24.2500 Du        
  24055 ****        30.7500   9.2500  24.2500 Du        
  24056 ****        30.7500  13.0000  42.5000 Du        
  24057 ****        30.7500  13.0000  42.7500 Du        
  24058 ****        30.7500  13.2500  42.5000 Du        
  24059 ****        30.7500  13.2500  42.7500 Du        
  24060 ****        30.7500  13.2500  43.0000 Du        
  24061 ****        30.7500  13.5000  42.5000 Du        
  24062 ****        30.7500  13.5000  42.7500 Du        
  24063 ****        30.7500  13.5000  43.0000 Du        
  24064 ****        30.7500  13.5000  43.2500 Du        
  24065 ****        30.7500  13.5000  43.5000 Du        
  24066 ****        30.7500  13.7500  42.2500 Du        
  24067 ****        30.7500  13.7500  42.5000 Du        
  24068 ****        30.7500  13.7500  42.7500 Du        
  24069 ****        30.7500  13.7500  43.0000 Du        
  24070 ****        30.7500  13.7500  43.2500 Du        
  24071 ****        30.7500  13.7500  43.5000 Du        
  24072 ****        30.7500  13.7500  43.7500 Du        
  24073 ****        30.7500  13.7500  44.0000 Du        
  24074 ****        30.7500  14.0000  33.0000 Du        
  24075 ****        30.7500  14.0000  33.2500 Du        
  24076 ****        30.7500  14.0000  42.2500 Du        
  24077 ****        30.7500  14.0000  42.5000 Du        
  24078 ****        30.7500  14.0000  42.7500 Du        
  24079 ****        30.7500  14.0000  43.0000 Du        
  24080 ****        30.7500  14.0000  43.2500 Du        
  24081 ****        30.7500  14.0000  43.5000 Du        
  24082 ****        30.7500  14.0000  43.7500 Du        
  24083 ****        30.7500  14.0000  44.0000 Du        
  24084 ****        30.7500  14.2500  32.7500 Du        
  24085 ****        30.7500  14.2500  33.0000 Du        
  24086 ****        30.7500  14.2500  33.2500 Du        
  24087 ****        30.7500  14.2500  33.5000 Du        
  24088 ****        30.7500  14.2500  33.7500 Du        
  24089 ****        30.7500  14.2500  42.5000 Du        
  24090 ****        30.7500  14.2500  42.7500 Du        
  24091 ****        30.7500  14.2500  43.0000 Du        
  24092 ****        30.7500  14.2500  43.2500 Du        
  24093 ****        30.7500  14.2500  43.5000 Du        
  24094 ****        30.7500  14.2500  43.7500 Du        
  24095 ****        30.7500  14.2500  44.0000 Du        
  24096 ****        30.7500  14.2500  44.2500 Du        
  24097 ****        30.7500  14.5000  31.7500 Du        
  24098 ****        30.7500  14.5000  32.0000 Du        
  24099 ****        30.7500  14.5000  32.2500 Du        
  24100 ****        30.7500  14.5000  32.5000 Du        
  24101 ****        30.7500  14.5000  32.7500 Du        
  24102 ****        30.7500  14.5000  33.0000 Du        
  24103 ****        30.7500  14.5000  33.2500 Du        
  24104 ****        30.7500  14.5000  33.5000 Du        
  24105 ****        30.7500  14.5000  33.7500 Du        
  24106 ****        30.7500  14.5000  42.7500 Du        
  24107 ****        30.7500  14.5000  43.0000 Du        
  24108 ****        30.7500  14.5000  43.2500 Du        
  24109 ****        30.7500  14.5000  43.5000 Du        
  24110 ****        30.7500  14.5000  43.7500 Du        
  24111 ****        30.7500  14.5000  44.0000 Du        
  24112 ****        30.7500  14.5000  44.2500 Du        
  24113 ****        30.7500  14.7500  31.0000 Du        
  24114 ****        30.7500  14.7500  31.2500 Du        
  24115 ****        30.7500  14.7500  31.5000 Du        
  24116 ****        30.7500  14.7500  31.7500 Du        
  24117 ****        30.7500  14.7500  32.0000 Du        
  24118 ****        30.7500  14.7500  32.2500 Du        
  24119 ****        30.7500  14.7500  32.5000 Du        
  24120 ****        30.7500  14.7500  32.7500 Du        
  24121 ****        30.7500  14.7500  33.0000 Du        
  24122 ****        30.7500  14.7500  33.2500 Du        
  24123 ****        30.7500  14.7500  33.5000 Du        
  24124 ****        30.7500  14.7500  33.7500 Du        
  24125 ****        30.7500  14.7500  43.0000 Du        
  24126 ****        30.7500  14.7500  43.2500 Du        
  24127 ****        30.7500  14.7500  43.5000 Du        
  24128 ****        30.7500  14.7500  43.7500 Du        
  24129 ****        30.7500  14.7500  44.0000 Du        
  24130 ****        30.7500  14.7500  44.2500 Du        
  24131 ****        30.7500  15.0000  31.0000 Du        
  24132 ****        30.7500  15.0000  31.2500 Du        
  24133 ****        30.7500  15.0000  31.5000 Du        
  24134 ****        30.7500  15.0000  31.7500 Du        
  24135 ****        30.7500  15.0000  32.0000 Du        
  24136 ****        30.7500  15.0000  32.2500 Du        
  24137 ****        30.7500  15.0000  32.5000 Du        
  24138 ****        30.7500  15.0000  32.7500 Du        
  24139 ****        30.7500  15.0000  33.0000 Du        
  24140 ****        30.7500  15.0000  33.2500 Du        
  24141 ****        30.7500  15.0000  33.5000 Du        
  24142 ****        30.7500  15.0000  33.7500 Du        
  24143 ****        30.7500  15.0000  43.2500 Du        
  24144 ****        30.7500  15.0000  43.5000 Du        
  24145 ****        30.7500  15.0000  43.7500 Du        
  24146 ****        30.7500  15.0000  44.0000 Du        
  24147 ****        30.7500  15.0000  44.2500 Du        
  24148 ****        30.7500  15.2500  31.0000 Du        
  24149 ****        30.7500  15.2500  31.2500 Du        
  24150 ****        30.7500  15.2500  31.5000 Du        
  24151 ****        30.7500  15.2500  31.7500 Du        
  24152 ****        30.7500  15.2500  32.0000 Du        
  24153 ****        30.7500  15.2500  32.2500 Du        
  24154 ****        30.7500  15.2500  32.5000 Du        
  24155 ****        30.7500  15.2500  32.7500 Du        
  24156 ****        30.7500  15.2500  33.0000 Du        
  24157 ****        30.7500  15.2500  33.2500 Du        
  24158 ****        30.7500  15.2500  33.5000 Du        
  24159 ****        30.7500  15.2500  33.7500 Du        
  24160 ****        30.7500  15.5000  31.2500 Du        
  24161 ****        30.7500  15.5000  31.5000 Du        
  24162 ****        30.7500  15.5000  31.7500 Du        
  24163 ****        30.7500  15.5000  32.0000 Du        
  24164 ****        30.7500  15.5000  32.2500 Du        
  24165 ****        30.7500  15.5000  32.5000 Du        
  24166 ****        30.7500  15.5000  32.7500 Du        
  24167 ****        30.7500  15.5000  33.0000 Du        
  24168 ****        30.7500  15.5000  33.2500 Du        
  24169 ****        30.7500  15.5000  33.5000 Du        
  24170 ****        30.7500  15.5000  33.7500 Du        
  24171 ****        30.7500  15.5000  34.0000 Du        
  24172 ****        30.7500  15.7500  31.2500 Du        
  24173 ****        30.7500  15.7500  31.5000 Du        
  24174 ****        30.7500  15.7500  31.7500 Du        
  24175 ****        30.7500  15.7500  32.0000 Du        
  24176 ****        30.7500  15.7500  32.2500 Du        
  24177 ****        30.7500  15.7500  32.5000 Du        
  24178 ****        30.7500  15.7500  32.7500 Du        
  24179 ****        30.7500  15.7500  33.0000 Du        
  24180 ****        30.7500  15.7500  33.2500 Du        
  24181 ****        30.7500  15.7500  33.5000 Du        
  24182 ****        30.7500  15.7500  33.7500 Du        
  24183 ****        30.7500  15.7500  34.0000 Du        
  24184 ****        30.7500  16.0000  31.2500 Du        
  24185 ****        30.7500  16.0000  31.5000 Du        
  24186 ****        30.7500  16.0000  31.7500 Du        
  24187 ****        30.7500  16.0000  32.0000 Du        
  24188 ****        30.7500  16.0000  32.2500 Du        
  24189 ****        30.7500  16.0000  32.5000 Du        
  24190 ****        30.7500  16.0000  32.7500 Du        
  24191 ****        30.7500  16.0000  33.0000 Du        
  24192 ****        30.7500  16.0000  33.2500 Du        
  24193 ****        30.7500  16.0000  33.5000 Du        
  24194 ****        30.7500  16.0000  33.7500 Du        
  24195 ****        30.7500  16.0000  34.0000 Du        
  24196 ****        30.7500  16.2500  31.5000 Du        
  24197 ****        30.7500  16.2500  31.7500 Du        
  24198 ****        30.7500  16.2500  32.0000 Du        
  24199 ****        30.7500  16.2500  32.2500 Du        
  24200 ****        30.7500  16.2500  32.5000 Du        
  24201 ****        30.7500  16.2500  32.7500 Du        
  24202 ****        30.7500  16.2500  33.0000 Du        
  24203 ****        30.7500  16.2500  33.2500 Du        
  24204 ****        30.7500  16.2500  33.5000 Du        
  24205 ****        30.7500  16.2500  33.7500 Du        
  24206 ****        30.7500  16.5000  31.5000 Du        
  24207 ****        30.7500  16.5000  31.7500 Du        
  24208 ****        30.7500  16.5000  32.0000 Du        
  24209 ****        30.7500  16.5000  32.2500 Du        
  24210 ****        30.7500  16.5000  32.5000 Du        
  24211 ****        30.7500  16.5000  32.7500 Du        
  24212 ****        30.7500  16.5000  33.0000 Du        
  24213 ****        30.7500  16.5000  33.2500 Du        
  24214 ****        30.7500  16.7500  31.5000 Du        
  24215 ****        30.7500  16.7500  31.7500 Du        
  24216 ****        30.7500  16.7500  32.0000 Du        
  24217 ****        30.7500  16.7500  32.2500 Du        
  24218 ****        30.7500  16.7500  32.5000 Du        
  24219 ****        30.7500  16.7500  32.7500 Du        
  24220 ****        30.7500  16.7500  33.0000 Du        
  24221 ****        30.7500  17.0000  31.5000 Du        
  24222 ****        30.7500  17.0000  31.7500 Du        
  24223 ****        30.7500  17.0000  32.0000 Du        
  24224 ****        30.7500  17.0000  32.2500 Du        
  24225 ****        30.7500  17.0000  32.5000 Du        
  24226 ****        30.7500  17.2500  31.5000 Du        
  24227 ****        30.7500  17.2500  31.7500 Du        
  24228 ****        30.7500  17.2500  32.0000 Du        
  24229 ****        30.7500  17.2500  32.2500 Du        
  24230 ****        30.7500  17.5000  31.5000 Du        
  24231 ****        30.7500  17.5000  31.7500 Du        
  24232 ****        30.7500  17.5000  32.0000 Du        
  24233 ****        30.7500  17.7500  31.2500 Du        
  24234 ****        30.7500  17.7500  31.5000 Du        
  24235 ****        30.7500  17.7500  31.7500 Du        
  24236 ****        30.7500  18.0000  31.2500 Du        
  24237 ****        30.7500  18.0000  31.5000 Du        
  24238 ****        30.7500  18.2500  31.2500 Du        
  24239 ****        30.7500  23.2500  27.2500 Du        
  24240 ****        30.7500  23.2500  27.5000 Du        
  24241 ****        30.7500  23.2500  27.7500 Du        
  24242 ****        30.7500  23.2500  28.0000 Du        
  24243 ****        30.7500  23.5000  26.7500 Du        
  24244 ****        30.7500  23.5000  27.0000 Du        
  24245 ****        30.7500  23.5000  27.2500 Du        
  24246 ****        30.7500  23.5000  27.5000 Du        
  24247 ****        30.7500  23.5000  27.7500 Du        
  24248 ****        31.0000 -15.7500  42.2500 Du        
  24249 ****        31.0000 -15.7500  42.5000 Du        
  24250 ****        31.0000 -15.5000  42.2500 Du        
  24251 ****        31.0000 -15.5000  42.5000 Du        
  24252 ****        31.0000 -15.2500  41.5000 Du        
  24253 ****        31.0000 -15.2500  41.7500 Du        
  24254 ****        31.0000 -15.2500  42.0000 Du        
  24255 ****        31.0000 -15.2500  42.2500 Du        
  24256 ****        31.0000 -15.2500  42.5000 Du        
  24257 ****        31.0000 -15.0000  41.7500 Du        
  24258 ****        31.0000 -15.0000  42.0000 Du        
  24259 ****        31.0000 -15.0000  42.2500 Du        
  24260 ****        31.0000 -15.0000  42.5000 Du        
  24261 ****        31.0000 -14.7500  42.0000 Du        
  24262 ****        31.0000 -14.7500  42.2500 Du        
  24263 ****        31.0000 -14.7500  42.5000 Du        
  24264 ****        31.0000 -14.5000  42.0000 Du        
  24265 ****        31.0000 -14.5000  42.2500 Du        
  24266 ****        31.0000 -14.5000  42.5000 Du        
  24267 ****        31.0000 -14.2500  42.2500 Du        
  24268 ****        31.0000 -14.2500  42.5000 Du        
  24269 ****        31.0000 -12.5000  44.0000 Du        
  24270 ****        31.0000 -12.5000  44.2500 Du        
  24271 ****        31.0000 -12.2500  44.0000 Du        
  24272 ****        31.0000 -12.2500  44.2500 Du        
  24273 ****        31.0000 -12.2500  44.5000 Du        
  24274 ****        31.0000 -12.2500  44.7500 Du        
  24275 ****        31.0000 -12.2500  45.0000 Du        
  24276 ****        31.0000 -12.0000  44.0000 Du        
  24277 ****        31.0000 -12.0000  44.2500 Du        
  24278 ****        31.0000 -12.0000  44.5000 Du        
  24279 ****        31.0000 -12.0000  44.7500 Du        
  24280 ****        31.0000 -12.0000  45.0000 Du        
  24281 ****        31.0000 -12.0000  45.2500 Du        
  24282 ****        31.0000 -11.7500  44.2500 Du        
  24283 ****        31.0000 -11.7500  44.5000 Du        
  24284 ****        31.0000 -11.7500  44.7500 Du        
  24285 ****        31.0000 -11.7500  45.0000 Du        
  24286 ****        31.0000 -11.7500  45.2500 Du        
  24287 ****        31.0000 -11.7500  45.5000 Du        
  24288 ****        31.0000 -11.5000  44.2500 Du        
  24289 ****        31.0000 -11.5000  44.5000 Du        
  24290 ****        31.0000 -11.5000  44.7500 Du        
  24291 ****        31.0000 -11.5000  45.0000 Du        
  24292 ****        31.0000 -11.5000  45.2500 Du        
  24293 ****        31.0000 -11.5000  45.5000 Du        
  24294 ****        31.0000 -11.5000  45.7500 Du        
  24295 ****        31.0000 -11.2500  44.5000 Du        
  24296 ****        31.0000 -11.2500  44.7500 Du        
  24297 ****        31.0000 -11.2500  45.0000 Du        
  24298 ****        31.0000 -11.2500  45.2500 Du        
  24299 ****        31.0000 -11.2500  45.5000 Du        
  24300 ****        31.0000 -11.2500  45.7500 Du        
  24301 ****        31.0000 -11.0000  44.5000 Du        
  24302 ****        31.0000 -11.0000  44.7500 Du        
  24303 ****        31.0000 -11.0000  45.0000 Du        
  24304 ****        31.0000 -11.0000  45.2500 Du        
  24305 ****        31.0000 -10.7500  44.7500 Du        
  24306 ****        31.0000 -10.7500  45.0000 Du        
  24307 ****        31.0000   2.0000  36.5000 Du        
  24308 ****        31.0000   2.0000  36.7500 Du        
  24309 ****        31.0000   2.0000  37.0000 Du        
  24310 ****        31.0000   2.0000  37.2500 Du        
  24311 ****        31.0000   2.0000  37.5000 Du        
  24312 ****        31.0000   2.0000  37.7500 Du        
  24313 ****        31.0000   2.2500  36.5000 Du        
  24314 ****        31.0000   2.2500  36.7500 Du        
  24315 ****        31.0000   2.2500  37.0000 Du        
  24316 ****        31.0000   2.2500  37.2500 Du        
  24317 ****        31.0000   2.2500  37.5000 Du        
  24318 ****        31.0000   2.2500  37.7500 Du        
  24319 ****        31.0000   2.2500  38.0000 Du        
  24320 ****        31.0000   2.2500  38.2500 Du        
  24321 ****        31.0000   2.2500  38.5000 Du        
  24322 ****        31.0000   2.2500  38.7500 Du        
  24323 ****        31.0000   2.2500  39.0000 Du        
  24324 ****        31.0000   2.2500  39.2500 Du        
  24325 ****        31.0000   2.2500  39.5000 Du        
  24326 ****        31.0000   2.5000  36.7500 Du        
  24327 ****        31.0000   2.5000  37.0000 Du        
  24328 ****        31.0000   2.5000  37.2500 Du        
  24329 ****        31.0000   2.5000  37.5000 Du        
  24330 ****        31.0000   2.5000  37.7500 Du        
  24331 ****        31.0000   2.5000  38.0000 Du        
  24332 ****        31.0000   2.5000  38.2500 Du        
  24333 ****        31.0000   2.5000  38.5000 Du        
  24334 ****        31.0000   2.5000  38.7500 Du        
  24335 ****        31.0000   2.5000  39.0000 Du        
  24336 ****        31.0000   2.5000  39.2500 Du        
  24337 ****        31.0000   2.5000  39.5000 Du        
  24338 ****        31.0000   2.5000  39.7500 Du        
  24339 ****        31.0000   2.7500  37.0000 Du        
  24340 ****        31.0000   2.7500  37.2500 Du        
  24341 ****        31.0000   2.7500  37.5000 Du        
  24342 ****        31.0000   2.7500  37.7500 Du        
  24343 ****        31.0000   2.7500  38.0000 Du        
  24344 ****        31.0000   2.7500  38.2500 Du        
  24345 ****        31.0000   2.7500  38.5000 Du        
  24346 ****        31.0000   2.7500  38.7500 Du        
  24347 ****        31.0000   2.7500  39.0000 Du        
  24348 ****        31.0000   2.7500  39.2500 Du        
  24349 ****        31.0000   2.7500  39.5000 Du        
  24350 ****        31.0000   2.7500  39.7500 Du        
  24351 ****        31.0000   2.7500  40.0000 Du        
  24352 ****        31.0000   3.0000  37.2500 Du        
  24353 ****        31.0000   3.0000  37.5000 Du        
  24354 ****        31.0000   3.0000  37.7500 Du        
  24355 ****        31.0000   3.0000  38.0000 Du        
  24356 ****        31.0000   3.0000  38.2500 Du        
  24357 ****        31.0000   3.0000  38.5000 Du        
  24358 ****        31.0000   3.0000  38.7500 Du        
  24359 ****        31.0000   3.0000  39.0000 Du        
  24360 ****        31.0000   3.0000  39.2500 Du        
  24361 ****        31.0000   3.0000  39.5000 Du        
  24362 ****        31.0000   3.0000  39.7500 Du        
  24363 ****        31.0000   3.0000  40.0000 Du        
  24364 ****        31.0000   3.2500  38.0000 Du        
  24365 ****        31.0000   3.2500  38.2500 Du        
  24366 ****        31.0000   3.2500  38.5000 Du        
  24367 ****        31.0000   3.2500  38.7500 Du        
  24368 ****        31.0000   3.2500  39.0000 Du        
  24369 ****        31.0000   3.2500  39.2500 Du        
  24370 ****        31.0000   3.2500  39.5000 Du        
  24371 ****        31.0000   3.2500  39.7500 Du        
  24372 ****        31.0000   3.2500  40.0000 Du        
  24373 ****        31.0000   3.5000  38.7500 Du        
  24374 ****        31.0000   3.5000  39.0000 Du        
  24375 ****        31.0000   3.5000  39.2500 Du        
  24376 ****        31.0000   3.5000  39.5000 Du        
  24377 ****        31.0000   3.7500  39.0000 Du        
  24378 ****        31.0000   3.7500  39.2500 Du        
  24379 ****        31.0000   3.7500  44.0000 Du        
  24380 ****        31.0000   3.7500  44.2500 Du        
  24381 ****        31.0000   3.7500  44.5000 Du        
  24382 ****        31.0000   3.7500  44.7500 Du        
  24383 ****        31.0000   4.0000  43.7500 Du        
  24384 ****        31.0000   4.0000  44.0000 Du        
  24385 ****        31.0000   4.0000  44.2500 Du        
  24386 ****        31.0000   4.0000  44.5000 Du        
  24387 ****        31.0000   4.2500  43.7500 Du        
  24388 ****        31.0000   4.2500  44.0000 Du        
  24389 ****        31.0000   4.2500  44.2500 Du        
  24390 ****        31.0000   4.5000  43.5000 Du        
  24391 ****        31.0000   4.5000  43.7500 Du        
  24392 ****        31.0000   4.5000  44.0000 Du        
  24393 ****        31.0000   4.7500  43.5000 Du        
  24394 ****        31.0000   4.7500  43.7500 Du        
  24395 ****        31.0000   5.0000  43.2500 Du        
  24396 ****        31.0000   5.0000  43.5000 Du        
  24397 ****        31.0000   5.2500  43.0000 Du        
  24398 ****        31.0000   5.2500  43.2500 Du        
  24399 ****        31.0000   5.2500  43.5000 Du        
  24400 ****        31.0000   5.5000  43.0000 Du        
  24401 ****        31.0000   5.5000  43.2500 Du        
  24402 ****        31.0000   5.7500  42.7500 Du        
  24403 ****        31.0000   5.7500  43.0000 Du        
  24404 ****        31.0000   5.7500  43.2500 Du        
  24405 ****        31.0000   6.0000  42.5000 Du        
  24406 ****        31.0000   6.0000  42.7500 Du        
  24407 ****        31.0000   6.0000  43.0000 Du        
  24408 ****        31.0000   6.0000  43.2500 Du        
  24409 ****        31.0000   6.2500  42.5000 Du        
  24410 ****        31.0000   6.2500  42.7500 Du        
  24411 ****        31.0000   6.2500  43.0000 Du        
  24412 ****        31.0000   6.5000  42.7500 Du        
  24413 ****        31.0000   6.5000  43.0000 Du        
  24414 ****        31.0000   6.7500  42.7500 Du        
  24415 ****        31.0000   6.7500  43.0000 Du        
  24416 ****        31.0000   7.0000  42.7500 Du        
  24417 ****        31.0000   7.0000  43.0000 Du        
  24418 ****        31.0000   7.0000  43.2500 Du        
  24419 ****        31.0000   7.2500  42.7500 Du        
  24420 ****        31.0000   7.2500  43.0000 Du        
  24421 ****        31.0000   7.2500  43.2500 Du        
  24422 ****        31.0000   7.7500  43.0000 Du        
  24423 ****        31.0000   8.0000  43.2500 Du        
  24424 ****        31.0000   9.2500  24.0000 Du        
  24425 ****        31.0000   9.2500  24.2500 Du        
  24426 ****        31.0000   9.5000  24.0000 Du        
  24427 ****        31.0000   9.5000  24.2500 Du        
  24428 ****        31.0000   9.5000  24.5000 Du        
  24429 ****        31.0000  13.2500  42.7500 Du        
  24430 ****        31.0000  13.5000  42.5000 Du        
  24431 ****        31.0000  13.5000  42.7500 Du        
  24432 ****        31.0000  13.5000  43.0000 Du        
  24433 ****        31.0000  13.7500  42.5000 Du        
  24434 ****        31.0000  13.7500  42.7500 Du        
  24435 ****        31.0000  13.7500  43.0000 Du        
  24436 ****        31.0000  13.7500  43.2500 Du        
  24437 ****        31.0000  13.7500  43.5000 Du        
  24438 ****        31.0000  14.0000  42.5000 Du        
  24439 ****        31.0000  14.0000  42.7500 Du        
  24440 ****        31.0000  14.0000  43.0000 Du        
  24441 ****        31.0000  14.0000  43.2500 Du        
  24442 ****        31.0000  14.0000  43.5000 Du        
  24443 ****        31.0000  14.0000  43.7500 Du        
  24444 ****        31.0000  14.2500  33.0000 Du        
  24445 ****        31.0000  14.2500  33.2500 Du        
  24446 ****        31.0000  14.2500  42.5000 Du        
  24447 ****        31.0000  14.2500  42.7500 Du        
  24448 ****        31.0000  14.2500  43.0000 Du        
  24449 ****        31.0000  14.2500  43.2500 Du        
  24450 ****        31.0000  14.2500  43.5000 Du        
  24451 ****        31.0000  14.2500  43.7500 Du        
  24452 ****        31.0000  14.2500  44.0000 Du        
  24453 ****        31.0000  14.2500  44.2500 Du        
  24454 ****        31.0000  14.5000  32.0000 Du        
  24455 ****        31.0000  14.5000  32.2500 Du        
  24456 ****        31.0000  14.5000  32.5000 Du        
  24457 ****        31.0000  14.5000  32.7500 Du        
  24458 ****        31.0000  14.5000  33.0000 Du        
  24459 ****        31.0000  14.5000  33.2500 Du        
  24460 ****        31.0000  14.5000  33.5000 Du        
  24461 ****        31.0000  14.5000  42.5000 Du        
  24462 ****        31.0000  14.5000  42.7500 Du        
  24463 ****        31.0000  14.5000  43.0000 Du        
  24464 ****        31.0000  14.5000  43.2500 Du        
  24465 ****        31.0000  14.5000  43.5000 Du        
  24466 ****        31.0000  14.5000  43.7500 Du        
  24467 ****        31.0000  14.5000  44.0000 Du        
  24468 ****        31.0000  14.5000  44.2500 Du        
  24469 ****        31.0000  14.7500  31.2500 Du        
  24470 ****        31.0000  14.7500  31.5000 Du        
  24471 ****        31.0000  14.7500  31.7500 Du        
  24472 ****        31.0000  14.7500  32.0000 Du        
  24473 ****        31.0000  14.7500  32.2500 Du        
  24474 ****        31.0000  14.7500  32.5000 Du        
  24475 ****        31.0000  14.7500  32.7500 Du        
  24476 ****        31.0000  14.7500  33.0000 Du        
  24477 ****        31.0000  14.7500  33.2500 Du        
  24478 ****        31.0000  14.7500  33.5000 Du        
  24479 ****        31.0000  14.7500  33.7500 Du        
  24480 ****        31.0000  14.7500  42.7500 Du        
  24481 ****        31.0000  14.7500  43.0000 Du        
  24482 ****        31.0000  14.7500  43.2500 Du        
  24483 ****        31.0000  14.7500  43.5000 Du        
  24484 ****        31.0000  14.7500  43.7500 Du        
  24485 ****        31.0000  14.7500  44.0000 Du        
  24486 ****        31.0000  14.7500  44.2500 Du        
  24487 ****        31.0000  14.7500  44.5000 Du        
  24488 ****        31.0000  15.0000  31.0000 Du        
  24489 ****        31.0000  15.0000  31.2500 Du        
  24490 ****        31.0000  15.0000  31.5000 Du        
  24491 ****        31.0000  15.0000  31.7500 Du        
  24492 ****        31.0000  15.0000  32.0000 Du        
  24493 ****        31.0000  15.0000  32.2500 Du        
  24494 ****        31.0000  15.0000  32.5000 Du        
  24495 ****        31.0000  15.0000  32.7500 Du        
  24496 ****        31.0000  15.0000  33.0000 Du        
  24497 ****        31.0000  15.0000  33.2500 Du        
  24498 ****        31.0000  15.0000  33.5000 Du        
  24499 ****        31.0000  15.0000  33.7500 Du        
  24500 ****        31.0000  15.0000  43.2500 Du        
  24501 ****        31.0000  15.0000  43.5000 Du        
  24502 ****        31.0000  15.0000  43.7500 Du        
  24503 ****        31.0000  15.0000  44.0000 Du        
  24504 ****        31.0000  15.0000  44.2500 Du        
  24505 ****        31.0000  15.2500  31.2500 Du        
  24506 ****        31.0000  15.2500  31.5000 Du        
  24507 ****        31.0000  15.2500  31.7500 Du        
  24508 ****        31.0000  15.2500  32.0000 Du        
  24509 ****        31.0000  15.2500  32.2500 Du        
  24510 ****        31.0000  15.2500  32.5000 Du        
  24511 ****        31.0000  15.2500  32.7500 Du        
  24512 ****        31.0000  15.2500  33.0000 Du        
  24513 ****        31.0000  15.2500  33.2500 Du        
  24514 ****        31.0000  15.2500  33.5000 Du        
  24515 ****        31.0000  15.2500  33.7500 Du        
  24516 ****        31.0000  15.5000  31.2500 Du        
  24517 ****        31.0000  15.5000  31.5000 Du        
  24518 ****        31.0000  15.5000  31.7500 Du        
  24519 ****        31.0000  15.5000  32.0000 Du        
  24520 ****        31.0000  15.5000  32.2500 Du        
  24521 ****        31.0000  15.5000  32.5000 Du        
  24522 ****        31.0000  15.5000  32.7500 Du        
  24523 ****        31.0000  15.5000  33.0000 Du        
  24524 ****        31.0000  15.5000  33.2500 Du        
  24525 ****        31.0000  15.5000  33.5000 Du        
  24526 ****        31.0000  15.5000  33.7500 Du        
  24527 ****        31.0000  15.7500  31.2500 Du        
  24528 ****        31.0000  15.7500  31.5000 Du        
  24529 ****        31.0000  15.7500  31.7500 Du        
  24530 ****        31.0000  15.7500  32.0000 Du        
  24531 ****        31.0000  15.7500  32.2500 Du        
  24532 ****        31.0000  15.7500  32.5000 Du        
  24533 ****        31.0000  15.7500  32.7500 Du        
  24534 ****        31.0000  15.7500  33.0000 Du        
  24535 ****        31.0000  15.7500  33.2500 Du        
  24536 ****        31.0000  15.7500  33.5000 Du        
  24537 ****        31.0000  15.7500  33.7500 Du        
  24538 ****        31.0000  16.0000  31.5000 Du        
  24539 ****        31.0000  16.0000  31.7500 Du        
  24540 ****        31.0000  16.0000  32.0000 Du        
  24541 ****        31.0000  16.0000  32.2500 Du        
  24542 ****        31.0000  16.0000  32.5000 Du        
  24543 ****        31.0000  16.0000  32.7500 Du        
  24544 ****        31.0000  16.0000  33.0000 Du        
  24545 ****        31.0000  16.0000  33.2500 Du        
  24546 ****        31.0000  16.0000  33.5000 Du        
  24547 ****        31.0000  16.0000  33.7500 Du        
  24548 ****        31.0000  16.2500  31.5000 Du        
  24549 ****        31.0000  16.2500  31.7500 Du        
  24550 ****        31.0000  16.2500  32.0000 Du        
  24551 ****        31.0000  16.2500  32.2500 Du        
  24552 ****        31.0000  16.2500  32.5000 Du        
  24553 ****        31.0000  16.2500  32.7500 Du        
  24554 ****        31.0000  16.2500  33.0000 Du        
  24555 ****        31.0000  16.2500  33.2500 Du        
  24556 ****        31.0000  16.2500  33.5000 Du        
  24557 ****        31.0000  16.5000  31.5000 Du        
  24558 ****        31.0000  16.5000  31.7500 Du        
  24559 ****        31.0000  16.5000  32.0000 Du        
  24560 ****        31.0000  16.5000  32.2500 Du        
  24561 ****        31.0000  16.5000  32.5000 Du        
  24562 ****        31.0000  16.5000  32.7500 Du        
  24563 ****        31.0000  16.5000  33.0000 Du        
  24564 ****        31.0000  16.7500  31.5000 Du        
  24565 ****        31.0000  16.7500  31.7500 Du        
  24566 ****        31.0000  16.7500  32.0000 Du        
  24567 ****        31.0000  16.7500  32.2500 Du        
  24568 ****        31.0000  16.7500  32.5000 Du        
  24569 ****        31.0000  16.7500  32.7500 Du        
  24570 ****        31.0000  17.0000  31.5000 Du        
  24571 ****        31.0000  17.0000  31.7500 Du        
  24572 ****        31.0000  17.0000  32.0000 Du        
  24573 ****        31.0000  17.0000  32.2500 Du        
  24574 ****        31.0000  17.2500  31.5000 Du        
  24575 ****        31.0000  17.2500  31.7500 Du        
  24576 ****        31.0000  17.2500  32.0000 Du        
  24577 ****        31.0000  17.5000  31.5000 Du        
  24578 ****        31.0000  17.5000  31.7500 Du        
  24579 ****        31.0000  17.7500  31.2500 Du        
  24580 ****        31.0000  17.7500  31.5000 Du        
  24581 ****        31.0000  17.7500  31.7500 Du        
  24582 ****        31.0000  18.0000  31.2500 Du        
  24583 ****        31.0000  18.0000  31.5000 Du        
  24584 ****        31.0000  18.2500  31.2500 Du        
  24585 ****        31.0000  18.7500  31.0000 Du        
  24586 ****        31.0000  19.0000  31.0000 Du        
  24587 ****        31.0000  19.2500  31.0000 Du        
  24588 ****        31.2500 -15.7500  42.2500 Du        
  24589 ****        31.2500 -15.7500  42.5000 Du        
  24590 ****        31.2500 -15.5000  42.2500 Du        
  24591 ****        31.2500 -15.5000  42.5000 Du        
  24592 ****        31.2500 -15.2500  41.5000 Du        
  24593 ****        31.2500 -15.2500  41.7500 Du        
  24594 ****        31.2500 -15.2500  42.0000 Du        
  24595 ****        31.2500 -15.2500  42.2500 Du        
  24596 ****        31.2500 -15.2500  42.5000 Du        
  24597 ****        31.2500 -15.0000  41.7500 Du        
  24598 ****        31.2500 -15.0000  42.0000 Du        
  24599 ****        31.2500 -15.0000  42.2500 Du        
  24600 ****        31.2500 -15.0000  42.5000 Du        
  24601 ****        31.2500 -14.7500  42.0000 Du        
  24602 ****        31.2500 -14.7500  42.2500 Du        
  24603 ****        31.2500 -14.7500  42.5000 Du        
  24604 ****        31.2500 -14.5000  42.2500 Du        
  24605 ****        31.2500 -14.5000  42.5000 Du        
  24606 ****        31.2500 -14.5000  42.7500 Du        
  24607 ****        31.2500 -14.2500  42.2500 Du        
  24608 ****        31.2500 -14.2500  42.5000 Du        
  24609 ****        31.2500 -14.2500  42.7500 Du        
  24610 ****        31.2500 -14.0000  42.5000 Du        
  24611 ****        31.2500 -14.0000  42.7500 Du        
  24612 ****        31.2500 -13.7500  42.7500 Du        
  24613 ****        31.2500 -13.5000  42.7500 Du        
  24614 ****        31.2500 -13.5000  43.0000 Du        
  24615 ****        31.2500 -13.2500  43.0000 Du        
  24616 ****        31.2500 -13.2500  43.2500 Du        
  24617 ****        31.2500 -13.0000  43.0000 Du        
  24618 ****        31.2500 -13.0000  43.2500 Du        
  24619 ****        31.2500 -13.0000  43.5000 Du        
  24620 ****        31.2500 -12.7500  43.2500 Du        
  24621 ****        31.2500 -12.7500  43.5000 Du        
  24622 ****        31.2500 -12.7500  43.7500 Du        
  24623 ****        31.2500 -12.7500  44.0000 Du        
  24624 ****        31.2500 -12.5000  43.5000 Du        
  24625 ****        31.2500 -12.5000  43.7500 Du        
  24626 ****        31.2500 -12.5000  44.0000 Du        
  24627 ****        31.2500 -12.5000  44.2500 Du        
  24628 ****        31.2500 -12.5000  44.5000 Du        
  24629 ****        31.2500 -12.2500  43.5000 Du        
  24630 ****        31.2500 -12.2500  43.7500 Du        
  24631 ****        31.2500 -12.2500  44.0000 Du        
  24632 ****        31.2500 -12.2500  44.2500 Du        
  24633 ****        31.2500 -12.2500  44.5000 Du        
  24634 ****        31.2500 -12.2500  44.7500 Du        
  24635 ****        31.2500 -12.2500  45.0000 Du        
  24636 ****        31.2500 -12.2500  45.2500 Du        
  24637 ****        31.2500 -12.0000  43.7500 Du        
  24638 ****        31.2500 -12.0000  44.0000 Du        
  24639 ****        31.2500 -12.0000  44.2500 Du        
  24640 ****        31.2500 -12.0000  44.5000 Du        
  24641 ****        31.2500 -12.0000  44.7500 Du        
  24642 ****        31.2500 -12.0000  45.0000 Du        
  24643 ****        31.2500 -12.0000  45.2500 Du        
  24644 ****        31.2500 -12.0000  45.5000 Du        
  24645 ****        31.2500 -11.7500  44.0000 Du        
  24646 ****        31.2500 -11.7500  44.2500 Du        
  24647 ****        31.2500 -11.7500  44.5000 Du        
  24648 ****        31.2500 -11.7500  44.7500 Du        
  24649 ****        31.2500 -11.7500  45.0000 Du        
  24650 ****        31.2500 -11.7500  45.2500 Du        
  24651 ****        31.2500 -11.7500  45.5000 Du        
  24652 ****        31.2500 -11.7500  45.7500 Du        
  24653 ****        31.2500 -11.5000  44.0000 Du        
  24654 ****        31.2500 -11.5000  44.2500 Du        
  24655 ****        31.2500 -11.5000  44.5000 Du        
  24656 ****        31.2500 -11.5000  44.7500 Du        
  24657 ****        31.2500 -11.5000  45.0000 Du        
  24658 ****        31.2500 -11.5000  45.2500 Du        
  24659 ****        31.2500 -11.5000  45.5000 Du        
  24660 ****        31.2500 -11.5000  45.7500 Du        
  24661 ****        31.2500 -11.2500  44.2500 Du        
  24662 ****        31.2500 -11.2500  44.5000 Du        
  24663 ****        31.2500 -11.2500  44.7500 Du        
  24664 ****        31.2500 -11.2500  45.0000 Du        
  24665 ****        31.2500 -11.2500  45.2500 Du        
  24666 ****        31.2500 -11.2500  45.5000 Du        
  24667 ****        31.2500 -11.2500  45.7500 Du        
  24668 ****        31.2500 -11.0000  44.2500 Du        
  24669 ****        31.2500 -11.0000  44.5000 Du        
  24670 ****        31.2500 -11.0000  44.7500 Du        
  24671 ****        31.2500 -11.0000  45.0000 Du        
  24672 ****        31.2500 -11.0000  45.2500 Du        
  24673 ****        31.2500 -11.0000  45.5000 Du        
  24674 ****        31.2500 -10.7500  44.5000 Du        
  24675 ****        31.2500 -10.7500  44.7500 Du        
  24676 ****        31.2500 -10.7500  45.0000 Du        
  24677 ****        31.2500 -10.7500  45.2500 Du        
  24678 ****        31.2500 -10.5000  44.7500 Du        
  24679 ****        31.2500   1.7500  37.0000 Du        
  24680 ****        31.2500   2.0000  36.5000 Du        
  24681 ****        31.2500   2.0000  36.7500 Du        
  24682 ****        31.2500   2.0000  37.0000 Du        
  24683 ****        31.2500   2.0000  37.2500 Du        
  24684 ****        31.2500   2.0000  37.5000 Du        
  24685 ****        31.2500   2.0000  37.7500 Du        
  24686 ****        31.2500   2.0000  38.0000 Du        
  24687 ****        31.2500   2.0000  38.2500 Du        
  24688 ****        31.2500   2.0000  38.5000 Du        
  24689 ****        31.2500   2.2500  36.7500 Du        
  24690 ****        31.2500   2.2500  37.0000 Du        
  24691 ****        31.2500   2.2500  37.2500 Du        
  24692 ****        31.2500   2.2500  37.5000 Du        
  24693 ****        31.2500   2.2500  37.7500 Du        
  24694 ****        31.2500   2.2500  38.0000 Du        
  24695 ****        31.2500   2.2500  38.2500 Du        
  24696 ****        31.2500   2.2500  38.5000 Du        
  24697 ****        31.2500   2.2500  38.7500 Du        
  24698 ****        31.2500   2.2500  39.0000 Du        
  24699 ****        31.2500   2.5000  37.0000 Du        
  24700 ****        31.2500   2.5000  37.2500 Du        
  24701 ****        31.2500   2.5000  37.5000 Du        
  24702 ****        31.2500   2.5000  37.7500 Du        
  24703 ****        31.2500   2.5000  38.0000 Du        
  24704 ****        31.2500   2.5000  38.2500 Du        
  24705 ****        31.2500   2.5000  38.5000 Du        
  24706 ****        31.2500   2.5000  38.7500 Du        
  24707 ****        31.2500   2.5000  39.0000 Du        
  24708 ****        31.2500   2.5000  39.2500 Du        
  24709 ****        31.2500   2.7500  37.2500 Du        
  24710 ****        31.2500   2.7500  37.5000 Du        
  24711 ****        31.2500   2.7500  37.7500 Du        
  24712 ****        31.2500   2.7500  38.0000 Du        
  24713 ****        31.2500   2.7500  38.2500 Du        
  24714 ****        31.2500   2.7500  38.5000 Du        
  24715 ****        31.2500   2.7500  38.7500 Du        
  24716 ****        31.2500   2.7500  39.0000 Du        
  24717 ****        31.2500   2.7500  39.2500 Du        
  24718 ****        31.2500   2.7500  39.5000 Du        
  24719 ****        31.2500   3.0000  37.7500 Du        
  24720 ****        31.2500   3.0000  38.0000 Du        
  24721 ****        31.2500   3.0000  38.2500 Du        
  24722 ****        31.2500   3.0000  38.5000 Du        
  24723 ****        31.2500   3.0000  38.7500 Du        
  24724 ****        31.2500   3.0000  39.0000 Du        
  24725 ****        31.2500   3.0000  39.2500 Du        
  24726 ****        31.2500   3.0000  39.5000 Du        
  24727 ****        31.2500   3.0000  39.7500 Du        
  24728 ****        31.2500   3.2500  38.0000 Du        
  24729 ****        31.2500   3.2500  38.2500 Du        
  24730 ****        31.2500   3.2500  38.5000 Du        
  24731 ****        31.2500   3.2500  38.7500 Du        
  24732 ****        31.2500   3.2500  39.0000 Du        
  24733 ****        31.2500   3.2500  39.2500 Du        
  24734 ****        31.2500   3.2500  39.5000 Du        
  24735 ****        31.2500   3.2500  39.7500 Du        
  24736 ****        31.2500   3.5000  39.0000 Du        
  24737 ****        31.2500   3.5000  44.5000 Du        
  24738 ****        31.2500   3.5000  44.7500 Du        
  24739 ****        31.2500   3.7500  44.0000 Du        
  24740 ****        31.2500   3.7500  44.2500 Du        
  24741 ****        31.2500   3.7500  44.5000 Du        
  24742 ****        31.2500   3.7500  44.7500 Du        
  24743 ****        31.2500   3.7500  45.0000 Du        
  24744 ****        31.2500   4.0000  43.7500 Du        
  24745 ****        31.2500   4.0000  44.0000 Du        
  24746 ****        31.2500   4.0000  44.2500 Du        
  24747 ****        31.2500   4.0000  44.5000 Du        
  24748 ****        31.2500   4.0000  44.7500 Du        
  24749 ****        31.2500   4.2500  43.5000 Du        
  24750 ****        31.2500   4.2500  43.7500 Du        
  24751 ****        31.2500   4.2500  44.0000 Du        
  24752 ****        31.2500   4.2500  44.2500 Du        
  24753 ****        31.2500   4.2500  44.5000 Du        
  24754 ****        31.2500   4.5000  43.5000 Du        
  24755 ****        31.2500   4.5000  43.7500 Du        
  24756 ****        31.2500   4.5000  44.0000 Du        
  24757 ****        31.2500   4.7500  43.2500 Du        
  24758 ****        31.2500   4.7500  43.5000 Du        
  24759 ****        31.2500   4.7500  43.7500 Du        
  24760 ****        31.2500   4.7500  44.0000 Du        
  24761 ****        31.2500   5.0000  43.0000 Du        
  24762 ****        31.2500   5.0000  43.2500 Du        
  24763 ****        31.2500   5.0000  43.5000 Du        
  24764 ****        31.2500   5.0000  43.7500 Du        
  24765 ****        31.2500   5.2500  42.7500 Du        
  24766 ****        31.2500   5.2500  43.0000 Du        
  24767 ****        31.2500   5.2500  43.2500 Du        
  24768 ****        31.2500   5.2500  43.5000 Du        
  24769 ****        31.2500   5.5000  42.7500 Du        
  24770 ****        31.2500   5.5000  43.0000 Du        
  24771 ****        31.2500   5.5000  43.2500 Du        
  24772 ****        31.2500   5.5000  43.5000 Du        
  24773 ****        31.2500   5.7500  42.5000 Du        
  24774 ****        31.2500   5.7500  42.7500 Du        
  24775 ****        31.2500   5.7500  43.0000 Du        
  24776 ****        31.2500   5.7500  43.2500 Du        
  24777 ****        31.2500   6.0000  42.5000 Du        
  24778 ****        31.2500   6.0000  42.7500 Du        
  24779 ****        31.2500   6.0000  43.0000 Du        
  24780 ****        31.2500   6.0000  43.2500 Du        
  24781 ****        31.2500   6.2500  42.5000 Du        
  24782 ****        31.2500   6.2500  42.7500 Du        
  24783 ****        31.2500   6.2500  43.0000 Du        
  24784 ****        31.2500   6.2500  43.2500 Du        
  24785 ****        31.2500   6.5000  43.0000 Du        
  24786 ****        31.2500   6.7500  43.0000 Du        
  24787 ****        31.2500   7.0000  42.7500 Du        
  24788 ****        31.2500   7.0000  43.0000 Du        
  24789 ****        31.2500   7.0000  43.2500 Du        
  24790 ****        31.2500   7.2500  43.0000 Du        
  24791 ****        31.2500   7.2500  43.2500 Du        
  24792 ****        31.2500   9.5000  24.0000 Du        
  24793 ****        31.2500   9.5000  24.2500 Du        
  24794 ****        31.2500   9.5000  24.5000 Du        
  24795 ****        31.2500   9.7500  24.0000 Du        
  24796 ****        31.2500   9.7500  24.2500 Du        
  24797 ****        31.2500  13.7500  42.7500 Du        
  24798 ****        31.2500  13.7500  43.0000 Du        
  24799 ****        31.2500  14.0000  42.5000 Du        
  24800 ****        31.2500  14.0000  42.7500 Du        
  24801 ****        31.2500  14.0000  43.0000 Du        
  24802 ****        31.2500  14.0000  43.2500 Du        
  24803 ****        31.2500  14.2500  33.0000 Du        
  24804 ****        31.2500  14.2500  33.2500 Du        
  24805 ****        31.2500  14.2500  42.5000 Du        
  24806 ****        31.2500  14.2500  42.7500 Du        
  24807 ****        31.2500  14.2500  43.0000 Du        
  24808 ****        31.2500  14.2500  43.2500 Du        
  24809 ****        31.2500  14.2500  43.5000 Du        
  24810 ****        31.2500  14.2500  43.7500 Du        
  24811 ****        31.2500  14.5000  32.7500 Du        
  24812 ****        31.2500  14.5000  33.0000 Du        
  24813 ****        31.2500  14.5000  33.2500 Du        
  24814 ****        31.2500  14.5000  42.5000 Du        
  24815 ****        31.2500  14.5000  42.7500 Du        
  24816 ****        31.2500  14.5000  43.0000 Du        
  24817 ****        31.2500  14.5000  43.2500 Du        
  24818 ****        31.2500  14.5000  43.5000 Du        
  24819 ****        31.2500  14.5000  43.7500 Du        
  24820 ****        31.2500  14.5000  44.0000 Du        
  24821 ****        31.2500  14.5000  44.2500 Du        
  24822 ****        31.2500  14.7500  31.7500 Du        
  24823 ****        31.2500  14.7500  32.0000 Du        
  24824 ****        31.2500  14.7500  32.2500 Du        
  24825 ****        31.2500  14.7500  32.5000 Du        
  24826 ****        31.2500  14.7500  32.7500 Du        
  24827 ****        31.2500  14.7500  33.0000 Du        
  24828 ****        31.2500  14.7500  33.2500 Du        
  24829 ****        31.2500  14.7500  33.5000 Du        
  24830 ****        31.2500  14.7500  42.7500 Du        
  24831 ****        31.2500  14.7500  43.0000 Du        
  24832 ****        31.2500  14.7500  43.2500 Du        
  24833 ****        31.2500  14.7500  43.5000 Du        
  24834 ****        31.2500  14.7500  43.7500 Du        
  24835 ****        31.2500  14.7500  44.0000 Du        
  24836 ****        31.2500  14.7500  44.2500 Du        
  24837 ****        31.2500  15.0000  31.2500 Du        
  24838 ****        31.2500  15.0000  31.5000 Du        
  24839 ****        31.2500  15.0000  31.7500 Du        
  24840 ****        31.2500  15.0000  32.0000 Du        
  24841 ****        31.2500  15.0000  32.2500 Du        
  24842 ****        31.2500  15.0000  32.5000 Du        
  24843 ****        31.2500  15.0000  32.7500 Du        
  24844 ****        31.2500  15.0000  33.0000 Du        
  24845 ****        31.2500  15.0000  33.2500 Du        
  24846 ****        31.2500  15.0000  33.5000 Du        
  24847 ****        31.2500  15.0000  43.0000 Du        
  24848 ****        31.2500  15.0000  43.2500 Du        
  24849 ****        31.2500  15.2500  31.2500 Du        
  24850 ****        31.2500  15.2500  31.5000 Du        
  24851 ****        31.2500  15.2500  31.7500 Du        
  24852 ****        31.2500  15.2500  32.0000 Du        
  24853 ****        31.2500  15.2500  32.2500 Du        
  24854 ****        31.2500  15.2500  32.5000 Du        
  24855 ****        31.2500  15.2500  32.7500 Du        
  24856 ****        31.2500  15.2500  33.0000 Du        
  24857 ****        31.2500  15.2500  33.2500 Du        
  24858 ****        31.2500  15.2500  33.5000 Du        
  24859 ****        31.2500  15.5000  31.2500 Du        
  24860 ****        31.2500  15.5000  31.5000 Du        
  24861 ****        31.2500  15.5000  31.7500 Du        
  24862 ****        31.2500  15.5000  32.0000 Du        
  24863 ****        31.2500  15.5000  32.2500 Du        
  24864 ****        31.2500  15.5000  32.5000 Du        
  24865 ****        31.2500  15.5000  32.7500 Du        
  24866 ****        31.2500  15.5000  33.0000 Du        
  24867 ****        31.2500  15.5000  33.2500 Du        
  24868 ****        31.2500  15.5000  33.5000 Du        
  24869 ****        31.2500  15.7500  31.5000 Du        
  24870 ****        31.2500  15.7500  31.7500 Du        
  24871 ****        31.2500  15.7500  32.0000 Du        
  24872 ****        31.2500  15.7500  32.2500 Du        
  24873 ****        31.2500  15.7500  32.5000 Du        
  24874 ****        31.2500  15.7500  32.7500 Du        
  24875 ****        31.2500  15.7500  33.0000 Du        
  24876 ****        31.2500  15.7500  33.2500 Du        
  24877 ****        31.2500  15.7500  33.5000 Du        
  24878 ****        31.2500  16.0000  31.5000 Du        
  24879 ****        31.2500  16.0000  31.7500 Du        
  24880 ****        31.2500  16.0000  32.0000 Du        
  24881 ****        31.2500  16.0000  32.2500 Du        
  24882 ****        31.2500  16.0000  32.5000 Du        
  24883 ****        31.2500  16.0000  32.7500 Du        
  24884 ****        31.2500  16.0000  33.0000 Du        
  24885 ****        31.2500  16.0000  33.2500 Du        
  24886 ****        31.2500  16.0000  33.5000 Du        
  24887 ****        31.2500  16.2500  31.5000 Du        
  24888 ****        31.2500  16.2500  31.7500 Du        
  24889 ****        31.2500  16.2500  32.0000 Du        
  24890 ****        31.2500  16.2500  32.2500 Du        
  24891 ****        31.2500  16.2500  32.5000 Du        
  24892 ****        31.2500  16.2500  32.7500 Du        
  24893 ****        31.2500  16.2500  33.0000 Du        
  24894 ****        31.2500  16.2500  33.2500 Du        
  24895 ****        31.2500  16.5000  31.5000 Du        
  24896 ****        31.2500  16.5000  31.7500 Du        
  24897 ****        31.2500  16.5000  32.0000 Du        
  24898 ****        31.2500  16.5000  32.2500 Du        
  24899 ****        31.2500  16.5000  32.5000 Du        
  24900 ****        31.2500  16.5000  32.7500 Du        
  24901 ****        31.2500  16.5000  33.0000 Du        
  24902 ****        31.2500  16.7500  31.5000 Du        
  24903 ****        31.2500  16.7500  31.7500 Du        
  24904 ****        31.2500  16.7500  32.0000 Du        
  24905 ****        31.2500  16.7500  32.2500 Du        
  24906 ****        31.2500  16.7500  32.5000 Du        
  24907 ****        31.2500  17.0000  31.5000 Du        
  24908 ****        31.2500  17.0000  31.7500 Du        
  24909 ****        31.2500  17.0000  32.0000 Du        
  24910 ****        31.2500  17.0000  32.2500 Du        
  24911 ****        31.2500  17.2500  31.5000 Du        
  24912 ****        31.2500  17.2500  31.7500 Du        
  24913 ****        31.2500  17.2500  32.0000 Du        
  24914 ****        31.2500  17.5000  31.5000 Du        
  24915 ****        31.2500  17.5000  31.7500 Du        
  24916 ****        31.2500  17.7500  31.2500 Du        
  24917 ****        31.2500  17.7500  31.5000 Du        
  24918 ****        31.2500  18.0000  31.2500 Du        
  24919 ****        31.2500  18.5000  31.0000 Du        
  24920 ****        31.2500  18.7500  31.0000 Du        
  24921 ****        31.2500  19.0000  31.0000 Du        
  24922 ****        31.5000 -15.5000  42.2500 Du        
  24923 ****        31.5000 -15.5000  42.5000 Du        
  24924 ****        31.5000 -15.2500  42.0000 Du        
  24925 ****        31.5000 -15.2500  42.2500 Du        
  24926 ****        31.5000 -15.2500  42.5000 Du        
  24927 ****        31.5000 -15.0000  42.0000 Du        
  24928 ****        31.5000 -15.0000  42.2500 Du        
  24929 ****        31.5000 -15.0000  42.5000 Du        
  24930 ****        31.5000 -14.7500  42.2500 Du        
  24931 ****        31.5000 -14.7500  42.5000 Du        
  24932 ****        31.5000 -14.7500  42.7500 Du        
  24933 ****        31.5000 -14.5000  42.2500 Du        
  24934 ****        31.5000 -14.5000  42.5000 Du        
  24935 ****        31.5000 -14.5000  42.7500 Du        
  24936 ****        31.5000 -14.2500  42.5000 Du        
  24937 ****        31.5000 -14.2500  42.7500 Du        
  24938 ****        31.5000 -14.0000  42.5000 Du        
  24939 ****        31.5000 -14.0000  42.7500 Du        
  24940 ****        31.5000 -13.7500  42.7500 Du        
  24941 ****        31.5000 -13.7500  43.0000 Du        
  24942 ****        31.5000 -13.5000  42.7500 Du        
  24943 ****        31.5000 -13.5000  43.0000 Du        
  24944 ****        31.5000 -13.5000  43.2500 Du        
  24945 ****        31.5000 -13.2500  42.7500 Du        
  24946 ****        31.5000 -13.2500  43.0000 Du        
  24947 ****        31.5000 -13.2500  43.2500 Du        
  24948 ****        31.5000 -13.2500  43.5000 Du        
  24949 ****        31.5000 -13.0000  42.7500 Du        
  24950 ****        31.5000 -13.0000  43.0000 Du        
  24951 ****        31.5000 -13.0000  43.2500 Du        
  24952 ****        31.5000 -13.0000  43.5000 Du        
  24953 ****        31.5000 -13.0000  43.7500 Du        
  24954 ****        31.5000 -12.7500  43.0000 Du        
  24955 ****        31.5000 -12.7500  43.2500 Du        
  24956 ****        31.5000 -12.7500  43.5000 Du        
  24957 ****        31.5000 -12.7500  43.7500 Du        
  24958 ****        31.5000 -12.7500  44.0000 Du        
  24959 ****        31.5000 -12.7500  44.2500 Du        
  24960 ****        31.5000 -12.5000  43.0000 Du        
  24961 ****        31.5000 -12.5000  43.2500 Du        
  24962 ****        31.5000 -12.5000  43.5000 Du        
  24963 ****        31.5000 -12.5000  43.7500 Du        
  24964 ****        31.5000 -12.5000  44.0000 Du        
  24965 ****        31.5000 -12.5000  44.2500 Du        
  24966 ****        31.5000 -12.5000  44.5000 Du        
  24967 ****        31.5000 -12.5000  44.7500 Du        
  24968 ****        31.5000 -12.2500  43.2500 Du        
  24969 ****        31.5000 -12.2500  43.5000 Du        
  24970 ****        31.5000 -12.2500  43.7500 Du        
  24971 ****        31.5000 -12.2500  44.0000 Du        
  24972 ****        31.5000 -12.2500  44.2500 Du        
  24973 ****        31.5000 -12.2500  44.5000 Du        
  24974 ****        31.5000 -12.2500  44.7500 Du        
  24975 ****        31.5000 -12.2500  45.0000 Du        
  24976 ****        31.5000 -12.2500  45.2500 Du        
  24977 ****        31.5000 -12.0000  43.5000 Du        
  24978 ****        31.5000 -12.0000  43.7500 Du        
  24979 ****        31.5000 -12.0000  44.0000 Du        
  24980 ****        31.5000 -12.0000  44.2500 Du        
  24981 ****        31.5000 -12.0000  44.5000 Du        
  24982 ****        31.5000 -12.0000  44.7500 Du        
  24983 ****        31.5000 -12.0000  45.0000 Du        
  24984 ****        31.5000 -12.0000  45.2500 Du        
  24985 ****        31.5000 -12.0000  45.5000 Du        
  24986 ****        31.5000 -11.7500  43.7500 Du        
  24987 ****        31.5000 -11.7500  44.0000 Du        
  24988 ****        31.5000 -11.7500  44.2500 Du        
  24989 ****        31.5000 -11.7500  44.5000 Du        
  24990 ****        31.5000 -11.7500  44.7500 Du        
  24991 ****        31.5000 -11.7500  45.0000 Du        
  24992 ****        31.5000 -11.7500  45.2500 Du        
  24993 ****        31.5000 -11.7500  45.5000 Du        
  24994 ****        31.5000 -11.7500  45.7500 Du        
  24995 ****        31.5000 -11.5000  44.0000 Du        
  24996 ****        31.5000 -11.5000  44.2500 Du        
  24997 ****        31.5000 -11.5000  44.5000 Du        
  24998 ****        31.5000 -11.5000  44.7500 Du        
  24999 ****        31.5000 -11.5000  45.0000 Du        
  25000 ****        31.5000 -11.5000  45.2500 Du        
  25001 ****        31.5000 -11.5000  45.5000 Du        
  25002 ****        31.5000 -11.5000  45.7500 Du        
  25003 ****        31.5000 -11.2500  44.0000 Du        
  25004 ****        31.5000 -11.2500  44.2500 Du        
  25005 ****        31.5000 -11.2500  44.5000 Du        
  25006 ****        31.5000 -11.2500  44.7500 Du        
  25007 ****        31.5000 -11.2500  45.0000 Du        
  25008 ****        31.5000 -11.2500  45.2500 Du        
  25009 ****        31.5000 -11.2500  45.5000 Du        
  25010 ****        31.5000 -11.2500  45.7500 Du        
  25011 ****        31.5000 -11.0000  44.2500 Du        
  25012 ****        31.5000 -11.0000  44.5000 Du        
  25013 ****        31.5000 -11.0000  44.7500 Du        
  25014 ****        31.5000 -11.0000  45.0000 Du        
  25015 ****        31.5000 -11.0000  45.2500 Du        
  25016 ****        31.5000 -11.0000  45.5000 Du        
  25017 ****        31.5000 -10.7500  44.2500 Du        
  25018 ****        31.5000 -10.7500  44.5000 Du        
  25019 ****        31.5000 -10.7500  44.7500 Du        
  25020 ****        31.5000 -10.7500  45.0000 Du        
  25021 ****        31.5000 -10.7500  45.2500 Du        
  25022 ****        31.5000 -10.5000  44.5000 Du        
  25023 ****        31.5000 -10.5000  44.7500 Du        
  25024 ****        31.5000 -10.5000  45.0000 Du        
  25025 ****        31.5000   1.7500  36.7500 Du        
  25026 ****        31.5000   1.7500  37.0000 Du        
  25027 ****        31.5000   1.7500  37.2500 Du        
  25028 ****        31.5000   1.7500  37.5000 Du        
  25029 ****        31.5000   2.0000  36.5000 Du        
  25030 ****        31.5000   2.0000  36.7500 Du        
  25031 ****        31.5000   2.0000  37.0000 Du        
  25032 ****        31.5000   2.0000  37.2500 Du        
  25033 ****        31.5000   2.0000  37.5000 Du        
  25034 ****        31.5000   2.0000  37.7500 Du        
  25035 ****        31.5000   2.0000  38.0000 Du        
  25036 ****        31.5000   2.2500  36.7500 Du        
  25037 ****        31.5000   2.2500  37.0000 Du        
  25038 ****        31.5000   2.2500  37.2500 Du        
  25039 ****        31.5000   2.2500  37.5000 Du        
  25040 ****        31.5000   2.2500  37.7500 Du        
  25041 ****        31.5000   2.2500  38.0000 Du        
  25042 ****        31.5000   2.2500  38.2500 Du        
  25043 ****        31.5000   2.2500  38.5000 Du        
  25044 ****        31.5000   2.2500  38.7500 Du        
  25045 ****        31.5000   2.5000  37.5000 Du        
  25046 ****        31.5000   2.5000  37.7500 Du        
  25047 ****        31.5000   2.5000  38.0000 Du        
  25048 ****        31.5000   2.5000  38.2500 Du        
  25049 ****        31.5000   2.5000  38.5000 Du        
  25050 ****        31.5000   2.7500  37.5000 Du        
  25051 ****        31.5000   2.7500  37.7500 Du        
  25052 ****        31.5000   2.7500  38.0000 Du        
  25053 ****        31.5000   2.7500  38.2500 Du        
  25054 ****        31.5000   2.7500  38.5000 Du        
  25055 ****        31.5000   2.7500  38.7500 Du        
  25056 ****        31.5000   3.0000  37.7500 Du        
  25057 ****        31.5000   3.0000  38.0000 Du        
  25058 ****        31.5000   3.0000  38.2500 Du        
  25059 ****        31.5000   3.0000  38.5000 Du        
  25060 ****        31.5000   3.0000  38.7500 Du        
  25061 ****        31.5000   3.7500  44.2500 Du        
  25062 ****        31.5000   3.7500  44.5000 Du        
  25063 ****        31.5000   3.7500  44.7500 Du        
  25064 ****        31.5000   4.0000  44.0000 Du        
  25065 ****        31.5000   4.0000  44.2500 Du        
  25066 ****        31.5000   4.0000  44.5000 Du        
  25067 ****        31.5000   4.0000  44.7500 Du        
  25068 ****        31.5000   4.2500  43.7500 Du        
  25069 ****        31.5000   4.2500  44.0000 Du        
  25070 ****        31.5000   4.2500  44.2500 Du        
  25071 ****        31.5000   4.2500  44.5000 Du        
  25072 ****        31.5000   4.5000  43.5000 Du        
  25073 ****        31.5000   4.5000  43.7500 Du        
  25074 ****        31.5000   4.5000  44.0000 Du        
  25075 ****        31.5000   4.5000  44.2500 Du        
  25076 ****        31.5000   4.7500  43.2500 Du        
  25077 ****        31.5000   4.7500  43.5000 Du        
  25078 ****        31.5000   4.7500  43.7500 Du        
  25079 ****        31.5000   4.7500  44.0000 Du        
  25080 ****        31.5000   5.0000  43.0000 Du        
  25081 ****        31.5000   5.0000  43.2500 Du        
  25082 ****        31.5000   5.0000  43.5000 Du        
  25083 ****        31.5000   5.0000  43.7500 Du        
  25084 ****        31.5000   5.2500  42.7500 Du        
  25085 ****        31.5000   5.2500  43.0000 Du        
  25086 ****        31.5000   5.2500  43.2500 Du        
  25087 ****        31.5000   5.2500  43.5000 Du        
  25088 ****        31.5000   5.5000  43.5000 Du        
  25089 ****        31.5000   5.7500  43.0000 Du        
  25090 ****        31.5000   9.7500  24.0000 Du        
  25091 ****        31.5000   9.7500  24.2500 Du        
  25092 ****        31.5000  14.0000  42.5000 Du        
  25093 ****        31.5000  14.0000  42.7500 Du        
  25094 ****        31.5000  14.0000  43.0000 Du        
  25095 ****        31.5000  14.2500  42.5000 Du        
  25096 ****        31.5000  14.2500  42.7500 Du        
  25097 ****        31.5000  14.2500  43.0000 Du        
  25098 ****        31.5000  14.2500  43.2500 Du        
  25099 ****        31.5000  14.5000  33.2500 Du        
  25100 ****        31.5000  14.5000  42.5000 Du        
  25101 ****        31.5000  14.5000  42.7500 Du        
  25102 ****        31.5000  14.5000  43.0000 Du        
  25103 ****        31.5000  14.5000  43.2500 Du        
  25104 ****        31.5000  14.5000  43.5000 Du        
  25105 ****        31.5000  14.5000  43.7500 Du        
  25106 ****        31.5000  14.7500  32.2500 Du        
  25107 ****        31.5000  14.7500  32.7500 Du        
  25108 ****        31.5000  14.7500  33.0000 Du        
  25109 ****        31.5000  14.7500  33.2500 Du        
  25110 ****        31.5000  14.7500  42.5000 Du        
  25111 ****        31.5000  14.7500  42.7500 Du        
  25112 ****        31.5000  14.7500  43.0000 Du        
  25113 ****        31.5000  14.7500  43.2500 Du        
  25114 ****        31.5000  14.7500  43.5000 Du        
  25115 ****        31.5000  14.7500  43.7500 Du        
  25116 ****        31.5000  15.0000  31.7500 Du        
  25117 ****        31.5000  15.0000  32.0000 Du        
  25118 ****        31.5000  15.0000  32.2500 Du        
  25119 ****        31.5000  15.0000  32.5000 Du        
  25120 ****        31.5000  15.0000  32.7500 Du        
  25121 ****        31.5000  15.0000  33.0000 Du        
  25122 ****        31.5000  15.0000  33.2500 Du        
  25123 ****        31.5000  15.0000  33.5000 Du        
  25124 ****        31.5000  15.0000  42.7500 Du        
  25125 ****        31.5000  15.0000  43.0000 Du        
  25126 ****        31.5000  15.2500  31.2500 Du        
  25127 ****        31.5000  15.2500  31.5000 Du        
  25128 ****        31.5000  15.2500  31.7500 Du        
  25129 ****        31.5000  15.2500  32.0000 Du        
  25130 ****        31.5000  15.2500  32.2500 Du        
  25131 ****        31.5000  15.2500  32.5000 Du        
  25132 ****        31.5000  15.2500  32.7500 Du        
  25133 ****        31.5000  15.2500  33.0000 Du        
  25134 ****        31.5000  15.2500  33.2500 Du        
  25135 ****        31.5000  15.2500  33.5000 Du        
  25136 ****        31.5000  15.5000  31.2500 Du        
  25137 ****        31.5000  15.5000  31.5000 Du        
  25138 ****        31.5000  15.5000  31.7500 Du        
  25139 ****        31.5000  15.5000  32.0000 Du        
  25140 ****        31.5000  15.5000  32.2500 Du        
  25141 ****        31.5000  15.5000  32.5000 Du        
  25142 ****        31.5000  15.5000  32.7500 Du        
  25143 ****        31.5000  15.5000  33.0000 Du        
  25144 ****        31.5000  15.5000  33.2500 Du        
  25145 ****        31.5000  15.7500  31.5000 Du        
  25146 ****        31.5000  15.7500  31.7500 Du        
  25147 ****        31.5000  15.7500  32.0000 Du        
  25148 ****        31.5000  15.7500  32.2500 Du        
  25149 ****        31.5000  15.7500  32.5000 Du        
  25150 ****        31.5000  15.7500  32.7500 Du        
  25151 ****        31.5000  15.7500  33.0000 Du        
  25152 ****        31.5000  15.7500  33.2500 Du        
  25153 ****        31.5000  16.0000  31.5000 Du        
  25154 ****        31.5000  16.0000  31.7500 Du        
  25155 ****        31.5000  16.0000  32.0000 Du        
  25156 ****        31.5000  16.0000  32.2500 Du        
  25157 ****        31.5000  16.0000  32.5000 Du        
  25158 ****        31.5000  16.0000  32.7500 Du        
  25159 ****        31.5000  16.0000  33.0000 Du        
  25160 ****        31.5000  16.2500  31.5000 Du        
  25161 ****        31.5000  16.2500  31.7500 Du        
  25162 ****        31.5000  16.2500  32.0000 Du        
  25163 ****        31.5000  16.2500  32.2500 Du        
  25164 ****        31.5000  16.2500  32.7500 Du        
  25165 ****        31.5000  16.5000  31.7500 Du        
  25166 ****        31.5000  16.5000  32.0000 Du        
  25167 ****        31.5000  16.5000  32.2500 Du        
  25168 ****        31.5000  16.7500  31.7500 Du        
  25169 ****        31.5000  16.7500  32.0000 Du        
  25170 ****        31.5000  16.7500  32.2500 Du        
  25171 ****        31.5000  17.0000  31.5000 Du        
  25172 ****        31.5000  17.0000  31.7500 Du        
  25173 ****        31.5000  17.0000  32.0000 Du        
  25174 ****        31.5000  17.2500  31.7500 Du        
  25175 ****        31.5000  17.5000  31.5000 Du        
  25176 ****        31.5000  17.5000  31.7500 Du        
  25177 ****        31.7500 -15.5000  42.5000 Du        
  25178 ****        31.7500 -15.2500  42.2500 Du        
  25179 ****        31.7500 -15.2500  42.5000 Du        
  25180 ****        31.7500 -15.0000  42.0000 Du        
  25181 ****        31.7500 -15.0000  42.2500 Du        
  25182 ****        31.7500 -15.0000  42.5000 Du        
  25183 ****        31.7500 -15.0000  42.7500 Du        
  25184 ****        31.7500 -14.7500  42.2500 Du        
  25185 ****        31.7500 -14.7500  42.5000 Du        
  25186 ****        31.7500 -14.7500  42.7500 Du        
  25187 ****        31.7500 -14.5000  42.5000 Du        
  25188 ****        31.7500 -14.5000  42.7500 Du        
  25189 ****        31.7500 -14.2500  42.5000 Du        
  25190 ****        31.7500 -14.2500  42.7500 Du        
  25191 ****        31.7500 -14.2500  43.0000 Du        
  25192 ****        31.7500 -14.0000  42.5000 Du        
  25193 ****        31.7500 -14.0000  42.7500 Du        
  25194 ****        31.7500 -14.0000  43.0000 Du        
  25195 ****        31.7500 -13.7500  42.7500 Du        
  25196 ****        31.7500 -13.7500  43.0000 Du        
  25197 ****        31.7500 -13.7500  43.2500 Du        
  25198 ****        31.7500 -13.5000  42.7500 Du        
  25199 ****        31.7500 -13.5000  43.0000 Du        
  25200 ****        31.7500 -13.5000  43.2500 Du        
  25201 ****        31.7500 -13.5000  43.5000 Du        
  25202 ****        31.7500 -13.2500  42.7500 Du        
  25203 ****        31.7500 -13.2500  43.0000 Du        
  25204 ****        31.7500 -13.2500  43.2500 Du        
  25205 ****        31.7500 -13.2500  43.5000 Du        
  25206 ****        31.7500 -13.2500  43.7500 Du        
  25207 ****        31.7500 -13.0000  42.7500 Du        
  25208 ****        31.7500 -13.0000  43.0000 Du        
  25209 ****        31.7500 -13.0000  43.2500 Du        
  25210 ****        31.7500 -13.0000  43.5000 Du        
  25211 ****        31.7500 -13.0000  43.7500 Du        
  25212 ****        31.7500 -13.0000  44.0000 Du        
  25213 ****        31.7500 -12.7500  42.7500 Du        
  25214 ****        31.7500 -12.7500  43.0000 Du        
  25215 ****        31.7500 -12.7500  43.2500 Du        
  25216 ****        31.7500 -12.7500  43.5000 Du        
  25217 ****        31.7500 -12.7500  43.7500 Du        
  25218 ****        31.7500 -12.7500  44.0000 Du        
  25219 ****        31.7500 -12.7500  44.2500 Du        
  25220 ****        31.7500 -12.7500  44.5000 Du        
  25221 ****        31.7500 -12.5000  43.0000 Du        
  25222 ****        31.7500 -12.5000  43.2500 Du        
  25223 ****        31.7500 -12.5000  43.5000 Du        
  25224 ****        31.7500 -12.5000  43.7500 Du        
  25225 ****        31.7500 -12.5000  44.0000 Du        
  25226 ****        31.7500 -12.5000  44.2500 Du        
  25227 ****        31.7500 -12.5000  44.5000 Du        
  25228 ****        31.7500 -12.5000  44.7500 Du        
  25229 ****        31.7500 -12.5000  45.0000 Du        
  25230 ****        31.7500 -12.2500  43.2500 Du        
  25231 ****        31.7500 -12.2500  43.5000 Du        
  25232 ****        31.7500 -12.2500  43.7500 Du        
  25233 ****        31.7500 -12.2500  44.0000 Du        
  25234 ****        31.7500 -12.2500  44.2500 Du        
  25235 ****        31.7500 -12.2500  44.5000 Du        
  25236 ****        31.7500 -12.2500  44.7500 Du        
  25237 ****        31.7500 -12.2500  45.0000 Du        
  25238 ****        31.7500 -12.2500  45.2500 Du        
  25239 ****        31.7500 -12.0000  43.5000 Du        
  25240 ****        31.7500 -12.0000  43.7500 Du        
  25241 ****        31.7500 -12.0000  44.0000 Du        
  25242 ****        31.7500 -12.0000  44.2500 Du        
  25243 ****        31.7500 -12.0000  44.5000 Du        
  25244 ****        31.7500 -12.0000  44.7500 Du        
  25245 ****        31.7500 -12.0000  45.0000 Du        
  25246 ****        31.7500 -12.0000  45.2500 Du        
  25247 ****        31.7500 -12.0000  45.5000 Du        
  25248 ****        31.7500 -11.7500  43.7500 Du        
  25249 ****        31.7500 -11.7500  44.0000 Du        
  25250 ****        31.7500 -11.7500  44.2500 Du        
  25251 ****        31.7500 -11.7500  44.5000 Du        
  25252 ****        31.7500 -11.7500  44.7500 Du        
  25253 ****        31.7500 -11.7500  45.0000 Du        
  25254 ****        31.7500 -11.7500  45.2500 Du        
  25255 ****        31.7500 -11.7500  45.5000 Du        
  25256 ****        31.7500 -11.7500  45.7500 Du        
  25257 ****        31.7500 -11.5000  44.0000 Du        
  25258 ****        31.7500 -11.5000  44.2500 Du        
  25259 ****        31.7500 -11.5000  44.5000 Du        
  25260 ****        31.7500 -11.5000  44.7500 Du        
  25261 ****        31.7500 -11.5000  45.0000 Du        
  25262 ****        31.7500 -11.5000  45.2500 Du        
  25263 ****        31.7500 -11.5000  45.5000 Du        
  25264 ****        31.7500 -11.5000  45.7500 Du        
  25265 ****        31.7500 -11.2500  44.0000 Du        
  25266 ****        31.7500 -11.2500  44.2500 Du        
  25267 ****        31.7500 -11.2500  44.5000 Du        
  25268 ****        31.7500 -11.2500  44.7500 Du        
  25269 ****        31.7500 -11.2500  45.0000 Du        
  25270 ****        31.7500 -11.2500  45.2500 Du        
  25271 ****        31.7500 -11.2500  45.5000 Du        
  25272 ****        31.7500 -11.2500  45.7500 Du        
  25273 ****        31.7500 -11.0000  44.2500 Du        
  25274 ****        31.7500 -11.0000  44.5000 Du        
  25275 ****        31.7500 -11.0000  44.7500 Du        
  25276 ****        31.7500 -11.0000  45.0000 Du        
  25277 ****        31.7500 -11.0000  45.2500 Du        
  25278 ****        31.7500 -11.0000  45.5000 Du        
  25279 ****        31.7500 -10.7500  44.5000 Du        
  25280 ****        31.7500 -10.7500  44.7500 Du        
  25281 ****        31.7500 -10.7500  45.0000 Du        
  25282 ****        31.7500 -10.7500  45.2500 Du        
  25283 ****        31.7500 -10.5000  44.5000 Du        
  25284 ****        31.7500 -10.5000  44.7500 Du        
  25285 ****        31.7500 -10.5000  45.0000 Du        
  25286 ****        31.7500 -10.2500  44.7500 Du        
  25287 ****        31.7500   1.5000  37.0000 Du        
  25288 ****        31.7500   1.7500  36.7500 Du        
  25289 ****        31.7500   1.7500  37.0000 Du        
  25290 ****        31.7500   1.7500  37.2500 Du        
  25291 ****        31.7500   1.7500  37.5000 Du        
  25292 ****        31.7500   1.7500  37.7500 Du        
  25293 ****        31.7500   2.0000  36.7500 Du        
  25294 ****        31.7500   2.0000  37.0000 Du        
  25295 ****        31.7500   2.0000  37.2500 Du        
  25296 ****        31.7500   2.0000  37.5000 Du        
  25297 ****        31.7500   2.0000  37.7500 Du        
  25298 ****        31.7500   2.0000  38.0000 Du        
  25299 ****        31.7500   2.2500  37.0000 Du        
  25300 ****        31.7500   2.2500  37.2500 Du        
  25301 ****        31.7500   2.2500  37.5000 Du        
  25302 ****        31.7500   2.2500  37.7500 Du        
  25303 ****        31.7500   2.2500  38.0000 Du        
  25304 ****        31.7500   2.2500  38.2500 Du        
  25305 ****        31.7500   2.5000  37.5000 Du        
  25306 ****        31.7500   2.5000  37.7500 Du        
  25307 ****        31.7500   2.5000  38.0000 Du        
  25308 ****        31.7500   2.5000  38.2500 Du        
  25309 ****        31.7500   2.7500  37.5000 Du        
  25310 ****        31.7500   2.7500  37.7500 Du        
  25311 ****        31.7500   2.7500  38.0000 Du        
  25312 ****        31.7500   2.7500  38.2500 Du        
  25313 ****        31.7500   3.0000  38.0000 Du        
  25314 ****        31.7500   3.0000  38.2500 Du        
  25315 ****        31.7500   3.7500  44.5000 Du        
  25316 ****        31.7500   3.7500  44.7500 Du        
  25317 ****        31.7500   4.0000  44.2500 Du        
  25318 ****        31.7500   4.0000  44.5000 Du        
  25319 ****        31.7500   4.0000  44.7500 Du        
  25320 ****        31.7500   4.0000  45.0000 Du        
  25321 ****        31.7500   4.2500  44.0000 Du        
  25322 ****        31.7500   4.2500  44.2500 Du        
  25323 ****        31.7500   4.2500  44.5000 Du        
  25324 ****        31.7500   4.2500  44.7500 Du        
  25325 ****        31.7500   4.5000  43.7500 Du        
  25326 ****        31.7500   4.5000  44.0000 Du        
  25327 ****        31.7500   4.5000  44.2500 Du        
  25328 ****        31.7500   4.7500  43.5000 Du        
  25329 ****        31.7500   4.7500  43.7500 Du        
  25330 ****        31.7500   4.7500  44.0000 Du        
  25331 ****        31.7500   5.0000  43.0000 Du        
  25332 ****        31.7500   5.0000  43.2500 Du        
  25333 ****        31.7500   5.0000  43.5000 Du        
  25334 ****        31.7500   5.0000  43.7500 Du        
  25335 ****        31.7500   5.0000  44.0000 Du        
  25336 ****        31.7500   5.2500  42.7500 Du        
  25337 ****        31.7500   5.2500  43.0000 Du        
  25338 ****        31.7500   5.2500  43.2500 Du        
  25339 ****        31.7500   5.2500  43.5000 Du        
  25340 ****        31.7500   5.2500  43.7500 Du        
  25341 ****        31.7500   5.5000  43.2500 Du        
  25342 ****        31.7500   5.5000  43.5000 Du        
  25343 ****        31.7500   5.7500  43.5000 Du        
  25344 ****        31.7500   9.7500  24.0000 Du        
  25345 ****        31.7500   9.7500  24.2500 Du        
  25346 ****        31.7500  14.0000  42.7500 Du        
  25347 ****        31.7500  14.2500  42.5000 Du        
  25348 ****        31.7500  14.2500  42.7500 Du        
  25349 ****        31.7500  14.2500  43.0000 Du        
  25350 ****        31.7500  14.5000  42.5000 Du        
  25351 ****        31.7500  14.5000  42.7500 Du        
  25352 ****        31.7500  14.5000  43.0000 Du        
  25353 ****        31.7500  14.5000  43.2500 Du        
  25354 ****        31.7500  14.7500  32.2500 Du        
  25355 ****        31.7500  14.7500  33.0000 Du        
  25356 ****        31.7500  14.7500  33.2500 Du        
  25357 ****        31.7500  14.7500  42.5000 Du        
  25358 ****        31.7500  14.7500  42.7500 Du        
  25359 ****        31.7500  14.7500  43.0000 Du        
  25360 ****        31.7500  14.7500  43.2500 Du        
  25361 ****        31.7500  15.0000  31.7500 Du        
  25362 ****        31.7500  15.0000  32.0000 Du        
  25363 ****        31.7500  15.0000  32.2500 Du        
  25364 ****        31.7500  15.0000  32.7500 Du        
  25365 ****        31.7500  15.0000  33.0000 Du        
  25366 ****        31.7500  15.0000  33.2500 Du        
  25367 ****        31.7500  15.0000  33.5000 Du        
  25368 ****        31.7500  15.0000  42.7500 Du        
  25369 ****        31.7500  15.0000  43.0000 Du        
  25370 ****        31.7500  15.2500  31.2500 Du        
  25371 ****        31.7500  15.2500  31.5000 Du        
  25372 ****        31.7500  15.2500  31.7500 Du        
  25373 ****        31.7500  15.2500  32.0000 Du        
  25374 ****        31.7500  15.2500  32.2500 Du        
  25375 ****        31.7500  15.2500  32.5000 Du        
  25376 ****        31.7500  15.2500  32.7500 Du        
  25377 ****        31.7500  15.2500  33.0000 Du        
  25378 ****        31.7500  15.2500  33.2500 Du        
  25379 ****        31.7500  15.5000  31.2500 Du        
  25380 ****        31.7500  15.5000  31.5000 Du        
  25381 ****        31.7500  15.5000  31.7500 Du        
  25382 ****        31.7500  15.5000  32.0000 Du        
  25383 ****        31.7500  15.5000  32.2500 Du        
  25384 ****        31.7500  15.5000  32.5000 Du        
  25385 ****        31.7500  15.5000  32.7500 Du        
  25386 ****        31.7500  15.5000  33.0000 Du        
  25387 ****        31.7500  15.5000  33.2500 Du        
  25388 ****        31.7500  15.7500  31.5000 Du        
  25389 ****        31.7500  15.7500  31.7500 Du        
  25390 ****        31.7500  15.7500  32.0000 Du        
  25391 ****        31.7500  15.7500  32.2500 Du        
  25392 ****        31.7500  15.7500  32.5000 Du        
  25393 ****        31.7500  15.7500  32.7500 Du        
  25394 ****        31.7500  15.7500  33.0000 Du        
  25395 ****        31.7500  16.0000  31.5000 Du        
  25396 ****        31.7500  16.0000  31.7500 Du        
  25397 ****        31.7500  16.0000  32.0000 Du        
  25398 ****        31.7500  16.0000  32.2500 Du        
  25399 ****        31.7500  16.0000  32.5000 Du        
  25400 ****        31.7500  16.0000  32.7500 Du        
  25401 ****        31.7500  16.0000  33.0000 Du        
  25402 ****        31.7500  16.2500  31.5000 Du        
  25403 ****        31.7500  16.2500  31.7500 Du        
  25404 ****        31.7500  16.2500  32.0000 Du        
  25405 ****        31.7500  16.2500  32.2500 Du        
  25406 ****        31.7500  16.5000  31.7500 Du        
  25407 ****        31.7500  16.5000  32.0000 Du        
  25408 ****        31.7500  16.5000  32.2500 Du        
  25409 ****        31.7500  16.7500  31.7500 Du        
  25410 ****        31.7500  16.7500  32.0000 Du        
  25411 ****        31.7500  17.0000  31.5000 Du        
  25412 ****        31.7500  17.0000  31.7500 Du        
  25413 ****        31.7500  17.0000  32.0000 Du        
  25414 ****        31.7500  17.5000  31.5000 Du        
  25415 ****        31.7500  17.7500  31.2500 Du        
  25416 ****        31.7500  18.2500  31.0000 Du        
  25417 ****        32.0000 -15.2500  42.5000 Du        
  25418 ****        32.0000 -15.0000  42.2500 Du        
  25419 ****        32.0000 -15.0000  42.5000 Du        
  25420 ****        32.0000 -15.0000  42.7500 Du        
  25421 ****        32.0000 -14.7500  42.2500 Du        
  25422 ****        32.0000 -14.7500  42.5000 Du        
  25423 ****        32.0000 -14.7500  42.7500 Du        
  25424 ****        32.0000 -14.7500  43.0000 Du        
  25425 ****        32.0000 -14.5000  42.5000 Du        
  25426 ****        32.0000 -14.5000  42.7500 Du        
  25427 ****        32.0000 -14.5000  43.0000 Du        
  25428 ****        32.0000 -14.2500  42.5000 Du        
  25429 ****        32.0000 -14.2500  42.7500 Du        
  25430 ****        32.0000 -14.2500  43.0000 Du        
  25431 ****        32.0000 -14.0000  42.5000 Du        
  25432 ****        32.0000 -14.0000  42.7500 Du        
  25433 ****        32.0000 -14.0000  43.0000 Du        
  25434 ****        32.0000 -14.0000  43.2500 Du        
  25435 ****        32.0000 -13.7500  42.7500 Du        
  25436 ****        32.0000 -13.7500  43.0000 Du        
  25437 ****        32.0000 -13.7500  43.2500 Du        
  25438 ****        32.0000 -13.5000  42.7500 Du        
  25439 ****        32.0000 -13.5000  43.0000 Du        
  25440 ****        32.0000 -13.5000  43.2500 Du        
  25441 ****        32.0000 -13.5000  43.5000 Du        
  25442 ****        32.0000 -13.5000  43.7500 Du        
  25443 ****        32.0000 -13.2500  42.7500 Du        
  25444 ****        32.0000 -13.2500  43.0000 Du        
  25445 ****        32.0000 -13.2500  43.2500 Du        
  25446 ****        32.0000 -13.2500  43.5000 Du        
  25447 ****        32.0000 -13.2500  43.7500 Du        
  25448 ****        32.0000 -13.2500  44.0000 Du        
  25449 ****        32.0000 -13.0000  42.7500 Du        
  25450 ****        32.0000 -13.0000  43.0000 Du        
  25451 ****        32.0000 -13.0000  43.2500 Du        
  25452 ****        32.0000 -13.0000  43.5000 Du        
  25453 ****        32.0000 -13.0000  43.7500 Du        
  25454 ****        32.0000 -13.0000  44.0000 Du        
  25455 ****        32.0000 -13.0000  44.2500 Du        
  25456 ****        32.0000 -12.7500  42.7500 Du        
  25457 ****        32.0000 -12.7500  43.0000 Du        
  25458 ****        32.0000 -12.7500  43.2500 Du        
  25459 ****        32.0000 -12.7500  43.5000 Du        
  25460 ****        32.0000 -12.7500  43.7500 Du        
  25461 ****        32.0000 -12.7500  44.0000 Du        
  25462 ****        32.0000 -12.7500  44.2500 Du        
  25463 ****        32.0000 -12.7500  44.5000 Du        
  25464 ****        32.0000 -12.7500  44.7500 Du        
  25465 ****        32.0000 -12.5000  43.0000 Du        
  25466 ****        32.0000 -12.5000  43.2500 Du        
  25467 ****        32.0000 -12.5000  43.5000 Du        
  25468 ****        32.0000 -12.5000  43.7500 Du        
  25469 ****        32.0000 -12.5000  44.0000 Du        
  25470 ****        32.0000 -12.5000  44.2500 Du        
  25471 ****        32.0000 -12.5000  44.5000 Du        
  25472 ****        32.0000 -12.5000  44.7500 Du        
  25473 ****        32.0000 -12.5000  45.0000 Du        
  25474 ****        32.0000 -12.5000  45.2500 Du        
  25475 ****        32.0000 -12.2500  43.2500 Du        
  25476 ****        32.0000 -12.2500  43.5000 Du        
  25477 ****        32.0000 -12.2500  43.7500 Du        
  25478 ****        32.0000 -12.2500  44.0000 Du        
  25479 ****        32.0000 -12.2500  44.2500 Du        
  25480 ****        32.0000 -12.2500  44.5000 Du        
  25481 ****        32.0000 -12.2500  44.7500 Du        
  25482 ****        32.0000 -12.2500  45.0000 Du        
  25483 ****        32.0000 -12.2500  45.2500 Du        
  25484 ****        32.0000 -12.0000  43.5000 Du        
  25485 ****        32.0000 -12.0000  43.7500 Du        
  25486 ****        32.0000 -12.0000  44.0000 Du        
  25487 ****        32.0000 -12.0000  44.2500 Du        
  25488 ****        32.0000 -12.0000  44.5000 Du        
  25489 ****        32.0000 -12.0000  44.7500 Du        
  25490 ****        32.0000 -12.0000  45.0000 Du        
  25491 ****        32.0000 -12.0000  45.2500 Du        
  25492 ****        32.0000 -12.0000  45.5000 Du        
  25493 ****        32.0000 -11.7500  43.7500 Du        
  25494 ****        32.0000 -11.7500  44.0000 Du        
  25495 ****        32.0000 -11.7500  44.2500 Du        
  25496 ****        32.0000 -11.7500  44.5000 Du        
  25497 ****        32.0000 -11.7500  44.7500 Du        
  25498 ****        32.0000 -11.7500  45.0000 Du        
  25499 ****        32.0000 -11.7500  45.2500 Du        
  25500 ****        32.0000 -11.7500  45.5000 Du        
  25501 ****        32.0000 -11.5000  44.0000 Du        
  25502 ****        32.0000 -11.5000  44.2500 Du        
  25503 ****        32.0000 -11.5000  44.5000 Du        
  25504 ****        32.0000 -11.5000  44.7500 Du        
  25505 ****        32.0000 -11.5000  45.0000 Du        
  25506 ****        32.0000 -11.5000  45.2500 Du        
  25507 ****        32.0000 -11.5000  45.5000 Du        
  25508 ****        32.0000 -11.2500  44.2500 Du        
  25509 ****        32.0000 -11.2500  44.5000 Du        
  25510 ****        32.0000 -11.2500  44.7500 Du        
  25511 ****        32.0000 -11.2500  45.0000 Du        
  25512 ****        32.0000 -11.2500  45.2500 Du        
  25513 ****        32.0000 -11.2500  45.5000 Du        
  25514 ****        32.0000 -11.0000  44.5000 Du        
  25515 ****        32.0000 -11.0000  44.7500 Du        
  25516 ****        32.0000 -11.0000  45.0000 Du        
  25517 ****        32.0000 -11.0000  45.2500 Du        
  25518 ****        32.0000 -10.7500  44.5000 Du        
  25519 ****        32.0000 -10.7500  44.7500 Du        
  25520 ****        32.0000 -10.7500  45.0000 Du        
  25521 ****        32.0000 -10.7500  45.2500 Du        
  25522 ****        32.0000 -10.5000  44.7500 Du        
  25523 ****        32.0000   1.2500  37.0000 Du        
  25524 ****        32.0000   1.2500  37.2500 Du        
  25525 ****        32.0000   1.2500  37.5000 Du        
  25526 ****        32.0000   1.5000  36.7500 Du        
  25527 ****        32.0000   1.5000  37.0000 Du        
  25528 ****        32.0000   1.5000  37.2500 Du        
  25529 ****        32.0000   1.5000  37.5000 Du        
  25530 ****        32.0000   1.7500  36.7500 Du        
  25531 ****        32.0000   1.7500  37.0000 Du        
  25532 ****        32.0000   1.7500  37.2500 Du        
  25533 ****        32.0000   1.7500  37.5000 Du        
  25534 ****        32.0000   1.7500  37.7500 Du        
  25535 ****        32.0000   2.0000  36.7500 Du        
  25536 ****        32.0000   2.0000  37.0000 Du        
  25537 ****        32.0000   2.0000  37.2500 Du        
  25538 ****        32.0000   2.0000  37.5000 Du        
  25539 ****        32.0000   2.0000  37.7500 Du        
  25540 ****        32.0000   2.2500  37.0000 Du        
  25541 ****        32.0000   2.2500  37.2500 Du        
  25542 ****        32.0000   2.2500  37.5000 Du        
  25543 ****        32.0000   2.2500  37.7500 Du        
  25544 ****        32.0000   2.2500  38.0000 Du        
  25545 ****        32.0000   2.5000  37.5000 Du        
  25546 ****        32.0000   2.5000  37.7500 Du        
  25547 ****        32.0000   4.0000  44.5000 Du        
  25548 ****        32.0000   4.0000  44.7500 Du        
  25549 ****        32.0000   4.2500  44.2500 Du        
  25550 ****        32.0000   4.2500  44.5000 Du        
  25551 ****        32.0000   4.2500  44.7500 Du        
  25552 ****        32.0000   4.5000  44.0000 Du        
  25553 ****        32.0000   4.5000  44.2500 Du        
  25554 ****        32.0000   4.5000  44.5000 Du        
  25555 ****        32.0000   4.7500  43.7500 Du        
  25556 ****        32.0000   4.7500  44.0000 Du        
  25557 ****        32.0000   4.7500  44.2500 Du        
  25558 ****        32.0000   5.0000  43.5000 Du        
  25559 ****        32.0000   5.0000  43.7500 Du        
  25560 ****        32.0000   5.0000  44.0000 Du        
  25561 ****        32.0000   5.2500  43.0000 Du        
  25562 ****        32.0000   5.2500  43.2500 Du        
  25563 ****        32.0000   5.2500  43.5000 Du        
  25564 ****        32.0000   5.2500  43.7500 Du        
  25565 ****        32.0000   5.5000  43.5000 Du        
  25566 ****        32.0000   5.5000  43.7500 Du        
  25567 ****        32.0000   5.7500  43.5000 Du        
  25568 ****        32.0000  14.2500  42.7500 Du        
  25569 ****        32.0000  14.5000  42.5000 Du        
  25570 ****        32.0000  14.5000  42.7500 Du        
  25571 ****        32.0000  14.5000  43.0000 Du        
  25572 ****        32.0000  14.7500  32.7500 Du        
  25573 ****        32.0000  14.7500  33.0000 Du        
  25574 ****        32.0000  14.7500  33.2500 Du        
  25575 ****        32.0000  14.7500  42.5000 Du        
  25576 ****        32.0000  14.7500  42.7500 Du        
  25577 ****        32.0000  14.7500  43.0000 Du        
  25578 ****        32.0000  15.0000  32.0000 Du        
  25579 ****        32.0000  15.0000  32.2500 Du        
  25580 ****        32.0000  15.0000  32.7500 Du        
  25581 ****        32.0000  15.0000  33.0000 Du        
  25582 ****        32.0000  15.0000  33.2500 Du        
  25583 ****        32.0000  15.0000  42.7500 Du        
  25584 ****        32.0000  15.0000  43.0000 Du        
  25585 ****        32.0000  15.2500  31.2500 Du        
  25586 ****        32.0000  15.2500  31.7500 Du        
  25587 ****        32.0000  15.2500  32.0000 Du        
  25588 ****        32.0000  15.2500  32.2500 Du        
  25589 ****        32.0000  15.2500  32.5000 Du        
  25590 ****        32.0000  15.2500  32.7500 Du        
  25591 ****        32.0000  15.2500  33.0000 Du        
  25592 ****        32.0000  15.5000  31.2500 Du        
  25593 ****        32.0000  15.5000  31.5000 Du        
  25594 ****        32.0000  15.5000  31.7500 Du        
  25595 ****        32.0000  15.5000  32.0000 Du        
  25596 ****        32.0000  15.5000  32.2500 Du        
  25597 ****        32.0000  15.5000  32.5000 Du        
  25598 ****        32.0000  15.5000  32.7500 Du        
  25599 ****        32.0000  15.5000  33.0000 Du        
  25600 ****        32.0000  15.7500  31.2500 Du        
  25601 ****        32.0000  15.7500  31.5000 Du        
  25602 ****        32.0000  15.7500  31.7500 Du        
  25603 ****        32.0000  15.7500  32.0000 Du        
  25604 ****        32.0000  15.7500  32.2500 Du        
  25605 ****        32.0000  15.7500  32.5000 Du        
  25606 ****        32.0000  15.7500  32.7500 Du        
  25607 ****        32.0000  15.7500  33.0000 Du        
  25608 ****        32.0000  16.0000  31.5000 Du        
  25609 ****        32.0000  16.0000  31.7500 Du        
  25610 ****        32.0000  16.0000  32.0000 Du        
  25611 ****        32.0000  16.0000  32.2500 Du        
  25612 ****        32.0000  16.0000  32.5000 Du        
  25613 ****        32.0000  16.0000  32.7500 Du        
  25614 ****        32.0000  16.2500  31.5000 Du        
  25615 ****        32.0000  16.2500  31.7500 Du        
  25616 ****        32.0000  16.2500  32.0000 Du        
  25617 ****        32.0000  16.2500  32.2500 Du        
  25618 ****        32.0000  16.5000  31.7500 Du        
  25619 ****        32.0000  16.5000  32.0000 Du        
  25620 ****        32.0000  16.5000  32.2500 Du        
  25621 ****        32.0000  16.7500  31.7500 Du        
  25622 ****        32.0000  16.7500  32.0000 Du        
  25623 ****        32.0000  17.0000  31.7500 Du        
  25624 ****        32.0000  17.7500  31.2500 Du        
  25625 ****        32.0000  19.0000  30.7500 Du        
  25626 ****        32.0000  19.2500  30.7500 Du        
  25627 ****        32.2500 -15.0000  42.5000 Du        
  25628 ****        32.2500 -15.0000  42.7500 Du        
  25629 ****        32.2500 -15.0000  43.0000 Du        
  25630 ****        32.2500 -14.7500  42.5000 Du        
  25631 ****        32.2500 -14.7500  42.7500 Du        
  25632 ****        32.2500 -14.7500  43.0000 Du        
  25633 ****        32.2500 -14.5000  42.5000 Du        
  25634 ****        32.2500 -14.5000  42.7500 Du        
  25635 ****        32.2500 -14.5000  43.0000 Du        
  25636 ****        32.2500 -14.2500  42.5000 Du        
  25637 ****        32.2500 -14.2500  42.7500 Du        
  25638 ****        32.2500 -14.2500  43.0000 Du        
  25639 ****        32.2500 -14.2500  43.2500 Du        
  25640 ****        32.2500 -14.0000  42.5000 Du        
  25641 ****        32.2500 -14.0000  42.7500 Du        
  25642 ****        32.2500 -14.0000  43.0000 Du        
  25643 ****        32.2500 -14.0000  43.2500 Du        
  25644 ****        32.2500 -14.0000  43.5000 Du        
  25645 ****        32.2500 -13.7500  42.7500 Du        
  25646 ****        32.2500 -13.7500  43.0000 Du        
  25647 ****        32.2500 -13.7500  43.2500 Du        
  25648 ****        32.2500 -13.7500  43.5000 Du        
  25649 ****        32.2500 -13.5000  42.7500 Du        
  25650 ****        32.2500 -13.5000  43.0000 Du        
  25651 ****        32.2500 -13.5000  43.2500 Du        
  25652 ****        32.2500 -13.5000  43.5000 Du        
  25653 ****        32.2500 -13.5000  43.7500 Du        
  25654 ****        32.2500 -13.5000  44.0000 Du        
  25655 ****        32.2500 -13.2500  42.7500 Du        
  25656 ****        32.2500 -13.2500  43.0000 Du        
  25657 ****        32.2500 -13.2500  43.2500 Du        
  25658 ****        32.2500 -13.2500  43.5000 Du        
  25659 ****        32.2500 -13.2500  43.7500 Du        
  25660 ****        32.2500 -13.2500  44.0000 Du        
  25661 ****        32.2500 -13.2500  44.2500 Du        
  25662 ****        32.2500 -13.0000  42.7500 Du        
  25663 ****        32.2500 -13.0000  43.0000 Du        
  25664 ****        32.2500 -13.0000  43.2500 Du        
  25665 ****        32.2500 -13.0000  43.5000 Du        
  25666 ****        32.2500 -13.0000  43.7500 Du        
  25667 ****        32.2500 -13.0000  44.0000 Du        
  25668 ****        32.2500 -13.0000  44.2500 Du        
  25669 ****        32.2500 -13.0000  44.5000 Du        
  25670 ****        32.2500 -13.0000  44.7500 Du        
  25671 ****        32.2500 -12.7500  42.7500 Du        
  25672 ****        32.2500 -12.7500  43.0000 Du        
  25673 ****        32.2500 -12.7500  43.2500 Du        
  25674 ****        32.2500 -12.7500  43.5000 Du        
  25675 ****        32.2500 -12.7500  43.7500 Du        
  25676 ****        32.2500 -12.7500  44.0000 Du        
  25677 ****        32.2500 -12.7500  44.2500 Du        
  25678 ****        32.2500 -12.7500  44.5000 Du        
  25679 ****        32.2500 -12.7500  44.7500 Du        
  25680 ****        32.2500 -12.7500  45.0000 Du        
  25681 ****        32.2500 -12.5000  43.0000 Du        
  25682 ****        32.2500 -12.5000  43.2500 Du        
  25683 ****        32.2500 -12.5000  43.5000 Du        
  25684 ****        32.2500 -12.5000  43.7500 Du        
  25685 ****        32.2500 -12.5000  44.0000 Du        
  25686 ****        32.2500 -12.5000  44.2500 Du        
  25687 ****        32.2500 -12.5000  44.5000 Du        
  25688 ****        32.2500 -12.5000  44.7500 Du        
  25689 ****        32.2500 -12.5000  45.0000 Du        
  25690 ****        32.2500 -12.2500  43.2500 Du        
  25691 ****        32.2500 -12.2500  43.5000 Du        
  25692 ****        32.2500 -12.2500  43.7500 Du        
  25693 ****        32.2500 -12.2500  44.0000 Du        
  25694 ****        32.2500 -12.2500  44.2500 Du        
  25695 ****        32.2500 -12.2500  44.5000 Du        
  25696 ****        32.2500 -12.2500  44.7500 Du        
  25697 ****        32.2500 -12.2500  45.0000 Du        
  25698 ****        32.2500 -12.2500  45.2500 Du        
  25699 ****        32.2500 -12.0000  43.7500 Du        
  25700 ****        32.2500 -12.0000  44.0000 Du        
  25701 ****        32.2500 -12.0000  44.2500 Du        
  25702 ****        32.2500 -12.0000  44.5000 Du        
  25703 ****        32.2500 -12.0000  44.7500 Du        
  25704 ****        32.2500 -12.0000  45.0000 Du        
  25705 ****        32.2500 -12.0000  45.2500 Du        
  25706 ****        32.2500 -11.7500  44.0000 Du        
  25707 ****        32.2500 -11.7500  44.2500 Du        
  25708 ****        32.2500 -11.7500  44.5000 Du        
  25709 ****        32.2500 -11.7500  44.7500 Du        
  25710 ****        32.2500 -11.7500  45.0000 Du        
  25711 ****        32.2500 -11.7500  45.2500 Du        
  25712 ****        32.2500 -11.5000  44.2500 Du        
  25713 ****        32.2500 -11.5000  44.5000 Du        
  25714 ****        32.2500 -11.5000  44.7500 Du        
  25715 ****        32.2500 -11.5000  45.0000 Du        
  25716 ****        32.2500 -11.2500  44.5000 Du        
  25717 ****        32.2500 -11.2500  44.7500 Du        
  25718 ****        32.2500 -11.2500  45.0000 Du        
  25719 ****        32.2500 -11.0000  44.7500 Du        
  25720 ****        32.2500   1.2500  37.0000 Du        
  25721 ****        32.2500   1.2500  37.2500 Du        
  25722 ****        32.2500   1.2500  37.5000 Du        
  25723 ****        32.2500   1.5000  37.0000 Du        
  25724 ****        32.2500   1.5000  37.2500 Du        
  25725 ****        32.2500   1.5000  37.5000 Du        
  25726 ****        32.2500   1.7500  36.7500 Du        
  25727 ****        32.2500   1.7500  37.0000 Du        
  25728 ****        32.2500   1.7500  37.2500 Du        
  25729 ****        32.2500   1.7500  37.5000 Du        
  25730 ****        32.2500   2.0000  37.0000 Du        
  25731 ****        32.2500   2.0000  37.2500 Du        
  25732 ****        32.2500   2.0000  37.5000 Du        
  25733 ****        32.2500   2.2500  37.2500 Du        
  25734 ****        32.2500   2.2500  37.5000 Du        
  25735 ****        32.2500   4.2500  44.5000 Du        
  25736 ****        32.2500   4.2500  44.7500 Du        
  25737 ****        32.2500   4.5000  44.2500 Du        
  25738 ****        32.2500   4.5000  44.5000 Du        
  25739 ****        32.2500   4.5000  44.7500 Du        
  25740 ****        32.2500   4.7500  44.0000 Du        
  25741 ****        32.2500   4.7500  44.2500 Du        
  25742 ****        32.2500   4.7500  44.5000 Du        
  25743 ****        32.2500   5.0000  43.7500 Du        
  25744 ****        32.2500   5.0000  44.0000 Du        
  25745 ****        32.2500   5.0000  44.2500 Du        
  25746 ****        32.2500   5.2500  43.5000 Du        
  25747 ****        32.2500   5.2500  43.7500 Du        
  25748 ****        32.2500   5.2500  44.0000 Du        
  25749 ****        32.2500   5.5000  43.5000 Du        
  25750 ****        32.2500   5.5000  43.7500 Du        
  25751 ****        32.2500   5.7500  43.5000 Du        
  25752 ****        32.2500  14.5000  42.5000 Du        
  25753 ****        32.2500  14.5000  42.7500 Du        
  25754 ****        32.2500  14.7500  33.0000 Du        
  25755 ****        32.2500  14.7500  42.5000 Du        
  25756 ****        32.2500  14.7500  42.7500 Du        
  25757 ****        32.2500  14.7500  43.0000 Du        
  25758 ****        32.2500  15.0000  32.7500 Du        
  25759 ****        32.2500  15.0000  33.0000 Du        
  25760 ****        32.2500  15.0000  33.2500 Du        
  25761 ****        32.2500  15.0000  42.5000 Du        
  25762 ****        32.2500  15.0000  42.7500 Du        
  25763 ****        32.2500  15.2500  31.7500 Du        
  25764 ****        32.2500  15.2500  32.0000 Du        
  25765 ****        32.2500  15.2500  32.2500 Du        
  25766 ****        32.2500  15.2500  32.7500 Du        
  25767 ****        32.2500  15.2500  33.0000 Du        
  25768 ****        32.2500  15.5000  31.5000 Du        
  25769 ****        32.2500  15.5000  31.7500 Du        
  25770 ****        32.2500  15.5000  32.0000 Du        
  25771 ****        32.2500  15.5000  32.2500 Du        
  25772 ****        32.2500  15.7500  31.2500 Du        
  25773 ****        32.2500  15.7500  31.5000 Du        
  25774 ****        32.2500  15.7500  31.7500 Du        
  25775 ****        32.2500  15.7500  32.0000 Du        
  25776 ****        32.2500  15.7500  32.2500 Du        
  25777 ****        32.2500  16.0000  31.2500 Du        
  25778 ****        32.2500  16.0000  31.5000 Du        
  25779 ****        32.2500  16.0000  31.7500 Du        
  25780 ****        32.2500  16.0000  32.0000 Du        
  25781 ****        32.2500  16.0000  32.2500 Du        
  25782 ****        32.2500  16.2500  31.2500 Du        
  25783 ****        32.2500  16.2500  31.5000 Du        
  25784 ****        32.2500  16.2500  31.7500 Du        
  25785 ****        32.2500  16.2500  32.0000 Du        
  25786 ****        32.2500  16.2500  32.2500 Du        
  25787 ****        32.2500  16.5000  31.7500 Du        
  25788 ****        32.2500  16.7500  31.2500 Du        
  25789 ****        32.5000 -14.5000  42.7500 Du        
  25790 ****        32.5000 -14.5000  43.0000 Du        
  25791 ****        32.5000 -14.5000  43.2500 Du        
  25792 ****        32.5000 -14.2500  42.7500 Du        
  25793 ****        32.5000 -14.2500  43.0000 Du        
  25794 ****        32.5000 -14.2500  43.2500 Du        
  25795 ****        32.5000 -14.2500  43.5000 Du        
  25796 ****        32.5000 -14.0000  42.7500 Du        
  25797 ****        32.5000 -14.0000  43.0000 Du        
  25798 ****        32.5000 -14.0000  43.2500 Du        
  25799 ****        32.5000 -14.0000  43.5000 Du        
  25800 ****        32.5000 -14.0000  43.7500 Du        
  25801 ****        32.5000 -13.7500  42.7500 Du        
  25802 ****        32.5000 -13.7500  43.0000 Du        
  25803 ****        32.5000 -13.7500  43.2500 Du        
  25804 ****        32.5000 -13.7500  43.5000 Du        
  25805 ****        32.5000 -13.7500  43.7500 Du        
  25806 ****        32.5000 -13.5000  42.7500 Du        
  25807 ****        32.5000 -13.5000  43.0000 Du        
  25808 ****        32.5000 -13.5000  43.2500 Du        
  25809 ****        32.5000 -13.5000  43.5000 Du        
  25810 ****        32.5000 -13.5000  43.7500 Du        
  25811 ****        32.5000 -13.5000  44.0000 Du        
  25812 ****        32.5000 -13.5000  44.2500 Du        
  25813 ****        32.5000 -13.2500  42.7500 Du        
  25814 ****        32.5000 -13.2500  43.0000 Du        
  25815 ****        32.5000 -13.2500  43.2500 Du        
  25816 ****        32.5000 -13.2500  43.5000 Du        
  25817 ****        32.5000 -13.2500  43.7500 Du        
  25818 ****        32.5000 -13.2500  44.0000 Du        
  25819 ****        32.5000 -13.2500  44.2500 Du        
  25820 ****        32.5000 -13.2500  44.5000 Du        
  25821 ****        32.5000 -13.0000  42.7500 Du        
  25822 ****        32.5000 -13.0000  43.0000 Du        
  25823 ****        32.5000 -13.0000  43.2500 Du        
  25824 ****        32.5000 -13.0000  43.5000 Du        
  25825 ****        32.5000 -13.0000  43.7500 Du        
  25826 ****        32.5000 -13.0000  44.0000 Du        
  25827 ****        32.5000 -13.0000  44.2500 Du        
  25828 ****        32.5000 -13.0000  44.5000 Du        
  25829 ****        32.5000 -13.0000  44.7500 Du        
  25830 ****        32.5000 -12.7500  43.0000 Du        
  25831 ****        32.5000 -12.7500  43.2500 Du        
  25832 ****        32.5000 -12.7500  43.5000 Du        
  25833 ****        32.5000 -12.7500  43.7500 Du        
  25834 ****        32.5000 -12.7500  44.0000 Du        
  25835 ****        32.5000 -12.7500  44.2500 Du        
  25836 ****        32.5000 -12.7500  44.5000 Du        
  25837 ****        32.5000 -12.7500  44.7500 Du        
  25838 ****        32.5000 -12.5000  43.2500 Du        
  25839 ****        32.5000 -12.5000  43.5000 Du        
  25840 ****        32.5000 -12.5000  43.7500 Du        
  25841 ****        32.5000 -12.5000  44.0000 Du        
  25842 ****        32.5000 -12.5000  44.2500 Du        
  25843 ****        32.5000 -12.5000  44.5000 Du        
  25844 ****        32.5000 -12.5000  44.7500 Du        
  25845 ****        32.5000 -12.2500  43.5000 Du        
  25846 ****        32.5000 -12.2500  43.7500 Du        
  25847 ****        32.5000 -12.2500  44.0000 Du        
  25848 ****        32.5000 -12.2500  44.2500 Du        
  25849 ****        32.5000 -12.2500  44.5000 Du        
  25850 ****        32.5000 -12.2500  44.7500 Du        
  25851 ****        32.5000 -12.0000  44.0000 Du        
  25852 ****        32.5000 -12.0000  44.2500 Du        
  25853 ****        32.5000 -12.0000  44.5000 Du        
  25854 ****        32.5000 -11.7500  44.2500 Du        
  25855 ****        32.5000 -11.7500  44.5000 Du        
  25856 ****        32.5000   4.5000  44.5000 Du        
  25857 ****        32.5000   4.5000  44.7500 Du        
  25858 ****        32.5000   4.7500  44.2500 Du        
  25859 ****        32.5000   4.7500  44.5000 Du        
  25860 ****        32.5000   5.0000  44.0000 Du        
  25861 ****        32.5000   5.0000  44.2500 Du        
  25862 ****        32.5000   5.2500  43.7500 Du        
  25863 ****        32.5000   5.2500  44.0000 Du        
  25864 ****        32.5000  14.5000  42.7500 Du        
  25865 ****        32.5000  14.7500  42.5000 Du        
  25866 ****        32.5000  14.7500  42.7500 Du        
  25867 ****        32.5000  14.7500  43.0000 Du        
  25868 ****        32.5000  15.0000  42.5000 Du        
  25869 ****        32.5000  15.0000  42.7500 Du        
  25870 ****        32.5000  15.5000  32.0000 Du        
  25871 ****        32.5000  15.5000  32.2500 Du        
  25872 ****        32.5000  15.7500  32.0000 Du        
  25873 ****        32.5000  15.7500  32.2500 Du        
  25874 ****        32.5000  16.0000  32.0000 Du        
  25875 ****        32.5000  16.0000  32.2500 Du        
  25876 ****        32.7500 -14.7500  42.7500 Du        
  25877 ****        32.7500 -14.7500  43.0000 Du        
  25878 ****        32.7500 -14.5000  42.7500 Du        
  25879 ****        32.7500 -14.5000  43.0000 Du        
  25880 ****        32.7500 -14.5000  43.2500 Du        
  25881 ****        32.7500 -14.5000  43.5000 Du        
  25882 ****        32.7500 -14.2500  42.7500 Du        
  25883 ****        32.7500 -14.2500  43.0000 Du        
  25884 ****        32.7500 -14.2500  43.2500 Du        
  25885 ****        32.7500 -14.2500  43.5000 Du        
  25886 ****        32.7500 -14.2500  43.7500 Du        
  25887 ****        32.7500 -14.0000  42.7500 Du        
  25888 ****        32.7500 -14.0000  43.0000 Du        
  25889 ****        32.7500 -14.0000  43.2500 Du        
  25890 ****        32.7500 -14.0000  43.5000 Du        
  25891 ****        32.7500 -14.0000  43.7500 Du        
  25892 ****        32.7500 -14.0000  44.0000 Du        
  25893 ****        32.7500 -13.7500  42.7500 Du        
  25894 ****        32.7500 -13.7500  43.0000 Du        
  25895 ****        32.7500 -13.7500  43.2500 Du        
  25896 ****        32.7500 -13.7500  43.5000 Du        
  25897 ****        32.7500 -13.7500  43.7500 Du        
  25898 ****        32.7500 -13.7500  44.0000 Du        
  25899 ****        32.7500 -13.7500  44.2500 Du        
  25900 ****        32.7500 -13.5000  42.7500 Du        
  25901 ****        32.7500 -13.5000  43.0000 Du        
  25902 ****        32.7500 -13.5000  43.2500 Du        
  25903 ****        32.7500 -13.5000  43.5000 Du        
  25904 ****        32.7500 -13.5000  43.7500 Du        
  25905 ****        32.7500 -13.5000  44.0000 Du        
  25906 ****        32.7500 -13.5000  44.2500 Du        
  25907 ****        32.7500 -13.2500  42.7500 Du        
  25908 ****        32.7500 -13.2500  43.0000 Du        
  25909 ****        32.7500 -13.2500  43.2500 Du        
  25910 ****        32.7500 -13.2500  43.5000 Du        
  25911 ****        32.7500 -13.2500  43.7500 Du        
  25912 ****        32.7500 -13.2500  44.0000 Du        
  25913 ****        32.7500 -13.2500  44.2500 Du        
  25914 ****        32.7500 -13.2500  44.5000 Du        
  25915 ****        32.7500 -13.0000  42.7500 Du        
  25916 ****        32.7500 -13.0000  43.0000 Du        
  25917 ****        32.7500 -13.0000  43.2500 Du        
  25918 ****        32.7500 -13.0000  43.5000 Du        
  25919 ****        32.7500 -13.0000  43.7500 Du        
  25920 ****        32.7500 -13.0000  44.0000 Du        
  25921 ****        32.7500 -13.0000  44.2500 Du        
  25922 ****        32.7500 -13.0000  44.5000 Du        
  25923 ****        32.7500 -12.7500  43.0000 Du        
  25924 ****        32.7500 -12.7500  43.2500 Du        
  25925 ****        32.7500 -12.7500  43.5000 Du        
  25926 ****        32.7500 -12.7500  43.7500 Du        
  25927 ****        32.7500 -12.7500  44.0000 Du        
  25928 ****        32.7500 -12.7500  44.2500 Du        
  25929 ****        32.7500 -12.5000  43.2500 Du        
  25930 ****        32.7500 -12.5000  43.5000 Du        
  25931 ****        32.7500 -12.5000  43.7500 Du        
  25932 ****        32.7500 -12.5000  44.0000 Du        
  25933 ****        32.7500 -12.5000  44.2500 Du        
  25934 ****        32.7500 -12.2500  43.7500 Du        
  25935 ****        32.7500 -12.2500  44.0000 Du        
  25936 ****        32.7500 -12.2500  44.2500 Du        
  25937 ****        32.7500   4.5000  44.7500 Du        
  25938 ****        32.7500   4.7500  44.2500 Du        
  25939 ****        32.7500   4.7500  44.5000 Du        
  25940 ****        32.7500   4.7500  44.7500 Du        
  25941 ****        32.7500   5.0000  44.0000 Du        
  25942 ****        32.7500   5.0000  44.2500 Du        
  25943 ****        32.7500   5.2500  44.0000 Du        
  25944 ****        32.7500  14.7500  33.2500 Du        
  25945 ****        32.7500  14.7500  42.5000 Du        
  25946 ****        32.7500  14.7500  42.7500 Du        
  25947 ****        32.7500  15.0000  42.5000 Du        
  25948 ****        32.7500  15.0000  42.7500 Du        
  25949 ****        32.7500  15.7500  32.0000 Du        
  25950 ****        32.7500  16.0000  32.0000 Du        
  25951 ****        33.0000 -14.7500  43.0000 Du        
  25952 ****        33.0000 -14.7500  43.2500 Du        
  25953 ****        33.0000 -14.5000  42.7500 Du        
  25954 ****        33.0000 -14.5000  43.0000 Du        
  25955 ****        33.0000 -14.5000  43.2500 Du        
  25956 ****        33.0000 -14.5000  43.5000 Du        
  25957 ****        33.0000 -14.5000  43.7500 Du        
  25958 ****        33.0000 -14.2500  42.7500 Du        
  25959 ****        33.0000 -14.2500  43.0000 Du        
  25960 ****        33.0000 -14.2500  43.2500 Du        
  25961 ****        33.0000 -14.2500  43.5000 Du        
  25962 ****        33.0000 -14.2500  43.7500 Du        
  25963 ****        33.0000 -14.2500  44.0000 Du        
  25964 ****        33.0000 -14.0000  42.7500 Du        
  25965 ****        33.0000 -14.0000  43.0000 Du        
  25966 ****        33.0000 -14.0000  43.2500 Du        
  25967 ****        33.0000 -14.0000  43.5000 Du        
  25968 ****        33.0000 -14.0000  43.7500 Du        
  25969 ****        33.0000 -14.0000  44.0000 Du        
  25970 ****        33.0000 -14.0000  44.2500 Du        
  25971 ****        33.0000 -13.7500  42.7500 Du        
  25972 ****        33.0000 -13.7500  43.0000 Du        
  25973 ****        33.0000 -13.7500  43.2500 Du        
  25974 ****        33.0000 -13.7500  43.5000 Du        
  25975 ****        33.0000 -13.7500  43.7500 Du        
  25976 ****        33.0000 -13.7500  44.0000 Du        
  25977 ****        33.0000 -13.7500  44.2500 Du        
  25978 ****        33.0000 -13.5000  42.7500 Du        
  25979 ****        33.0000 -13.5000  43.0000 Du        
  25980 ****        33.0000 -13.5000  43.2500 Du        
  25981 ****        33.0000 -13.5000  43.5000 Du        
  25982 ****        33.0000 -13.5000  43.7500 Du        
  25983 ****        33.0000 -13.5000  44.0000 Du        
  25984 ****        33.0000 -13.5000  44.2500 Du        
  25985 ****        33.0000 -13.2500  42.7500 Du        
  25986 ****        33.0000 -13.2500  43.0000 Du        
  25987 ****        33.0000 -13.2500  43.2500 Du        
  25988 ****        33.0000 -13.2500  43.5000 Du        
  25989 ****        33.0000 -13.2500  43.7500 Du        
  25990 ****        33.0000 -13.2500  44.0000 Du        
  25991 ****        33.0000 -13.2500  44.2500 Du        
  25992 ****        33.0000 -13.0000  42.7500 Du        
  25993 ****        33.0000 -13.0000  43.0000 Du        
  25994 ****        33.0000 -13.0000  43.2500 Du        
  25995 ****        33.0000 -13.0000  43.5000 Du        
  25996 ****        33.0000 -13.0000  43.7500 Du        
  25997 ****        33.0000 -13.0000  44.0000 Du        
  25998 ****        33.0000 -13.0000  44.2500 Du        
  25999 ****        33.0000 -12.7500  43.0000 Du        
  26000 ****        33.0000 -12.7500  43.2500 Du        
  26001 ****        33.0000 -12.7500  43.5000 Du        
  26002 ****        33.0000 -12.7500  43.7500 Du        
  26003 ****        33.0000 -12.7500  44.0000 Du        
  26004 ****        33.0000 -12.5000  43.5000 Du        
  26005 ****        33.0000 -12.5000  43.7500 Du        
  26006 ****        33.0000 -12.5000  44.0000 Du        
  26007 ****        33.0000   4.7500  44.5000 Du        
  26008 ****        33.0000   4.7500  44.7500 Du        
  26009 ****        33.0000   5.0000  44.2500 Du        
  26010 ****        33.0000   5.0000  44.5000 Du        
  26011 ****        33.0000  14.7500  33.2500 Du        
  26012 ****        33.0000  14.7500  42.5000 Du        
  26013 ****        33.0000  14.7500  42.7500 Du        
  26014 ****        33.0000  15.0000  42.2500 Du        
  26015 ****        33.0000  15.0000  42.5000 Du        
  26016 ****        33.0000  15.0000  42.7500 Du        
  26017 ****        33.2500 -14.7500  43.0000 Du        
  26018 ****        33.2500 -14.7500  43.2500 Du        
  26019 ****        33.2500 -14.7500  43.5000 Du        
  26020 ****        33.2500 -14.5000  42.7500 Du        
  26021 ****        33.2500 -14.5000  43.0000 Du        
  26022 ****        33.2500 -14.5000  43.2500 Du        
  26023 ****        33.2500 -14.5000  43.5000 Du        
  26024 ****        33.2500 -14.5000  43.7500 Du        
  26025 ****        33.2500 -14.5000  44.0000 Du        
  26026 ****        33.2500 -14.2500  42.7500 Du        
  26027 ****        33.2500 -14.2500  43.0000 Du        
  26028 ****        33.2500 -14.2500  43.2500 Du        
  26029 ****        33.2500 -14.2500  43.5000 Du        
  26030 ****        33.2500 -14.2500  43.7500 Du        
  26031 ****        33.2500 -14.2500  44.0000 Du        
  26032 ****        33.2500 -14.2500  44.2500 Du        
  26033 ****        33.2500 -14.0000  42.5000 Du        
  26034 ****        33.2500 -14.0000  42.7500 Du        
  26035 ****        33.2500 -14.0000  43.0000 Du        
  26036 ****        33.2500 -14.0000  43.2500 Du        
  26037 ****        33.2500 -14.0000  43.5000 Du        
  26038 ****        33.2500 -14.0000  43.7500 Du        
  26039 ****        33.2500 -14.0000  44.0000 Du        
  26040 ****        33.2500 -14.0000  44.2500 Du        
  26041 ****        33.2500 -13.7500  42.7500 Du        
  26042 ****        33.2500 -13.7500  43.0000 Du        
  26043 ****        33.2500 -13.7500  43.2500 Du        
  26044 ****        33.2500 -13.7500  43.5000 Du        
  26045 ****        33.2500 -13.7500  43.7500 Du        
  26046 ****        33.2500 -13.7500  44.0000 Du        
  26047 ****        33.2500 -13.7500  44.2500 Du        
  26048 ****        33.2500 -13.5000  42.7500 Du        
  26049 ****        33.2500 -13.5000  43.0000 Du        
  26050 ****        33.2500 -13.5000  43.2500 Du        
  26051 ****        33.2500 -13.5000  43.5000 Du        
  26052 ****        33.2500 -13.5000  43.7500 Du        
  26053 ****        33.2500 -13.5000  44.0000 Du        
  26054 ****        33.2500 -13.5000  44.2500 Du        
  26055 ****        33.2500 -13.2500  42.7500 Du        
  26056 ****        33.2500 -13.2500  43.0000 Du        
  26057 ****        33.2500 -13.2500  43.2500 Du        
  26058 ****        33.2500 -13.2500  43.5000 Du        
  26059 ****        33.2500 -13.2500  43.7500 Du        
  26060 ****        33.2500 -13.2500  44.0000 Du        
  26061 ****        33.2500 -13.0000  42.7500 Du        
  26062 ****        33.2500 -13.0000  43.0000 Du        
  26063 ****        33.2500 -13.0000  43.2500 Du        
  26064 ****        33.2500 -13.0000  43.5000 Du        
  26065 ****        33.2500 -13.0000  43.7500 Du        
  26066 ****        33.2500 -13.0000  44.0000 Du        
  26067 ****        33.2500 -12.7500  43.0000 Du        
  26068 ****        33.2500 -12.7500  43.2500 Du        
  26069 ****        33.2500 -12.7500  43.5000 Du        
  26070 ****        33.2500 -12.7500  43.7500 Du        
  26071 ****        33.2500  14.0000  33.5000 Du        
  26072 ****        33.2500  14.0000  33.7500 Du        
  26073 ****        33.2500  14.2500  33.2500 Du        
  26074 ****        33.2500  14.2500  33.5000 Du        
  26075 ****        33.2500  14.2500  33.7500 Du        
  26076 ****        33.2500  14.5000  33.5000 Du        
  26077 ****        33.2500  14.7500  42.5000 Du        
  26078 ****        33.2500  14.7500  42.7500 Du        
  26079 ****        33.2500  15.0000  42.2500 Du        
  26080 ****        33.2500  15.0000  42.5000 Du        
  26081 ****        33.2500  15.0000  42.7500 Du        
  26082 ****        33.2500  15.2500  42.2500 Du        
  26083 ****        33.2500  15.2500  42.5000 Du        
  26084 ****        33.5000 -14.5000  42.7500 Du        
  26085 ****        33.5000 -14.5000  43.0000 Du        
  26086 ****        33.5000 -14.5000  43.2500 Du        
  26087 ****        33.5000 -14.5000  43.5000 Du        
  26088 ****        33.5000 -14.5000  43.7500 Du        
  26089 ****        33.5000 -14.5000  44.0000 Du        
  26090 ****        33.5000 -14.5000  44.2500 Du        
  26091 ****        33.5000 -14.2500  42.5000 Du        
  26092 ****        33.5000 -14.2500  42.7500 Du        
  26093 ****        33.5000 -14.2500  43.0000 Du        
  26094 ****        33.5000 -14.2500  43.2500 Du        
  26095 ****        33.5000 -14.2500  43.5000 Du        
  26096 ****        33.5000 -14.2500  43.7500 Du        
  26097 ****        33.5000 -14.2500  44.0000 Du        
  26098 ****        33.5000 -14.2500  44.2500 Du        
  26099 ****        33.5000 -14.0000  42.5000 Du        
  26100 ****        33.5000 -14.0000  42.7500 Du        
  26101 ****        33.5000 -14.0000  43.0000 Du        
  26102 ****        33.5000 -14.0000  43.2500 Du        
  26103 ****        33.5000 -14.0000  43.5000 Du        
  26104 ****        33.5000 -14.0000  43.7500 Du        
  26105 ****        33.5000 -14.0000  44.0000 Du        
  26106 ****        33.5000 -14.0000  44.2500 Du        
  26107 ****        33.5000 -13.7500  42.5000 Du        
  26108 ****        33.5000 -13.7500  42.7500 Du        
  26109 ****        33.5000 -13.7500  43.0000 Du        
  26110 ****        33.5000 -13.7500  43.2500 Du        
  26111 ****        33.5000 -13.7500  43.5000 Du        
  26112 ****        33.5000 -13.7500  43.7500 Du        
  26113 ****        33.5000 -13.7500  44.0000 Du        
  26114 ****        33.5000 -13.5000  42.5000 Du        
  26115 ****        33.5000 -13.5000  42.7500 Du        
  26116 ****        33.5000 -13.5000  43.0000 Du        
  26117 ****        33.5000 -13.5000  43.2500 Du        
  26118 ****        33.5000 -13.5000  43.5000 Du        
  26119 ****        33.5000 -13.5000  43.7500 Du        
  26120 ****        33.5000 -13.5000  44.0000 Du        
  26121 ****        33.5000 -13.2500  42.7500 Du        
  26122 ****        33.5000 -13.2500  43.0000 Du        
  26123 ****        33.5000 -13.2500  43.2500 Du        
  26124 ****        33.5000 -13.2500  43.5000 Du        
  26125 ****        33.5000 -13.2500  43.7500 Du        
  26126 ****        33.5000 -13.0000  42.7500 Du        
  26127 ****        33.5000 -13.0000  43.0000 Du        
  26128 ****        33.5000 -13.0000  43.2500 Du        
  26129 ****        33.5000 -13.0000  43.5000 Du        
  26130 ****        33.5000 -13.0000  43.7500 Du        
  26131 ****        33.5000 -12.7500  43.2500 Du        
  26132 ****        33.5000 -12.7500  43.5000 Du        
  26133 ****        33.5000  13.2500  33.7500 Du        
  26134 ****        33.5000  13.5000  33.7500 Du        
  26135 ****        33.5000  13.7500  33.7500 Du        
  26136 ****        33.5000  14.0000  33.2500 Du        
  26137 ****        33.5000  14.0000  33.5000 Du        
  26138 ****        33.5000  14.0000  33.7500 Du        
  26139 ****        33.5000  14.2500  33.0000 Du        
  26140 ****        33.5000  14.2500  33.2500 Du        
  26141 ****        33.5000  14.2500  33.5000 Du        
  26142 ****        33.5000  14.2500  33.7500 Du        
  26143 ****        33.5000  14.5000  33.2500 Du        
  26144 ****        33.5000  14.5000  33.5000 Du        
  26145 ****        33.5000  14.5000  33.7500 Du        
  26146 ****        33.5000  14.7500  33.2500 Du        
  26147 ****        33.5000  14.7500  33.5000 Du        
  26148 ****        33.5000  14.7500  42.2500 Du        
  26149 ****        33.5000  14.7500  42.5000 Du        
  26150 ****        33.5000  14.7500  42.7500 Du        
  26151 ****        33.5000  15.0000  33.2500 Du        
  26152 ****        33.5000  15.0000  42.2500 Du        
  26153 ****        33.5000  15.0000  42.5000 Du        
  26154 ****        33.5000  15.0000  42.7500 Du        
  26155 ****        33.5000  15.2500  42.2500 Du        
  26156 ****        33.5000  15.2500  42.5000 Du        
  26157 ****        33.7500 -14.7500  43.5000 Du        
  26158 ****        33.7500 -14.7500  43.7500 Du        
  26159 ****        33.7500 -14.7500  44.0000 Du        
  26160 ****        33.7500 -14.5000  42.7500 Du        
  26161 ****        33.7500 -14.5000  43.0000 Du        
  26162 ****        33.7500 -14.5000  43.2500 Du        
  26163 ****        33.7500 -14.5000  43.5000 Du        
  26164 ****        33.7500 -14.5000  43.7500 Du        
  26165 ****        33.7500 -14.5000  44.0000 Du        
  26166 ****        33.7500 -14.5000  44.2500 Du        
  26167 ****        33.7500 -14.2500  42.5000 Du        
  26168 ****        33.7500 -14.2500  42.7500 Du        
  26169 ****        33.7500 -14.2500  43.0000 Du        
  26170 ****        33.7500 -14.2500  43.2500 Du        
  26171 ****        33.7500 -14.2500  43.5000 Du        
  26172 ****        33.7500 -14.2500  43.7500 Du        
  26173 ****        33.7500 -14.2500  44.0000 Du        
  26174 ****        33.7500 -14.2500  44.2500 Du        
  26175 ****        33.7500 -14.0000  42.5000 Du        
  26176 ****        33.7500 -14.0000  42.7500 Du        
  26177 ****        33.7500 -14.0000  43.0000 Du        
  26178 ****        33.7500 -14.0000  43.2500 Du        
  26179 ****        33.7500 -14.0000  43.5000 Du        
  26180 ****        33.7500 -14.0000  43.7500 Du        
  26181 ****        33.7500 -14.0000  44.0000 Du        
  26182 ****        33.7500 -14.0000  44.2500 Du        
  26183 ****        33.7500 -13.7500  42.5000 Du        
  26184 ****        33.7500 -13.7500  42.7500 Du        
  26185 ****        33.7500 -13.7500  43.0000 Du        
  26186 ****        33.7500 -13.7500  43.2500 Du        
  26187 ****        33.7500 -13.7500  43.5000 Du        
  26188 ****        33.7500 -13.7500  43.7500 Du        
  26189 ****        33.7500 -13.7500  44.0000 Du        
  26190 ****        33.7500 -13.5000  42.5000 Du        
  26191 ****        33.7500 -13.5000  42.7500 Du        
  26192 ****        33.7500 -13.5000  43.0000 Du        
  26193 ****        33.7500 -13.5000  43.2500 Du        
  26194 ****        33.7500 -13.5000  43.5000 Du        
  26195 ****        33.7500 -13.5000  43.7500 Du        
  26196 ****        33.7500 -13.2500  42.7500 Du        
  26197 ****        33.7500 -13.2500  43.0000 Du        
  26198 ****        33.7500 -13.2500  43.2500 Du        
  26199 ****        33.7500 -13.2500  43.5000 Du        
  26200 ****        33.7500 -13.2500  43.7500 Du        
  26201 ****        33.7500 -13.0000  42.7500 Du        
  26202 ****        33.7500 -13.0000  43.0000 Du        
  26203 ****        33.7500 -13.0000  43.2500 Du        
  26204 ****        33.7500 -13.0000  43.5000 Du        
  26205 ****        33.7500  12.7500  34.0000 Du        
  26206 ****        33.7500  13.0000  33.7500 Du        
  26207 ****        33.7500  13.0000  34.0000 Du        
  26208 ****        33.7500  13.2500  33.7500 Du        
  26209 ****        33.7500  13.5000  33.5000 Du        
  26210 ****        33.7500  13.5000  33.7500 Du        
  26211 ****        33.7500  13.7500  33.2500 Du        
  26212 ****        33.7500  13.7500  33.5000 Du        
  26213 ****        33.7500  13.7500  33.7500 Du        
  26214 ****        33.7500  14.0000  33.0000 Du        
  26215 ****        33.7500  14.0000  33.2500 Du        
  26216 ****        33.7500  14.0000  33.5000 Du        
  26217 ****        33.7500  14.0000  33.7500 Du        
  26218 ****        33.7500  14.0000  34.0000 Du        
  26219 ****        33.7500  14.2500  33.0000 Du        
  26220 ****        33.7500  14.2500  33.2500 Du        
  26221 ****        33.7500  14.2500  33.5000 Du        
  26222 ****        33.7500  14.2500  33.7500 Du        
  26223 ****        33.7500  14.2500  34.0000 Du        
  26224 ****        33.7500  14.5000  33.0000 Du        
  26225 ****        33.7500  14.5000  33.2500 Du        
  26226 ****        33.7500  14.5000  33.5000 Du        
  26227 ****        33.7500  14.5000  33.7500 Du        
  26228 ****        33.7500  14.7500  33.0000 Du        
  26229 ****        33.7500  14.7500  33.2500 Du        
  26230 ****        33.7500  14.7500  33.5000 Du        
  26231 ****        33.7500  14.7500  33.7500 Du        
  26232 ****        33.7500  14.7500  42.2500 Du        
  26233 ****        33.7500  14.7500  42.5000 Du        
  26234 ****        33.7500  15.0000  33.0000 Du        
  26235 ****        33.7500  15.0000  33.2500 Du        
  26236 ****        33.7500  15.0000  33.5000 Du        
  26237 ****        33.7500  15.0000  42.2500 Du        
  26238 ****        33.7500  15.0000  42.5000 Du        
  26239 ****        33.7500  15.0000  42.7500 Du        
  26240 ****        33.7500  15.2500  33.2500 Du        
  26241 ****        33.7500  15.2500  42.0000 Du        
  26242 ****        33.7500  15.2500  42.2500 Du        
  26243 ****        33.7500  15.2500  42.5000 Du        
  26244 ****        34.0000 -14.7500  43.5000 Du        
  26245 ****        34.0000 -14.7500  43.7500 Du        
  26246 ****        34.0000 -14.7500  44.0000 Du        
  26247 ****        34.0000 -14.5000  42.7500 Du        
  26248 ****        34.0000 -14.5000  43.0000 Du        
  26249 ****        34.0000 -14.5000  43.2500 Du        
  26250 ****        34.0000 -14.5000  43.5000 Du        
  26251 ****        34.0000 -14.5000  43.7500 Du        
  26252 ****        34.0000 -14.5000  44.0000 Du        
  26253 ****        34.0000 -14.5000  44.2500 Du        
  26254 ****        34.0000 -14.2500  42.5000 Du        
  26255 ****        34.0000 -14.2500  42.7500 Du        
  26256 ****        34.0000 -14.2500  43.0000 Du        
  26257 ****        34.0000 -14.2500  43.2500 Du        
  26258 ****        34.0000 -14.2500  43.5000 Du        
  26259 ****        34.0000 -14.2500  43.7500 Du        
  26260 ****        34.0000 -14.2500  44.0000 Du        
  26261 ****        34.0000 -14.2500  44.2500 Du        
  26262 ****        34.0000 -14.0000  42.5000 Du        
  26263 ****        34.0000 -14.0000  42.7500 Du        
  26264 ****        34.0000 -14.0000  43.0000 Du        
  26265 ****        34.0000 -14.0000  43.2500 Du        
  26266 ****        34.0000 -14.0000  43.5000 Du        
  26267 ****        34.0000 -14.0000  43.7500 Du        
  26268 ****        34.0000 -14.0000  44.0000 Du        
  26269 ****        34.0000 -13.7500  42.5000 Du        
  26270 ****        34.0000 -13.7500  42.7500 Du        
  26271 ****        34.0000 -13.7500  43.0000 Du        
  26272 ****        34.0000 -13.7500  43.2500 Du        
  26273 ****        34.0000 -13.7500  43.5000 Du        
  26274 ****        34.0000 -13.7500  43.7500 Du        
  26275 ****        34.0000 -13.5000  42.5000 Du        
  26276 ****        34.0000 -13.5000  42.7500 Du        
  26277 ****        34.0000 -13.5000  43.0000 Du        
  26278 ****        34.0000 -13.5000  43.2500 Du        
  26279 ****        34.0000 -13.5000  43.5000 Du        
  26280 ****        34.0000 -13.5000  43.7500 Du        
  26281 ****        34.0000 -13.2500  42.5000 Du        
  26282 ****        34.0000 -13.2500  42.7500 Du        
  26283 ****        34.0000 -13.2500  43.0000 Du        
  26284 ****        34.0000 -13.2500  43.2500 Du        
  26285 ****        34.0000 -13.2500  43.5000 Du        
  26286 ****        34.0000 -13.0000  42.7500 Du        
  26287 ****        34.0000 -13.0000  43.0000 Du        
  26288 ****        34.0000 -13.0000  43.2500 Du        
  26289 ****        34.0000  12.7500  33.7500 Du        
  26290 ****        34.0000  12.7500  34.0000 Du        
  26291 ****        34.0000  13.0000  33.7500 Du        
  26292 ****        34.0000  13.0000  34.0000 Du        
  26293 ****        34.0000  13.2500  33.5000 Du        
  26294 ****        34.0000  13.2500  33.7500 Du        
  26295 ****        34.0000  13.5000  33.2500 Du        
  26296 ****        34.0000  13.5000  33.5000 Du        
  26297 ****        34.0000  13.5000  33.7500 Du        
  26298 ****        34.0000  13.7500  33.2500 Du        
  26299 ****        34.0000  13.7500  33.5000 Du        
  26300 ****        34.0000  13.7500  33.7500 Du        
  26301 ****        34.0000  14.0000  33.0000 Du        
  26302 ****        34.0000  14.0000  33.2500 Du        
  26303 ****        34.0000  14.0000  33.5000 Du        
  26304 ****        34.0000  14.0000  33.7500 Du        
  26305 ****        34.0000  14.0000  34.0000 Du        
  26306 ****        34.0000  14.2500  33.0000 Du        
  26307 ****        34.0000  14.2500  33.2500 Du        
  26308 ****        34.0000  14.2500  33.5000 Du        
  26309 ****        34.0000  14.2500  33.7500 Du        
  26310 ****        34.0000  14.2500  34.0000 Du        
  26311 ****        34.0000  14.5000  33.0000 Du        
  26312 ****        34.0000  14.5000  33.2500 Du        
  26313 ****        34.0000  14.5000  33.5000 Du        
  26314 ****        34.0000  14.5000  33.7500 Du        
  26315 ****        34.0000  14.5000  42.2500 Du        
  26316 ****        34.0000  14.7500  33.0000 Du        
  26317 ****        34.0000  14.7500  33.2500 Du        
  26318 ****        34.0000  14.7500  33.5000 Du        
  26319 ****        34.0000  14.7500  33.7500 Du        
  26320 ****        34.0000  14.7500  42.0000 Du        
  26321 ****        34.0000  14.7500  42.2500 Du        
  26322 ****        34.0000  14.7500  42.5000 Du        
  26323 ****        34.0000  15.0000  33.0000 Du        
  26324 ****        34.0000  15.0000  33.2500 Du        
  26325 ****        34.0000  15.0000  33.5000 Du        
  26326 ****        34.0000  15.0000  33.7500 Du        
  26327 ****        34.0000  15.0000  42.0000 Du        
  26328 ****        34.0000  15.0000  42.2500 Du        
  26329 ****        34.0000  15.0000  42.5000 Du        
  26330 ****        34.0000  15.0000  42.7500 Du        
  26331 ****        34.0000  15.2500  33.0000 Du        
  26332 ****        34.0000  15.2500  33.2500 Du        
  26333 ****        34.0000  15.2500  33.5000 Du        
  26334 ****        34.0000  15.2500  42.0000 Du        
  26335 ****        34.0000  15.2500  42.2500 Du        
  26336 ****        34.0000  15.2500  42.5000 Du        
  26337 ****        34.0000  17.7500  29.2500 Du        
  26338 ****        34.0000  18.0000  29.0000 Du        
  26339 ****        34.0000  18.0000  29.2500 Du        
  26340 ****        34.0000  18.2500  29.0000 Du        
  26341 ****        34.0000  18.2500  29.2500 Du        
  26342 ****        34.2500 -14.7500  43.7500 Du        
  26343 ****        34.2500 -14.7500  44.0000 Du        
  26344 ****        34.2500 -14.5000  43.0000 Du        
  26345 ****        34.2500 -14.5000  43.2500 Du        
  26346 ****        34.2500 -14.5000  43.5000 Du        
  26347 ****        34.2500 -14.5000  43.7500 Du        
  26348 ****        34.2500 -14.5000  44.0000 Du        
  26349 ****        34.2500 -14.2500  42.5000 Du        
  26350 ****        34.2500 -14.2500  42.7500 Du        
  26351 ****        34.2500 -14.2500  43.0000 Du        
  26352 ****        34.2500 -14.2500  43.2500 Du        
  26353 ****        34.2500 -14.2500  43.5000 Du        
  26354 ****        34.2500 -14.2500  43.7500 Du        
  26355 ****        34.2500 -14.2500  44.0000 Du        
  26356 ****        34.2500 -14.0000  42.5000 Du        
  26357 ****        34.2500 -14.0000  42.7500 Du        
  26358 ****        34.2500 -14.0000  43.0000 Du        
  26359 ****        34.2500 -14.0000  43.2500 Du        
  26360 ****        34.2500 -14.0000  43.5000 Du        
  26361 ****        34.2500 -14.0000  43.7500 Du        
  26362 ****        34.2500 -13.7500  42.5000 Du        
  26363 ****        34.2500 -13.7500  42.7500 Du        
  26364 ****        34.2500 -13.7500  43.0000 Du        
  26365 ****        34.2500 -13.7500  43.2500 Du        
  26366 ****        34.2500 -13.7500  43.5000 Du        
  26367 ****        34.2500 -13.5000  42.5000 Du        
  26368 ****        34.2500 -13.5000  42.7500 Du        
  26369 ****        34.2500 -13.5000  43.0000 Du        
  26370 ****        34.2500 -13.5000  43.2500 Du        
  26371 ****        34.2500 -13.5000  43.5000 Du        
  26372 ****        34.2500 -13.2500  42.5000 Du        
  26373 ****        34.2500 -13.2500  42.7500 Du        
  26374 ****        34.2500 -13.2500  43.0000 Du        
  26375 ****        34.2500 -13.2500  43.2500 Du        
  26376 ****        34.2500 -13.0000  42.7500 Du        
  26377 ****        34.2500 -13.0000  43.0000 Du        
  26378 ****        34.2500  12.2500  33.7500 Du        
  26379 ****        34.2500  12.5000  33.7500 Du        
  26380 ****        34.2500  12.7500  33.7500 Du        
  26381 ****        34.2500  13.0000  33.5000 Du        
  26382 ****        34.2500  13.0000  33.7500 Du        
  26383 ****        34.2500  13.2500  33.5000 Du        
  26384 ****        34.2500  13.2500  33.7500 Du        
  26385 ****        34.2500  13.5000  33.2500 Du        
  26386 ****        34.2500  13.5000  33.5000 Du        
  26387 ****        34.2500  13.5000  33.7500 Du        
  26388 ****        34.2500  13.7500  33.2500 Du        
  26389 ****        34.2500  13.7500  33.5000 Du        
  26390 ****        34.2500  13.7500  33.7500 Du        
  26391 ****        34.2500  14.0000  33.2500 Du        
  26392 ****        34.2500  14.0000  33.5000 Du        
  26393 ****        34.2500  14.0000  33.7500 Du        
  26394 ****        34.2500  14.2500  33.0000 Du        
  26395 ****        34.2500  14.2500  33.2500 Du        
  26396 ****        34.2500  14.2500  33.5000 Du        
  26397 ****        34.2500  14.2500  33.7500 Du        
  26398 ****        34.2500  14.5000  33.0000 Du        
  26399 ****        34.2500  14.5000  33.2500 Du        
  26400 ****        34.2500  14.5000  33.5000 Du        
  26401 ****        34.2500  14.5000  33.7500 Du        
  26402 ****        34.2500  14.5000  34.0000 Du        
  26403 ****        34.2500  14.5000  42.0000 Du        
  26404 ****        34.2500  14.5000  42.2500 Du        
  26405 ****        34.2500  14.7500  33.0000 Du        
  26406 ****        34.2500  14.7500  33.2500 Du        
  26407 ****        34.2500  14.7500  33.5000 Du        
  26408 ****        34.2500  14.7500  33.7500 Du        
  26409 ****        34.2500  14.7500  34.0000 Du        
  26410 ****        34.2500  14.7500  42.0000 Du        
  26411 ****        34.2500  14.7500  42.2500 Du        
  26412 ****        34.2500  14.7500  42.5000 Du        
  26413 ****        34.2500  15.0000  33.0000 Du        
  26414 ****        34.2500  15.0000  33.2500 Du        
  26415 ****        34.2500  15.0000  33.5000 Du        
  26416 ****        34.2500  15.0000  33.7500 Du        
  26417 ****        34.2500  15.0000  42.0000 Du        
  26418 ****        34.2500  15.0000  42.2500 Du        
  26419 ****        34.2500  15.0000  42.5000 Du        
  26420 ****        34.2500  15.2500  33.0000 Du        
  26421 ****        34.2500  15.2500  33.2500 Du        
  26422 ****        34.2500  15.2500  33.5000 Du        
  26423 ****        34.2500  15.2500  33.7500 Du        
  26424 ****        34.2500  15.2500  41.7500 Du        
  26425 ****        34.2500  15.2500  42.0000 Du        
  26426 ****        34.2500  15.2500  42.2500 Du        
  26427 ****        34.2500  15.2500  42.5000 Du        
  26428 ****        34.2500  15.5000  33.5000 Du        
  26429 ****        34.2500  15.5000  41.7500 Du        
  26430 ****        34.2500  15.5000  42.0000 Du        
  26431 ****        34.2500  17.7500  29.2500 Du        
  26432 ****        34.2500  18.0000  28.7500 Du        
  26433 ****        34.2500  18.0000  29.0000 Du        
  26434 ****        34.2500  18.0000  29.2500 Du        
  26435 ****        34.2500  18.2500  29.0000 Du        
  26436 ****        34.5000 -14.5000  43.5000 Du        
  26437 ****        34.5000 -14.5000  43.7500 Du        
  26438 ****        34.5000 -14.5000  44.0000 Du        
  26439 ****        34.5000 -14.2500  43.0000 Du        
  26440 ****        34.5000 -14.2500  43.2500 Du        
  26441 ****        34.5000 -14.2500  43.5000 Du        
  26442 ****        34.5000 -14.2500  43.7500 Du        
  26443 ****        34.5000 -14.0000  42.5000 Du        
  26444 ****        34.5000 -14.0000  42.7500 Du        
  26445 ****        34.5000 -14.0000  43.0000 Du        
  26446 ****        34.5000 -14.0000  43.2500 Du        
  26447 ****        34.5000 -14.0000  43.5000 Du        
  26448 ****        34.5000 -13.7500  42.5000 Du        
  26449 ****        34.5000 -13.7500  42.7500 Du        
  26450 ****        34.5000 -13.7500  43.0000 Du        
  26451 ****        34.5000 -13.7500  43.2500 Du        
  26452 ****        34.5000 -13.5000  42.5000 Du        
  26453 ****        34.5000 -13.5000  42.7500 Du        
  26454 ****        34.5000 -13.5000  43.0000 Du        
  26455 ****        34.5000 -13.5000  43.2500 Du        
  26456 ****        34.5000 -13.2500  42.5000 Du        
  26457 ****        34.5000 -13.2500  42.7500 Du        
  26458 ****        34.5000 -13.2500  43.0000 Du        
  26459 ****        34.5000  13.5000  33.5000 Du        
  26460 ****        34.5000  14.2500  42.0000 Du        
  26461 ****        34.5000  14.5000  33.0000 Du        
  26462 ****        34.5000  14.5000  33.2500 Du        
  26463 ****        34.5000  14.5000  33.5000 Du        
  26464 ****        34.5000  14.5000  33.7500 Du        
  26465 ****        34.5000  14.5000  41.7500 Du        
  26466 ****        34.5000  14.5000  42.0000 Du        
  26467 ****        34.5000  14.5000  42.2500 Du        
  26468 ****        34.5000  14.7500  33.0000 Du        
  26469 ****        34.5000  14.7500  33.2500 Du        
  26470 ****        34.5000  14.7500  33.5000 Du        
  26471 ****        34.5000  14.7500  33.7500 Du        
  26472 ****        34.5000  14.7500  41.7500 Du        
  26473 ****        34.5000  14.7500  42.0000 Du        
  26474 ****        34.5000  14.7500  42.2500 Du        
  26475 ****        34.5000  14.7500  42.5000 Du        
  26476 ****        34.5000  15.0000  33.2500 Du        
  26477 ****        34.5000  15.0000  33.5000 Du        
  26478 ****        34.5000  15.0000  33.7500 Du        
  26479 ****        34.5000  15.0000  41.7500 Du        
  26480 ****        34.5000  15.0000  42.0000 Du        
  26481 ****        34.5000  15.0000  42.2500 Du        
  26482 ****        34.5000  15.0000  42.5000 Du        
  26483 ****        34.5000  15.2500  33.2500 Du        
  26484 ****        34.5000  15.2500  33.5000 Du        
  26485 ****        34.5000  15.2500  33.7500 Du        
  26486 ****        34.5000  15.2500  41.5000 Du        
  26487 ****        34.5000  15.2500  41.7500 Du        
  26488 ****        34.5000  15.2500  42.0000 Du        
  26489 ****        34.5000  15.2500  42.2500 Du        
  26490 ****        34.5000  15.2500  42.5000 Du        
  26491 ****        34.5000  15.5000  33.5000 Du        
  26492 ****        34.5000  15.5000  33.7500 Du        
  26493 ****        34.5000  15.5000  41.5000 Du        
  26494 ****        34.5000  15.5000  41.7500 Du        
  26495 ****        34.5000  15.5000  42.0000 Du        
  26496 ****        34.5000  15.5000  42.2500 Du        
  26497 ****        34.5000  15.7500  33.5000 Du        
  26498 ****        34.7500 -14.2500  42.7500 Du        
  26499 ****        34.7500 -14.2500  43.0000 Du        
  26500 ****        34.7500 -14.2500  43.5000 Du        
  26501 ****        34.7500 -14.0000  42.5000 Du        
  26502 ****        34.7500 -14.0000  42.7500 Du        
  26503 ****        34.7500 -14.0000  43.0000 Du        
  26504 ****        34.7500 -14.0000  43.2500 Du        
  26505 ****        34.7500 -13.7500  42.5000 Du        
  26506 ****        34.7500 -13.7500  42.7500 Du        
  26507 ****        34.7500 -13.7500  43.0000 Du        
  26508 ****        34.7500 -13.5000  42.5000 Du        
  26509 ****        34.7500 -13.5000  42.7500 Du        
  26510 ****        34.7500 -13.5000  43.0000 Du        
  26511 ****        34.7500 -13.2500  42.5000 Du        
  26512 ****        34.7500 -13.2500  42.7500 Du        
  26513 ****        34.7500  14.0000  41.7500 Du        
  26514 ****        34.7500  14.2500  41.7500 Du        
  26515 ****        34.7500  14.2500  42.0000 Du        
  26516 ****        34.7500  14.5000  41.5000 Du        
  26517 ****        34.7500  14.5000  41.7500 Du        
  26518 ****        34.7500  14.5000  42.0000 Du        
  26519 ****        34.7500  14.5000  42.2500 Du        
  26520 ****        34.7500  14.7500  33.2500 Du        
  26521 ****        34.7500  14.7500  33.5000 Du        
  26522 ****        34.7500  14.7500  33.7500 Du        
  26523 ****        34.7500  14.7500  41.5000 Du        
  26524 ****        34.7500  14.7500  41.7500 Du        
  26525 ****        34.7500  14.7500  42.0000 Du        
  26526 ****        34.7500  14.7500  42.2500 Du        
  26527 ****        34.7500  15.0000  33.2500 Du        
  26528 ****        34.7500  15.0000  33.5000 Du        
  26529 ****        34.7500  15.0000  33.7500 Du        
  26530 ****        34.7500  15.0000  41.5000 Du        
  26531 ****        34.7500  15.0000  41.7500 Du        
  26532 ****        34.7500  15.0000  42.0000 Du        
  26533 ****        34.7500  15.0000  42.2500 Du        
  26534 ****        34.7500  15.0000  42.5000 Du        
  26535 ****        34.7500  15.2500  33.5000 Du        
  26536 ****        34.7500  15.2500  33.7500 Du        
  26537 ****        34.7500  15.2500  41.2500 Du        
  26538 ****        34.7500  15.2500  41.5000 Du        
  26539 ****        34.7500  15.2500  41.7500 Du        
  26540 ****        34.7500  15.2500  42.0000 Du        
  26541 ****        34.7500  15.2500  42.2500 Du        
  26542 ****        34.7500  15.2500  42.5000 Du        
  26543 ****        34.7500  15.5000  33.5000 Du        
  26544 ****        34.7500  15.5000  33.7500 Du        
  26545 ****        34.7500  15.5000  41.2500 Du        
  26546 ****        34.7500  15.5000  41.5000 Du        
  26547 ****        34.7500  15.5000  41.7500 Du        
  26548 ****        34.7500  15.5000  42.0000 Du        
  26549 ****        34.7500  15.5000  42.2500 Du        
  26550 ****        34.7500  15.7500  33.2500 Du        
  26551 ****        34.7500  15.7500  33.5000 Du        
  26552 ****        34.7500  15.7500  33.7500 Du        
  26553 ****        34.7500  15.7500  41.2500 Du        
  26554 ****        34.7500  15.7500  41.5000 Du        
  26555 ****        34.7500  15.7500  41.7500 Du        
  26556 ****        34.7500  16.0000  33.2500 Du        
  26557 ****        34.7500  16.0000  33.5000 Du        
  26558 ****        34.7500  16.0000  33.7500 Du        
  26559 ****        35.0000 -14.0000  42.5000 Du        
  26560 ****        35.0000 -14.0000  42.7500 Du        
  26561 ****        35.0000 -14.0000  43.0000 Du        
  26562 ****        35.0000 -13.7500  42.5000 Du        
  26563 ****        35.0000 -13.7500  42.7500 Du        
  26564 ****        35.0000 -13.5000  42.5000 Du        
  26565 ****        35.0000 -13.5000  42.7500 Du        
  26566 ****        35.0000  13.7500  41.7500 Du        
  26567 ****        35.0000  14.0000  41.5000 Du        
  26568 ****        35.0000  14.0000  41.7500 Du        
  26569 ****        35.0000  14.2500  41.5000 Du        
  26570 ****        35.0000  14.2500  41.7500 Du        
  26571 ****        35.0000  14.2500  42.0000 Du        
  26572 ****        35.0000  14.5000  41.2500 Du        
  26573 ****        35.0000  14.5000  41.5000 Du        
  26574 ****        35.0000  14.5000  41.7500 Du        
  26575 ****        35.0000  14.5000  42.0000 Du        
  26576 ****        35.0000  14.7500  41.2500 Du        
  26577 ****        35.0000  14.7500  41.5000 Du        
  26578 ****        35.0000  14.7500  41.7500 Du        
  26579 ****        35.0000  14.7500  42.0000 Du        
  26580 ****        35.0000  14.7500  42.2500 Du        
  26581 ****        35.0000  15.0000  41.2500 Du        
  26582 ****        35.0000  15.0000  41.5000 Du        
  26583 ****        35.0000  15.0000  41.7500 Du        
  26584 ****        35.0000  15.0000  42.0000 Du        
  26585 ****        35.0000  15.0000  42.2500 Du        
  26586 ****        35.0000  15.0000  42.5000 Du        
  26587 ****        35.0000  15.2500  33.5000 Du        
  26588 ****        35.0000  15.2500  33.7500 Du        
  26589 ****        35.0000  15.2500  41.2500 Du        
  26590 ****        35.0000  15.2500  41.5000 Du        
  26591 ****        35.0000  15.2500  41.7500 Du        
  26592 ****        35.0000  15.2500  42.0000 Du        
  26593 ****        35.0000  15.2500  42.2500 Du        
  26594 ****        35.0000  15.2500  42.5000 Du        
  26595 ****        35.0000  15.5000  33.5000 Du        
  26596 ****        35.0000  15.5000  33.7500 Du        
  26597 ****        35.0000  15.5000  41.2500 Du        
  26598 ****        35.0000  15.5000  41.5000 Du        
  26599 ****        35.0000  15.5000  41.7500 Du        
  26600 ****        35.0000  15.5000  42.0000 Du        
  26601 ****        35.0000  15.5000  42.2500 Du        
  26602 ****        35.0000  15.7500  33.2500 Du        
  26603 ****        35.0000  15.7500  33.5000 Du        
  26604 ****        35.0000  15.7500  33.7500 Du        
  26605 ****        35.0000  15.7500  34.0000 Du        
  26606 ****        35.0000  15.7500  41.2500 Du        
  26607 ****        35.0000  15.7500  41.5000 Du        
  26608 ****        35.0000  15.7500  41.7500 Du        
  26609 ****        35.0000  15.7500  42.0000 Du        
  26610 ****        35.0000  16.0000  33.5000 Du        
  26611 ****        35.0000  16.0000  33.7500 Du        
  26612 ****        35.0000  16.0000  34.0000 Du        
  26613 ****        35.0000  16.2500  33.5000 Du        
  26614 ****        35.0000  16.2500  33.7500 Du        
  26615 ****        35.0000  16.2500  34.0000 Du        
  26616 ****        35.2500  13.7500  41.5000 Du        
  26617 ****        35.2500  13.7500  41.7500 Du        
  26618 ****        35.2500  14.0000  41.2500 Du        
  26619 ****        35.2500  14.0000  41.5000 Du        
  26620 ****        35.2500  14.0000  41.7500 Du        
  26621 ****        35.2500  14.2500  41.2500 Du        
  26622 ****        35.2500  14.2500  41.5000 Du        
  26623 ****        35.2500  14.2500  41.7500 Du        
  26624 ****        35.2500  14.2500  42.0000 Du        
  26625 ****        35.2500  14.5000  41.2500 Du        
  26626 ****        35.2500  14.5000  41.5000 Du        
  26627 ****        35.2500  14.5000  41.7500 Du        
  26628 ****        35.2500  14.5000  42.0000 Du        
  26629 ****        35.2500  14.7500  41.0000 Du        
  26630 ****        35.2500  14.7500  41.2500 Du        
  26631 ****        35.2500  14.7500  41.5000 Du        
  26632 ****        35.2500  14.7500  41.7500 Du        
  26633 ****        35.2500  14.7500  42.0000 Du        
  26634 ****        35.2500  14.7500  42.2500 Du        
  26635 ****        35.2500  15.0000  41.0000 Du        
  26636 ****        35.2500  15.0000  41.2500 Du        
  26637 ****        35.2500  15.0000  41.5000 Du        
  26638 ****        35.2500  15.0000  41.7500 Du        
  26639 ****        35.2500  15.0000  42.0000 Du        
  26640 ****        35.2500  15.0000  42.2500 Du        
  26641 ****        35.2500  15.0000  42.5000 Du        
  26642 ****        35.2500  15.2500  41.0000 Du        
  26643 ****        35.2500  15.2500  41.2500 Du        
  26644 ****        35.2500  15.2500  41.5000 Du        
  26645 ****        35.2500  15.2500  41.7500 Du        
  26646 ****        35.2500  15.2500  42.0000 Du        
  26647 ****        35.2500  15.2500  42.2500 Du        
  26648 ****        35.2500  15.2500  42.5000 Du        
  26649 ****        35.2500  15.5000  33.5000 Du        
  26650 ****        35.2500  15.5000  41.0000 Du        
  26651 ****        35.2500  15.5000  41.2500 Du        
  26652 ****        35.2500  15.5000  41.5000 Du        
  26653 ****        35.2500  15.5000  41.7500 Du        
  26654 ****        35.2500  15.5000  42.0000 Du        
  26655 ****        35.2500  15.5000  42.2500 Du        
  26656 ****        35.2500  15.5000  42.5000 Du        
  26657 ****        35.2500  15.7500  33.5000 Du        
  26658 ****        35.2500  15.7500  33.7500 Du        
  26659 ****        35.2500  15.7500  41.2500 Du        
  26660 ****        35.2500  15.7500  41.5000 Du        
  26661 ****        35.2500  15.7500  41.7500 Du        
  26662 ****        35.2500  15.7500  42.0000 Du        
  26663 ****        35.2500  16.0000  33.5000 Du        
  26664 ****        35.2500  16.0000  33.7500 Du        
  26665 ****        35.2500  16.0000  34.0000 Du        
  26666 ****        35.2500  16.0000  41.2500 Du        
  26667 ****        35.2500  16.0000  41.5000 Du        
  26668 ****        35.2500  16.2500  33.5000 Du        
  26669 ****        35.2500  16.2500  33.7500 Du        
  26670 ****        35.2500  16.2500  34.0000 Du        
  26671 ****        35.2500  16.2500  34.2500 Du        
  26672 ****        35.2500  16.5000  33.5000 Du        
  26673 ****        35.2500  16.5000  33.7500 Du        
  26674 ****        35.2500  16.5000  34.0000 Du        
  26675 ****        35.2500  16.7500  33.7500 Du        
  26676 ****        35.2500  16.7500  34.0000 Du        
  26677 ****        35.2500  16.7500  34.2500 Du        
  26678 ****        35.2500  17.0000  34.0000 Du        
  26679 ****        35.5000  13.5000  41.5000 Du        
  26680 ****        35.5000  13.7500  41.5000 Du        
  26681 ****        35.5000  13.7500  41.7500 Du        
  26682 ****        35.5000  14.0000  41.2500 Du        
  26683 ****        35.5000  14.0000  41.5000 Du        
  26684 ****        35.5000  14.0000  41.7500 Du        
  26685 ****        35.5000  14.2500  41.2500 Du        
  26686 ****        35.5000  14.2500  41.5000 Du        
  26687 ****        35.5000  14.2500  41.7500 Du        
  26688 ****        35.5000  14.2500  42.0000 Du        
  26689 ****        35.5000  14.5000  41.0000 Du        
  26690 ****        35.5000  14.5000  41.2500 Du        
  26691 ****        35.5000  14.5000  41.5000 Du        
  26692 ****        35.5000  14.5000  41.7500 Du        
  26693 ****        35.5000  14.5000  42.0000 Du        
  26694 ****        35.5000  14.7500  41.0000 Du        
  26695 ****        35.5000  14.7500  41.2500 Du        
  26696 ****        35.5000  14.7500  41.5000 Du        
  26697 ****        35.5000  14.7500  41.7500 Du        
  26698 ****        35.5000  14.7500  42.0000 Du        
  26699 ****        35.5000  14.7500  42.2500 Du        
  26700 ****        35.5000  15.0000  41.0000 Du        
  26701 ****        35.5000  15.0000  41.2500 Du        
  26702 ****        35.5000  15.0000  41.5000 Du        
  26703 ****        35.5000  15.0000  41.7500 Du        
  26704 ****        35.5000  15.0000  42.0000 Du        
  26705 ****        35.5000  15.0000  42.2500 Du        
  26706 ****        35.5000  15.2500  41.0000 Du        
  26707 ****        35.5000  15.2500  41.2500 Du        
  26708 ****        35.5000  15.2500  41.5000 Du        
  26709 ****        35.5000  15.2500  41.7500 Du        
  26710 ****        35.5000  15.2500  42.0000 Du        
  26711 ****        35.5000  15.2500  42.2500 Du        
  26712 ****        35.5000  15.2500  42.5000 Du        
  26713 ****        35.5000  15.5000  41.0000 Du        
  26714 ****        35.5000  15.5000  41.2500 Du        
  26715 ****        35.5000  15.5000  41.5000 Du        
  26716 ****        35.5000  15.5000  41.7500 Du        
  26717 ****        35.5000  15.5000  42.0000 Du        
  26718 ****        35.5000  15.5000  42.2500 Du        
  26719 ****        35.5000  15.5000  42.5000 Du        
  26720 ****        35.5000  15.7500  41.2500 Du        
  26721 ****        35.5000  15.7500  41.5000 Du        
  26722 ****        35.5000  15.7500  41.7500 Du        
  26723 ****        35.5000  15.7500  42.0000 Du        
  26724 ****        35.5000  15.7500  42.2500 Du        
  26725 ****        35.5000  16.0000  33.5000 Du        
  26726 ****        35.5000  16.0000  33.7500 Du        
  26727 ****        35.5000  16.0000  34.0000 Du        
  26728 ****        35.5000  16.0000  41.2500 Du        
  26729 ****        35.5000  16.0000  41.5000 Du        
  26730 ****        35.5000  16.0000  41.7500 Du        
  26731 ****        35.5000  16.2500  33.5000 Du        
  26732 ****        35.5000  16.2500  33.7500 Du        
  26733 ****        35.5000  16.2500  34.0000 Du        
  26734 ****        35.5000  16.2500  34.2500 Du        
  26735 ****        35.5000  16.2500  34.5000 Du        
  26736 ****        35.5000  16.5000  33.5000 Du        
  26737 ****        35.5000  16.5000  33.7500 Du        
  26738 ****        35.5000  16.5000  34.0000 Du        
  26739 ****        35.5000  16.5000  34.2500 Du        
  26740 ****        35.5000  16.5000  34.5000 Du        
  26741 ****        35.5000  16.7500  33.7500 Du        
  26742 ****        35.5000  16.7500  34.0000 Du        
  26743 ****        35.5000  16.7500  34.2500 Du        
  26744 ****        35.5000  16.7500  34.5000 Du        
  26745 ****        35.5000  16.7500  34.7500 Du        
  26746 ****        35.5000  17.0000  33.7500 Du        
  26747 ****        35.5000  17.0000  34.0000 Du        
  26748 ****        35.5000  17.0000  34.2500 Du        
  26749 ****        35.5000  17.0000  34.5000 Du        
  26750 ****        35.5000  17.0000  34.7500 Du        
  26751 ****        35.5000  17.2500  34.0000 Du        
  26752 ****        35.5000  17.2500  34.2500 Du        
  26753 ****        35.5000  17.2500  34.5000 Du        
  26754 ****        35.5000  17.2500  34.7500 Du        
  26755 ****        35.7500   6.5000  47.7500 Du        
  26756 ****        35.7500   6.7500  47.5000 Du        
  26757 ****        35.7500   6.7500  47.7500 Du        
  26758 ****        35.7500   7.0000  47.2500 Du        
  26759 ****        35.7500   7.0000  47.5000 Du        
  26760 ****        35.7500   7.0000  47.7500 Du        
  26761 ****        35.7500   7.2500  47.2500 Du        
  26762 ****        35.7500   7.2500  47.5000 Du        
  26763 ****        35.7500   7.2500  47.7500 Du        
  26764 ****        35.7500   7.5000  47.2500 Du        
  26765 ****        35.7500   7.5000  47.5000 Du        
  26766 ****        35.7500   7.5000  47.7500 Du        
  26767 ****        35.7500   7.7500  47.0000 Du        
  26768 ****        35.7500   7.7500  47.2500 Du        
  26769 ****        35.7500   7.7500  47.5000 Du        
  26770 ****        35.7500   7.7500  47.7500 Du        
  26771 ****        35.7500   8.0000  47.0000 Du        
  26772 ****        35.7500   8.0000  47.2500 Du        
  26773 ****        35.7500   8.0000  47.5000 Du        
  26774 ****        35.7500   8.0000  47.7500 Du        
  26775 ****        35.7500   8.2500  47.2500 Du        
  26776 ****        35.7500   8.2500  47.5000 Du        
  26777 ****        35.7500   8.2500  47.7500 Du        
  26778 ****        35.7500   8.5000  47.5000 Du        
  26779 ****        35.7500   8.5000  47.7500 Du        
  26780 ****        35.7500   9.5000  40.5000 Du        
  26781 ****        35.7500   9.5000  40.7500 Du        
  26782 ****        35.7500   9.7500  40.7500 Du        
  26783 ****        35.7500  13.7500  41.2500 Du        
  26784 ****        35.7500  13.7500  41.5000 Du        
  26785 ****        35.7500  13.7500  41.7500 Du        
  26786 ****        35.7500  14.0000  41.2500 Du        
  26787 ****        35.7500  14.0000  41.5000 Du        
  26788 ****        35.7500  14.0000  41.7500 Du        
  26789 ****        35.7500  14.2500  41.0000 Du        
  26790 ****        35.7500  14.2500  41.2500 Du        
  26791 ****        35.7500  14.2500  41.5000 Du        
  26792 ****        35.7500  14.2500  41.7500 Du        
  26793 ****        35.7500  14.2500  42.0000 Du        
  26794 ****        35.7500  14.5000  41.0000 Du        
  26795 ****        35.7500  14.5000  41.2500 Du        
  26796 ****        35.7500  14.5000  41.5000 Du        
  26797 ****        35.7500  14.5000  41.7500 Du        
  26798 ****        35.7500  14.5000  42.0000 Du        
  26799 ****        35.7500  14.7500  41.0000 Du        
  26800 ****        35.7500  14.7500  41.2500 Du        
  26801 ****        35.7500  14.7500  41.5000 Du        
  26802 ****        35.7500  14.7500  41.7500 Du        
  26803 ****        35.7500  14.7500  42.0000 Du        
  26804 ****        35.7500  14.7500  42.2500 Du        
  26805 ****        35.7500  15.0000  41.0000 Du        
  26806 ****        35.7500  15.0000  41.2500 Du        
  26807 ****        35.7500  15.0000  41.5000 Du        
  26808 ****        35.7500  15.0000  41.7500 Du        
  26809 ****        35.7500  15.0000  42.0000 Du        
  26810 ****        35.7500  15.0000  42.2500 Du        
  26811 ****        35.7500  15.2500  41.0000 Du        
  26812 ****        35.7500  15.2500  41.2500 Du        
  26813 ****        35.7500  15.2500  41.5000 Du        
  26814 ****        35.7500  15.2500  41.7500 Du        
  26815 ****        35.7500  15.2500  42.0000 Du        
  26816 ****        35.7500  15.2500  42.2500 Du        
  26817 ****        35.7500  15.2500  42.5000 Du        
  26818 ****        35.7500  15.5000  41.2500 Du        
  26819 ****        35.7500  15.5000  41.5000 Du        
  26820 ****        35.7500  15.5000  41.7500 Du        
  26821 ****        35.7500  15.5000  42.0000 Du        
  26822 ****        35.7500  15.5000  42.2500 Du        
  26823 ****        35.7500  15.5000  42.5000 Du        
  26824 ****        35.7500  15.7500  41.2500 Du        
  26825 ****        35.7500  15.7500  41.5000 Du        
  26826 ****        35.7500  15.7500  41.7500 Du        
  26827 ****        35.7500  15.7500  42.0000 Du        
  26828 ****        35.7500  15.7500  42.2500 Du        
  26829 ****        35.7500  16.2500  33.5000 Du        
  26830 ****        35.7500  16.2500  33.7500 Du        
  26831 ****        35.7500  16.2500  34.0000 Du        
  26832 ****        35.7500  16.2500  34.2500 Du        
  26833 ****        35.7500  16.2500  34.5000 Du        
  26834 ****        35.7500  16.5000  33.5000 Du        
  26835 ****        35.7500  16.5000  33.7500 Du        
  26836 ****        35.7500  16.5000  34.0000 Du        
  26837 ****        35.7500  16.5000  34.2500 Du        
  26838 ****        35.7500  16.5000  34.5000 Du        
  26839 ****        35.7500  16.5000  34.7500 Du        
  26840 ****        35.7500  16.7500  33.7500 Du        
  26841 ****        35.7500  16.7500  34.0000 Du        
  26842 ****        35.7500  16.7500  34.2500 Du        
  26843 ****        35.7500  16.7500  34.5000 Du        
  26844 ****        35.7500  16.7500  34.7500 Du        
  26845 ****        35.7500  16.7500  35.0000 Du        
  26846 ****        35.7500  17.0000  33.7500 Du        
  26847 ****        35.7500  17.0000  34.0000 Du        
  26848 ****        35.7500  17.0000  34.2500 Du        
  26849 ****        35.7500  17.0000  34.5000 Du        
  26850 ****        35.7500  17.0000  34.7500 Du        
  26851 ****        35.7500  17.0000  35.0000 Du        
  26852 ****        35.7500  17.2500  33.7500 Du        
  26853 ****        35.7500  17.2500  34.0000 Du        
  26854 ****        35.7500  17.2500  34.2500 Du        
  26855 ****        35.7500  17.2500  34.5000 Du        
  26856 ****        35.7500  17.2500  34.7500 Du        
  26857 ****        35.7500  17.2500  35.0000 Du        
  26858 ****        35.7500  17.5000  34.0000 Du        
  26859 ****        35.7500  17.5000  34.2500 Du        
  26860 ****        35.7500  17.5000  34.5000 Du        
  26861 ****        35.7500  17.5000  34.7500 Du        
  26862 ****        35.7500  17.5000  35.0000 Du        
  26863 ****        35.7500  17.7500  34.5000 Du        
  26864 ****        35.7500  17.7500  34.7500 Du        
  26865 ****        35.7500  17.7500  35.0000 Du        
