#       Name:                CT1002167954
#       Creating user name   hitesit
#       Creation time:       Sun Apr 16 22:54:21 2023


#       File generated by GOLD software.
#

@<TRIPOS>MOLECULE
CT1002167954|ligand_prepared|mol2|1|dock6
    29    30     1
SMALL
NO_CHARGES


@<TRIPOS>ATOM
      1 C1          18.1886  16.3655  32.6140 C.3            1 RES1               0.0000
      2 C2          19.7148  16.3986  32.3943 C.ar           1 RES1               0.0000
      3 C3          17.7750  14.8993  32.5278 C.2            1 RES1               0.0000
      4 C4          17.9398  17.0030  33.9764 C.2            1 RES1               0.0000
      5 C5          17.3881  17.1645  31.5593 C.3            1 RES1               0.0000
      6 C6          20.2532  16.1901  31.1281 C.ar           1 RES1               0.0000
      7 C7          20.5954  16.6386  33.4458 C.ar           1 RES1               0.0000
      8 N8          17.4491  14.2653  33.6904 N.am           1 RES1               0.0000
      9 O9          17.7730  14.2976  31.4609 O.2            1 RES1               0.0000
     10 N10         17.4356  16.2101  34.9739 N.am           1 RES1               0.0000
     11 O11         18.1914  18.1807  34.2000 O.2            1 RES1               0.0000
     12 C12         15.8991  17.2502  31.8553 C.3            1 RES1               0.0000
     13 C13         21.6221  16.2233  30.9199 C.ar           1 RES1               0.0000
     14 C14         21.9641  16.6711  33.2354 C.ar           1 RES1               0.0000
     15 C15         17.2078  14.8629  34.9014 C.2            1 RES1               0.0000
     16 C16         22.4783  16.4642  31.9731 C.ar           1 RES1               0.0000
     17 O17         16.8047  14.2082  35.8584 O.2            1 RES1               0.0000
     18 H18         17.7959  18.1813  31.5023 H              1 RES1               0.0000
     19 H19         17.5265  16.6923  30.5788 H              1 RES1               0.0000
     20 H20         19.5951  15.9966  30.2875 H              1 RES1               0.0000
     21 H21         20.2134  16.8031  34.4476 H              1 RES1               0.0000
     22 H22         17.3783  13.2533  33.6564 H              1 RES1               0.0000
     23 H23         17.2089  16.6666  35.8517 H              1 RES1               0.0000
     24 H24         15.3849  17.8210  31.0850 H              1 RES1               0.0000
     25 H25         15.4557  16.2574  31.8942 H              1 RES1               0.0000
     26 H26         15.7235  17.7375  32.8122 H              1 RES1               0.0000
     27 H27         22.0219  16.0584  29.9247 H              1 RES1               0.0000
     28 H28         22.6342  16.8605  34.0674 H              1 RES1               0.0000
     29 H29         23.5506  16.4905  31.8097 H              1 RES1               0.0000
@<TRIPOS>BOND
    1    1    2 1     
    2    1    3 1     
    3    1    4 1     
    4    1    5 1     
    5    2    6 ar    
    6    2    7 ar    
    7    3    8 1     
    8    3    9 2     
    9    4   10 1     
   10    4   11 2     
   11    5   12 1     
   12    5   18 1     
   13    5   19 1     
   14    6   13 ar    
   15    6   20 1     
   16    7   14 ar    
   17    7   21 1     
   18    8   15 1     
   19    8   22 1     
   20   10   15 1     
   21   10   23 1     
   22   12   24 1     
   23   12   25 1     
   24   12   26 1     
   25   13   16 ar    
   26   13   27 1     
   27   14   16 ar    
   28   14   28 1     
   29   15   17 2     
   30   16   29 1     
@<TRIPOS>SUBSTRUCTURE
      1 RES1           1
@<TRIPOS>SET
DONOR_HYDROGENS      STATIC     ATOMS    <user>   **** ""
2 22 23
ATOM$RED        STATIC     ATOMS    COLORGROUP SYSTEM
2 22 23
@<TRIPOS>COMMENT
> <Gold.Version>
2022.3.0

> <Gold.Id.Protein>
unknown|3mvj_clean|pdb

> <Gold.Protein.RotatedTorsions>
[ 10968 10947 10946 10944 ] final   97.87 input   60.01 | X-H torsion
[ 10728 10707 10706 10704 ] final   99.20 input   59.96 | X-H torsion
[ 10960 10936 10937 10938 ] final -123.08 input   23.31 | X-H torsion
[ 12067 12045 12046 12047 ] final -100.98 input   63.71 | X-H torsion
[ 15542 15533 15534 15535 ] final -142.44 input   83.29 | X-H torsion
[ 15588 15579 15580 15581 ] final  -96.35 input  107.67 | X-H torsion
[ 15633 15624 15625 15626 ] final   22.76 input   84.82 | X-H torsion
[ 10915 10907 10908 10909 ] final  -42.57 input  -87.38 | X-H torsion
[ 6151 6129 6130 6131 ] final -162.27 input   27.76 | X-H torsion
[ 6109 6101 6102 6103 ] final -102.43 input  -93.79 | X-H torsion
[ 5929 5907 5908 5909 ] final  -77.83 input  119.25 | X-H torsion
[ 6001 5979 5980 5981 ] final  103.90 input  112.51 | X-H torsion
[ 6064 6048 6049 6050 ] final  177.03 input  108.26 | X-H torsion
[ 11206 11196 11197 11198 ] final  -85.25 input   -0.63 | X-H torsion
[ 11245 11229 11230 11231 ] final  161.23 input  120.69 | X-H torsion
[ 11164 11142 11143 11144 ] final   91.28 input   33.88 | X-H torsion
[ 11104 11082 11083 11084 ] final  167.11 input   45.00 | X-H torsion
[ 11284 11266 11267 11268 ] final -153.15 input   49.58 | X-H torsion
[ 9439 9421 9422 9423 ] final -108.88 input  116.39 | X-H torsion
[ 11482 11466 11467 11468 ] final  161.15 input  126.08 | X-H torsion
[ 11374 11358 11359 11360 ] final -110.27 input   98.08 | X-H torsion
[ 11559 11538 11537 11535 ] final  120.25 input   60.01 | X-H torsion
[ 9349 9335 9336 9337 ] final -108.76 input   84.14 | X-H torsion
[ 9355 9341 9339 9336 ] final -139.90 input   60.02 | X-H torsion
[ 9493 9469 9470 9471 ] final  155.14 input   75.21 | X-H torsion
[ 7840 7822 7823 7824 ] final -147.44 input  121.36 | X-H torsion
[ 7742 7722 7721 7720 ] final -134.26 input   60.01 | X-H torsion
[ 5728 5706 5707 5708 ] final   61.33 input  119.20 | X-H torsion
[ 5773 5761 5762 5763 ] final  -78.08 input  120.20 | X-H torsion
[ 5777 5766 5765 5762 ] final  125.88 input   59.99 | X-H torsion
[ 7882 7866 7867 7868 ] final -115.92 input   81.17 | X-H torsion
[ 9501 9480 9479 9477 ] final  -79.40 input   60.03 | X-H torsion
[ 7732 7714 7715 7716 ] final   52.40 input  -10.67 | X-H torsion
[ 15083 15054 15053 15052 ] final  130.13 input   60.01 | X-H torsion
[ 9319 9311 9312 9313 ] final  -78.96 input  -66.31 | X-H torsion
[ 15194 15161 15160 15159 ] final  -20.43 input   59.99 | X-H torsion
[ 15326 15310 15309 15306 ] final   97.71 input   59.99 | X-H torsion
[ 9292 9280 9281 9282 ] final  120.96 input   22.77 | X-H torsion
[ 7636 7620 7621 7622 ] final  -62.89 input   34.37 | X-H torsion
[ 9241 9225 9226 9227 ] final  -39.16 input   96.07 | X-H torsion
[ 9544 9528 9529 9530 ] final  147.25 input   99.68 | X-H torsion
[ 3443 3412 3413 3414 ] final   49.33 input -120.58 | X-H torsion
[ 3504 3478 3479 3480 ] final  108.42 input   70.69 | X-H torsion
[ 9190 9168 9169 9170 ] final   87.49 input  115.65 | X-H torsion
[ 9198 9178 9175 9174 ] final  135.67 input   59.98 | X-H torsion
[ 6282 6255 6254 6251 ] final    7.73 input   60.00 | X-H torsion
[ 9196 9176 9175 9174 ] final   24.62 input   60.01 | X-H torsion
[ 12157 12142 12143 12144 ] final   53.46 input  108.55 | X-H torsion
[ 11995 11973 11974 11975 ] final -128.84 input   68.31 | X-H torsion
[ 11434 11416 11417 11418 ] final  -94.82 input  102.35 | X-H torsion
[ 5626 5608 5609 5610 ] final   75.26 input  119.09 | X-H torsion
[ 10774 10756 10757 10758 ] final  175.37 input  129.22 | X-H torsion
[ 10816 10800 10801 10802 ] final  149.66 input  128.85 | X-H torsion
[ 8641 8619 8620 8621 ] final  178.52 input   87.35 | X-H torsion
[ 3659 3632 3633 3634 ] final -178.58 input  116.97 | X-H torsion
[ 10029 10008 10007 10005 ] final  -59.72 input   60.01 | X-H torsion
[ 16458 15536 15535 15534 ] final  -93.06 input    0.00 | X-H torsion
[ 16468 10881 10880 10879 ] final  133.36 input    0.00 | X-H torsion
[ 16470 10910 10909 10908 ] final -150.71 input    0.00 | X-H torsion
[ 16473 10997 10996 10995 ] final -115.52 input    0.00 | X-H torsion
[ 16475 11976 11975 11974 ] final   57.42 input    0.00 | X-H torsion
[ 16477 12048 12047 12046 ] final  148.82 input    0.00 | X-H torsion
[ 16480 10939 10938 10937 ] final   78.46 input   -0.00 | X-H torsion
[ 16483 11039 11038 11037 ] final  129.09 input    0.00 | X-H torsion
[ 16492 15582 15581 15580 ] final  -98.71 input    0.00 | X-H torsion
[ 16496 6104 6103 6102 ] final  170.01 input    0.00 | X-H torsion
[ 16499 5910 5909 5908 ] final   20.82 input   -0.00 | X-H torsion
[ 16502 5850 5849 5848 ] final  -43.87 input    0.00 | X-H torsion
[ 16505 6051 6050 6049 ] final  -12.98 input    0.00 | X-H torsion
[ 16507 5982 5981 5980 ] final  -21.43 input    0.00 | X-H torsion
[ 16511 11145 11144 11143 ] final  -57.85 input    0.00 | X-H torsion
[ 16514 11199 11198 11197 ] final -174.57 input    0.00 | X-H torsion
[ 16530 11085 11084 11083 ] final  -48.04 input   -0.00 | X-H torsion
[ 16538 11232 11231 11230 ] final  172.75 input    0.00 | X-H torsion
[ 16549 11269 11268 11267 ] final  102.45 input   -0.00 | X-H torsion
[ 16552 11318 11317 11316 ] final  175.57 input    0.00 | X-H torsion
[ 16558 9314 9313 9312 ] final   13.84 input    0.00 | X-H torsion
[ 16561 9338 9337 9336 ] final  -81.87 input    0.00 | X-H torsion
[ 16565 9380 9379 9378 ] final   72.86 input    0.00 | X-H torsion
[ 16570 5709 5708 5707 ] final  -35.47 input    0.00 | X-H torsion
[ 16575 7825 7824 7823 ] final  178.36 input    0.00 | X-H torsion
[ 16583 7781 7780 7779 ] final  -95.75 input   -0.00 | X-H torsion
[ 16593 9424 9423 9422 ] final   79.89 input   -0.00 | X-H torsion
[ 16597 7659 7658 7657 ] final  -60.69 input   -0.00 | X-H torsion
[ 16599 7717 7716 7715 ] final  131.94 input    0.00 | X-H torsion
[ 16602 10532 10531 10530 ] final   56.08 input    0.00 | X-H torsion
[ 16611 7554 7553 7552 ] final  -28.34 input    0.00 | X-H torsion
[ 16613 7623 7622 7621 ] final -150.84 input   -0.00 | X-H torsion
[ 16616 9283 9282 9281 ] final  154.32 input    0.00 | X-H torsion
[ 16618 9228 9227 9226 ] final  120.64 input   -0.00 | X-H torsion
[ 16636 3357 3356 3355 ] final  -53.78 input   -0.00 | X-H torsion
[ 16638 3415 3414 3413 ] final -129.67 input   -0.00 | X-H torsion
[ 16646 9102 9101 9100 ] final  -69.21 input    0.00 | X-H torsion

> <Gold.Protein.ActiveResidues>
 ARG45   SER53   PHE54   LEU82   LYS83   GLN84   GLU86   HIS87   GLU127  PHE129 
 SER130  HIS131  LEU132  ARG133  ARG134  ILE135  GLY136  ARG137  PHE138  SER139 
 HIS142  ARG165  ASP166  LEU167  LYS168  PRO169  GLU170  ASN171  ASP184  GLY186 
 PHE187  TRP196  TPO197  LEU198  CYS199  GLY200  THR201  PRO202  GLU203  TYR204 
 LEU205  ILE209  ILE210  TYR215  VAL226  LEU227  TYR229  GLU230  MET231  ALA233 
 GLY234  TYR235  PRO236  PRO237  PHE238  PHE239  ALA240  ASP241  GLN242  PRO243 
 ILE244  GLN245  ILE246  TYR247  LYS249  ARG256  PHE257  PRO258  SER259  HIS260 
 PRO313  PHE314  ILE315  LYS317  LYS319  SER325  ASN326  ASP328  ASP329  GLU331 
 GLU332  GLU333  GLU334 

> <Gold.Protein.RotatedAtoms>
   24.4995   21.8775   37.1334 H   0  0  0  0  0  0  0  0  0  0  0  0  # atno 3443 bound_to 3412
   25.2090   21.7281   39.2834 H   0  0  0  0  0  0  0  0  0  0  0  0  # atno 3504 bound_to 3478
   22.3729   19.7634   45.1357 H   0  0  0  0  0  0  0  0  0  0  0  0  # atno 3659 bound_to 3632
   35.7805   -1.3368   41.4924 H   0  0  0  0  0  0  0  0  0  0  0  0  # atno 5626 bound_to 5608
   30.9779   -1.7407   40.7494 H   0  0  0  0  0  0  0  0  0  0  0  0  # atno 5728 bound_to 5706
   30.5579   -2.7461   38.1612 H   0  0  0  0  0  0  0  0  0  0  0  0  # atno 5773 bound_to 5761
   34.5774   -1.1897   36.9037 H   0  0  0  0  0  0  0  0  0  0  0  0  # atno 5777 bound_to 5766
   28.8082   -7.3661   37.3409 H   0  0  0  0  0  0  0  0  0  0  0  0  # atno 5929 bound_to 5907
   31.6043   -7.3420   35.9455 H   0  0  0  0  0  0  0  0  0  0  0  0  # atno 6001 bound_to 5979
   32.5819  -10.0998   36.7551 H   0  0  0  0  0  0  0  0  0  0  0  0  # atno 6064 bound_to 6048
   29.4797  -10.2917   35.8128 H   0  0  0  0  0  0  0  0  0  0  0  0  # atno 6109 bound_to 6101
   26.6274  -11.8395   36.9249 H   0  0  0  0  0  0  0  0  0  0  0  0  # atno 6151 bound_to 6129
    9.7389   24.2828   35.3702 H   0  0  0  0  0  0  0  0  0  0  0  0  # atno 6282 bound_to 6255
   18.5905    6.2540   46.6620 H   0  0  0  0  0  0  0  0  0  0  0  0  # atno 7636 bound_to 7620
   22.8878    2.5587   44.6889 H   0  0  0  0  0  0  0  0  0  0  0  0  # atno 7732 bound_to 7714
   22.5996    6.9593   40.4286 H   0  0  0  0  0  0  0  0  0  0  0  0  # atno 7742 bound_to 7722
   21.8233    5.8177   41.3453 H   0  0  0  0  0  0  0  0  0  0  0  0  # atno 7743 bound_to 7722
   23.3348    6.3417   41.7799 H   0  0  0  0  0  0  0  0  0  0  0  0  # atno 7744 bound_to 7722
   26.3584    0.3186   40.7244 H   0  0  0  0  0  0  0  0  0  0  0  0  # atno 7840 bound_to 7822
   27.4790    3.2542   42.2364 H   0  0  0  0  0  0  0  0  0  0  0  0  # atno 7882 bound_to 7866
   22.6952   13.2459   45.9060 H   0  0  0  0  0  0  0  0  0  0  0  0  # atno 8641 bound_to 8619
   10.9596   14.9019   46.3616 H   0  0  0  0  0  0  0  0  0  0  0  0  # atno 9190 bound_to 9168
   11.9459   18.7624   47.0887 H   0  0  0  0  0  0  0  0  0  0  0  0  # atno 9196 bound_to 9176
   14.9199   17.5273   47.8551 H   0  0  0  0  0  0  0  0  0  0  0  0  # atno 9198 bound_to 9178
   12.2906   14.3433   43.0269 H   0  0  0  0  0  0  0  0  0  0  0  0  # atno 9241 bound_to 9225
   13.7908   12.5007   42.5675 H   0  0  0  0  0  0  0  0  0  0  0  0  # atno 9292 bound_to 9280
   17.6570   10.7651   40.6142 H   0  0  0  0  0  0  0  0  0  0  0  0  # atno 9319 bound_to 9311
   18.0600    7.7305   39.7053 H   0  0  0  0  0  0  0  0  0  0  0  0  # atno 9349 bound_to 9335
   21.3521    5.2787   38.1975 H   0  0  0  0  0  0  0  0  0  0  0  0  # atno 9355 bound_to 9341
   15.1546    2.9730   36.4023 H   0  0  0  0  0  0  0  0  0  0  0  0  # atno 9439 bound_to 9421
   16.6536    1.6868   39.0402 H   0  0  0  0  0  0  0  0  0  0  0  0  # atno 9493 bound_to 9469
   20.0153   -3.2110   41.0949 H   0  0  0  0  0  0  0  0  0  0  0  0  # atno 9501 bound_to 9480
   14.3772    3.5319   40.2114 H   0  0  0  0  0  0  0  0  0  0  0  0  # atno 9544 bound_to 9528
   12.9460   11.2844   45.3792 H   0  0  0  0  0  0  0  0  0  0  0  0  # atno 10029 bound_to 10008
   14.3050  -11.7813   37.3961 H   0  0  0  0  0  0  0  0  0  0  0  0  # atno 10728 bound_to 10707
   18.2997   -7.0956   40.9030 H   0  0  0  0  0  0  0  0  0  0  0  0  # atno 10774 bound_to 10756
   21.7000   -7.0845   42.3358 H   0  0  0  0  0  0  0  0  0  0  0  0  # atno 10816 bound_to 10800
   21.4430  -10.2960   38.2688 H   0  0  0  0  0  0  0  0  0  0  0  0  # atno 10915 bound_to 10907
   21.9812   -8.8590   36.3779 H   0  0  0  0  0  0  0  0  0  0  0  0  # atno 10960 bound_to 10936
   16.3838  -13.5406   33.8782 H   0  0  0  0  0  0  0  0  0  0  0  0  # atno 10968 bound_to 10947
   13.0013   -5.0523   37.2140 H   0  0  0  0  0  0  0  0  0  0  0  0  # atno 11104 bound_to 11082
   13.8035   -4.7277   33.3297 H   0  0  0  0  0  0  0  0  0  0  0  0  # atno 11164 bound_to 11142
   15.0910   -2.9949   29.8955 H   0  0  0  0  0  0  0  0  0  0  0  0  # atno 11206 bound_to 11196
   14.1451   -1.5381   26.2331 H   0  0  0  0  0  0  0  0  0  0  0  0  # atno 11245 bound_to 11229
   14.7019    2.0116   26.2088 H   0  0  0  0  0  0  0  0  0  0  0  0  # atno 11284 bound_to 11266
   11.5174    5.2230   30.7549 H   0  0  0  0  0  0  0  0  0  0  0  0  # atno 11374 bound_to 11358
    8.8118    3.5955   29.9718 H   0  0  0  0  0  0  0  0  0  0  0  0  # atno 11434 bound_to 11416
   11.2241    1.2275   30.6205 H   0  0  0  0  0  0  0  0  0  0  0  0  # atno 11482 bound_to 11466
   13.0334    8.1658   33.6703 H   0  0  0  0  0  0  0  0  0  0  0  0  # atno 11559 bound_to 11538
    8.3032  -11.0531   37.9870 H   0  0  0  0  0  0  0  0  0  0  0  0  # atno 11995 bound_to 11973
   11.0636  -13.1844   37.6956 H   0  0  0  0  0  0  0  0  0  0  0  0  # atno 12067 bound_to 12045
   16.0115  -18.6879   36.9209 H   0  0  0  0  0  0  0  0  0  0  0  0  # atno 12157 bound_to 12142
   26.0923   15.9603   34.9928 H   0  0  0  0  0  0  0  0  0  0  0  0  # atno 15083 bound_to 15054
   26.8574   14.4904   35.0328 H   0  0  0  0  0  0  0  0  0  0  0  0  # atno 15084 bound_to 15054
   27.0954   15.5146   33.7517 H   0  0  0  0  0  0  0  0  0  0  0  0  # atno 15085 bound_to 15054
   31.5377   12.1379   30.5624 H   0  0  0  0  0  0  0  0  0  0  0  0  # atno 15194 bound_to 15161
   31.4175   10.5626   31.0648 H   0  0  0  0  0  0  0  0  0  0  0  0  # atno 15195 bound_to 15161
   32.8273   11.4029   31.2988 H   0  0  0  0  0  0  0  0  0  0  0  0  # atno 15196 bound_to 15161
   26.6519   11.6214   26.6869 H   0  0  0  0  0  0  0  0  0  0  0  0  # atno 15326 bound_to 15310
    7.8862  -11.9943   26.2874 H   0  0  0  0  0  0  0  0  0  0  0  0  # atno 15542 bound_to 15533
    9.3482  -14.5076   27.9511 H   0  0  0  0  0  0  0  0  0  0  0  0  # atno 15588 bound_to 15579
    8.9809  -18.3462   30.1725 H   0  0  0  0  0  0  0  0  0  0  0  0  # atno 15633 bound_to 15624
   11.2487  -15.5878   27.3747 LP  0  0  0  0  0  0  0  0  0  0  0  0  # atno 16458 bound_to 15536
   11.2573  -14.1505   28.3412 LP  0  0  0  0  0  0  0  0  0  0  0  0  # atno 16459 bound_to 15536
   15.8699  -13.0431   35.3397 LP  0  0  0  0  0  0  0  0  0  0  0  0  # atno 16460 bound_to 10947
   17.2219  -13.9499   35.2114 LP  0  0  0  0  0  0  0  0  0  0  0  0  # atno 16461 bound_to 10947
   14.6076  -10.4691   36.4825 LP  0  0  0  0  0  0  0  0  0  0  0  0  # atno 16466 bound_to 10707
   13.2088  -10.5812   37.3177 LP  0  0  0  0  0  0  0  0  0  0  0  0  # atno 16467 bound_to 10707
   21.4336  -12.2654   35.5943 LP  0  0  0  0  0  0  0  0  0  0  0  0  # atno 16468 bound_to 10881
   21.4229  -13.6808   36.5925 LP  0  0  0  0  0  0  0  0  0  0  0  0  # atno 16469 bound_to 10881
   22.4990   -7.6903   34.7752 LP  0  0  0  0  0  0  0  0  0  0  0  0  # atno 16470 bound_to 10910
   23.4544   -9.0936   34.4315 LP  0  0  0  0  0  0  0  0  0  0  0  0  # atno 16471 bound_to 10910
   20.5055   -9.7607   36.6188 LP  0  0  0  0  0  0  0  0  0  0  0  0  # atno 16472 bound_to 10936
   15.4008   -6.1286   35.2353 LP  0  0  0  0  0  0  0  0  0  0  0  0  # atno 16473 bound_to 10997
   16.5196   -7.4348   35.4403 LP  0  0  0  0  0  0  0  0  0  0  0  0  # atno 16474 bound_to 10997
   11.4990  -11.0423   38.2551 LP  0  0  0  0  0  0  0  0  0  0  0  0  # atno 16475 bound_to 11976
   12.6144  -12.0156   37.3560 LP  0  0  0  0  0  0  0  0  0  0  0  0  # atno 16476 bound_to 11976
   12.8530  -16.6046   36.5875 LP  0  0  0  0  0  0  0  0  0  0  0  0  # atno 16477 bound_to 12048
   11.6510  -16.5139   37.8313 LP  0  0  0  0  0  0  0  0  0  0  0  0  # atno 16478 bound_to 12048
   19.3598   -8.2303   38.3442 LP  0  0  0  0  0  0  0  0  0  0  0  0  # atno 16480 bound_to 10939
   17.9406   -8.6667   37.4525 LP  0  0  0  0  0  0  0  0  0  0  0  0  # atno 16481 bound_to 10939
   11.2443   -6.1070   36.3930 LP  0  0  0  0  0  0  0  0  0  0  0  0  # atno 16483 bound_to 11039
   12.2030   -7.5056   36.0397 LP  0  0  0  0  0  0  0  0  0  0  0  0  # atno 16484 bound_to 11039
   10.4093  -14.6205   38.4440 LP  0  0  0  0  0  0  0  0  0  0  0  0  # atno 16485 bound_to 12045
    9.0989  -11.9742   27.5460 LP  0  0  0  0  0  0  0  0  0  0  0  0  # atno 16490 bound_to 15533
    7.7132  -15.0800   27.6806 LP  0  0  0  0  0  0  0  0  0  0  0  0  # atno 16491 bound_to 15579
    8.1425  -18.2213   27.2679 LP  0  0  0  0  0  0  0  0  0  0  0  0  # atno 16492 bound_to 15582
    9.5599  -17.3362   26.8120 LP  0  0  0  0  0  0  0  0  0  0  0  0  # atno 16493 bound_to 15582
   10.1074  -17.4185   29.2067 LP  0  0  0  0  0  0  0  0  0  0  0  0  # atno 16494 bound_to 15624
   21.9869  -11.9096   37.8612 LP  0  0  0  0  0  0  0  0  0  0  0  0  # atno 16495 bound_to 10907
   25.0375  -10.7920   37.4073 LP  0  0  0  0  0  0  0  0  0  0  0  0  # atno 16496 bound_to 6104
   25.7894   -9.9533   36.0915 LP  0  0  0  0  0  0  0  0  0  0  0  0  # atno 16497 bound_to 6104
   27.6275  -13.0896   37.6243 LP  0  0  0  0  0  0  0  0  0  0  0  0  # atno 16498 bound_to 6129
   28.8839   -8.5652   33.3557 LP  0  0  0  0  0  0  0  0  0  0  0  0  # atno 16499 bound_to 5910
   30.1944   -9.6257   33.7530 LP  0  0  0  0  0  0  0  0  0  0  0  0  # atno 16500 bound_to 5910
   29.6609  -11.9159   36.4222 LP  0  0  0  0  0  0  0  0  0  0  0  0  # atno 16501 bound_to 6101
   29.1997   -9.6100   37.5603 LP  0  0  0  0  0  0  0  0  0  0  0  0  # atno 16502 bound_to 5850
   28.0870   -8.9519   36.4076 LP  0  0  0  0  0  0  0  0  0  0  0  0  # atno 16503 bound_to 5850
   29.7279   -5.9032   37.0877 LP  0  0  0  0  0  0  0  0  0  0  0  0  # atno 16504 bound_to 5907
   30.1993  -14.1221   36.5087 LP  0  0  0  0  0  0  0  0  0  0  0  0  # atno 16505 bound_to 6051
   28.5724  -13.6183   36.1930 LP  0  0  0  0  0  0  0  0  0  0  0  0  # atno 16506 bound_to 6051
   32.2774  -11.1468   33.4212 LP  0  0  0  0  0  0  0  0  0  0  0  0  # atno 16507 bound_to 5982
   32.3622  -12.2236   34.7752 LP  0  0  0  0  0  0  0  0  0  0  0  0  # atno 16508 bound_to 5982
   30.4876   -7.8937   34.7153 LP  0  0  0  0  0  0  0  0  0  0  0  0  # atno 16509 bound_to 5979
   31.1381  -10.0205   35.7717 LP  0  0  0  0  0  0  0  0  0  0  0  0  # atno 16510 bound_to 6048
   13.1599   -4.8899   30.6790 LP  0  0  0  0  0  0  0  0  0  0  0  0  # atno 16511 bound_to 11145
   12.0905   -3.5872   30.2795 LP  0  0  0  0  0  0  0  0  0  0  0  0  # atno 16512 bound_to 11145
   14.1698   -1.7795   30.7658 LP  0  0  0  0  0  0  0  0  0  0  0  0  # atno 16513 bound_to 11196
   16.1252    0.3744   28.1649 LP  0  0  0  0  0  0  0  0  0  0  0  0  # atno 16514 bound_to 11199
   15.7544   -0.6177   29.5355 LP  0  0  0  0  0  0  0  0  0  0  0  0  # atno 16515 bound_to 11199
   14.1628   -0.4422   27.6015 LP  0  0  0  0  0  0  0  0  0  0  0  0  # atno 16516 bound_to 11229
   12.9932   -3.2150   33.6338 LP  0  0  0  0  0  0  0  0  0  0  0  0  # atno 16525 bound_to 11142
   14.0158   -1.6116   35.2701 LP  0  0  0  0  0  0  0  0  0  0  0  0  # atno 16530 bound_to 11085
   15.3592   -2.3746   34.4870 LP  0  0  0  0  0  0  0  0  0  0  0  0  # atno 16531 bound_to 11085
   14.4586   -4.8839   36.2591 LP  0  0  0  0  0  0  0  0  0  0  0  0  # atno 16533 bound_to 11082
   16.0704    3.4567   26.4457 LP  0  0  0  0  0  0  0  0  0  0  0  0  # atno 16538 bound_to 11232
   16.9811    2.1111   25.8456 LP  0  0  0  0  0  0  0  0  0  0  0  0  # atno 16539 bound_to 11232
   13.5856    1.3693   27.4022 LP  0  0  0  0  0  0  0  0  0  0  0  0  # atno 16542 bound_to 11266
   16.7157    2.8778   37.1746 LP  0  0  0  0  0  0  0  0  0  0  0  0  # atno 16548 bound_to 9421
   12.8239    2.1312   29.8246 LP  0  0  0  0  0  0  0  0  0  0  0  0  # atno 16549 bound_to 11269
   11.4892    2.8418   28.9798 LP  0  0  0  0  0  0  0  0  0  0  0  0  # atno 16550 bound_to 11269
   10.2317    4.0404   32.2060 LP  0  0  0  0  0  0  0  0  0  0  0  0  # atno 16552 bound_to 11318
   11.8686    3.8177   32.7266 LP  0  0  0  0  0  0  0  0  0  0  0  0  # atno 16553 bound_to 11318
    9.5667    1.3885   31.1636 LP  0  0  0  0  0  0  0  0  0  0  0  0  # atno 16554 bound_to 11466
   11.0542    4.8320   29.1255 LP  0  0  0  0  0  0  0  0  0  0  0  0  # atno 16555 bound_to 11358
   13.4036    7.5702   35.1385 LP  0  0  0  0  0  0  0  0  0  0  0  0  # atno 16556 bound_to 11538
   12.4394    8.8814   35.0054 LP  0  0  0  0  0  0  0  0  0  0  0  0  # atno 16557 bound_to 11538
   17.4741    9.6012   38.7002 LP  0  0  0  0  0  0  0  0  0  0  0  0  # atno 16558 bound_to 9314
   17.3236    8.0978   37.8535 LP  0  0  0  0  0  0  0  0  0  0  0  0  # atno 16559 bound_to 9314
   18.0375    6.2291   40.5983 LP  0  0  0  0  0  0  0  0  0  0  0  0  # atno 16560 bound_to 9335
   16.6770    3.7887   39.3630 LP  0  0  0  0  0  0  0  0  0  0  0  0  # atno 16561 bound_to 9338
   15.6642    5.1641   39.6505 LP  0  0  0  0  0  0  0  0  0  0  0  0  # atno 16562 bound_to 9338
   20.9403    5.8188   39.6766 LP  0  0  0  0  0  0  0  0  0  0  0  0  # atno 16563 bound_to 9341
   20.5118    6.6645   38.3470 LP  0  0  0  0  0  0  0  0  0  0  0  0  # atno 16564 bound_to 9341
   12.9842    3.0153   37.2257 LP  0  0  0  0  0  0  0  0  0  0  0  0  # atno 16565 bound_to 9380
   13.8839    2.8750   38.6991 LP  0  0  0  0  0  0  0  0  0  0  0  0  # atno 16566 bound_to 9380
   14.9366    2.0265   39.0366 LP  0  0  0  0  0  0  0  0  0  0  0  0  # atno 16567 bound_to 9469
   28.9829   -4.3914   38.0005 LP  0  0  0  0  0  0  0  0  0  0  0  0  # atno 16570 bound_to 5709
   30.0755   -3.9705   36.7241 LP  0  0  0  0  0  0  0  0  0  0  0  0  # atno 16571 bound_to 5709
   25.7966    1.3419   42.0231 LP  0  0  0  0  0  0  0  0  0  0  0  0  # atno 16574 bound_to 7822
   29.1172    4.2425   42.7377 LP  0  0  0  0  0  0  0  0  0  0  0  0  # atno 16575 bound_to 7825
   29.3505    3.7188   41.1033 LP  0  0  0  0  0  0  0  0  0  0  0  0  # atno 16576 bound_to 7825
   29.6223   -2.5848   41.4539 LP  0  0  0  0  0  0  0  0  0  0  0  0  # atno 16579 bound_to 5706
   31.8761   -2.2252   39.1858 LP  0  0  0  0  0  0  0  0  0  0  0  0  # atno 16580 bound_to 5761
   33.4524   -1.9439   36.0023 LP  0  0  0  0  0  0  0  0  0  0  0  0  # atno 16581 bound_to 5766
   34.9835   -2.5103   36.0446 LP  0  0  0  0  0  0  0  0  0  0  0  0  # atno 16582 bound_to 5766
   28.1856    0.7588   43.3313 LP  0  0  0  0  0  0  0  0  0  0  0  0  # atno 16583 bound_to 7781
   28.5913   -0.4062   42.1155 LP  0  0  0  0  0  0  0  0  0  0  0  0  # atno 16584 bound_to 7781
   26.3898    2.2100   43.1253 LP  0  0  0  0  0  0  0  0  0  0  0  0  # atno 16585 bound_to 7866
   15.3862   -1.0469   39.2518 LP  0  0  0  0  0  0  0  0  0  0  0  0  # atno 16593 bound_to 9424
   13.8720   -0.2178   39.3930 LP  0  0  0  0  0  0  0  0  0  0  0  0  # atno 16594 bound_to 9424
   20.7246   -2.6214   42.4356 LP  0  0  0  0  0  0  0  0  0  0  0  0  # atno 16595 bound_to 9480
   21.3489   -2.2875   40.9640 LP  0  0  0  0  0  0  0  0  0  0  0  0  # atno 16596 bound_to 9480
   19.3595    2.2125   44.0255 LP  0  0  0  0  0  0  0  0  0  0  0  0  # atno 16597 bound_to 7659
   20.4759    3.0746   43.0203 LP  0  0  0  0  0  0  0  0  0  0  0  0  # atno 16598 bound_to 7659
   25.4779    0.9287   44.4182 LP  0  0  0  0  0  0  0  0  0  0  0  0  # atno 16599 bound_to 7717
   24.7924    2.3765   43.7593 LP  0  0  0  0  0  0  0  0  0  0  0  0  # atno 16600 bound_to 7717
   21.5658    1.4789   45.0750 LP  0  0  0  0  0  0  0  0  0  0  0  0  # atno 16601 bound_to 7714
   18.0859   -4.8213   41.3765 LP  0  0  0  0  0  0  0  0  0  0  0  0  # atno 16602 bound_to 10532
   18.5609   -5.9789   42.5741 LP  0  0  0  0  0  0  0  0  0  0  0  0  # atno 16603 bound_to 10532
   16.1994   10.0889   41.2995 LP  0  0  0  0  0  0  0  0  0  0  0  0  # atno 16604 bound_to 9311
   27.1588   11.5456   25.1422 LP  0  0  0  0  0  0  0  0  0  0  0  0  # atno 16607 bound_to 15310
   28.0161   10.8121   26.3227 LP  0  0  0  0  0  0  0  0  0  0  0  0  # atno 16608 bound_to 15310
   17.0876    8.2383   45.0036 LP  0  0  0  0  0  0  0  0  0  0  0  0  # atno 16611 bound_to 7554
   18.7554    8.1903   44.5386 LP  0  0  0  0  0  0  0  0  0  0  0  0  # atno 16612 bound_to 7554
   22.0768    4.1165   44.2692 LP  0  0  0  0  0  0  0  0  0  0  0  0  # atno 16613 bound_to 7623
   22.5264    5.7821   44.4232 LP  0  0  0  0  0  0  0  0  0  0  0  0  # atno 16614 bound_to 7623
   13.3493   11.3214   41.3712 LP  0  0  0  0  0  0  0  0  0  0  0  0  # atno 16615 bound_to 9280
   15.5251    8.3753   42.0717 LP  0  0  0  0  0  0  0  0  0  0  0  0  # atno 16616 bound_to 9283
   14.7913    9.6209   43.0257 LP  0  0  0  0  0  0  0  0  0  0  0  0  # atno 16617 bound_to 9283
   14.7786   14.3301   41.1940 LP  0  0  0  0  0  0  0  0  0  0  0  0  # atno 16618 bound_to 9228
   13.8760   14.0135   39.7500 LP  0  0  0  0  0  0  0  0  0  0  0  0  # atno 16619 bound_to 9228
   19.6485    7.5420   47.1621 LP  0  0  0  0  0  0  0  0  0  0  0  0  # atno 16620 bound_to 7620
   10.9040   14.7193   42.0346 LP  0  0  0  0  0  0  0  0  0  0  0  0  # atno 16628 bound_to 9225
   13.9291    2.2307   41.2885 LP  0  0  0  0  0  0  0  0  0  0  0  0  # atno 16635 bound_to 9528
   23.4056   20.1117   36.3411 LP  0  0  0  0  0  0  0  0  0  0  0  0  # atno 16636 bound_to 3357
   23.8901   20.2125   38.0010 LP  0  0  0  0  0  0  0  0  0  0  0  0  # atno 16637 bound_to 3357
   22.1862   21.2174   41.0627 LP  0  0  0  0  0  0  0  0  0  0  0  0  # atno 16638 bound_to 3415
   21.6842   20.8026   39.4577 LP  0  0  0  0  0  0  0  0  0  0  0  0  # atno 16639 bound_to 3415
   24.7614   23.6035   37.2346 LP  0  0  0  0  0  0  0  0  0  0  0  0  # atno 16640 bound_to 3412
   23.7262   22.1995   40.0856 LP  0  0  0  0  0  0  0  0  0  0  0  0  # atno 16641 bound_to 3478
    8.5979   13.6697   43.8978 LP  0  0  0  0  0  0  0  0  0  0  0  0  # atno 16646 bound_to 9102
    8.8780   15.3002   43.3847 LP  0  0  0  0  0  0  0  0  0  0  0  0  # atno 16647 bound_to 9102
    9.6350   15.3794   45.3309 LP  0  0  0  0  0  0  0  0  0  0  0  0  # atno 16648 bound_to 9168
   14.9649   17.0965   46.2866 LP  0  0  0  0  0  0  0  0  0  0  0  0  # atno 16649 bound_to 9178
   14.8282   15.9549   47.4463 LP  0  0  0  0  0  0  0  0  0  0  0  0  # atno 16650 bound_to 9178
   10.9850   23.8290   36.3131 LP  0  0  0  0  0  0  0  0  0  0  0  0  # atno 16654 bound_to 6255
   10.0248   25.0700   36.7653 LP  0  0  0  0  0  0  0  0  0  0  0  0  # atno 16655 bound_to 6255
   13.4461   18.9571   47.6894 LP  0  0  0  0  0  0  0  0  0  0  0  0  # atno 16656 bound_to 9176
   12.2868   18.2483   48.5951 LP  0  0  0  0  0  0  0  0  0  0  0  0  # atno 16657 bound_to 9176

> <Gold.Score>
     Fitness  S(hb_ext) S(vdw_ext)  S(hb_int)    S(int)      intcor
     35.55       8.09      20.99       0.00      -1.40      -0.76

> <Gold.Goldscore.Fitness>
35.5495

> <Gold.Goldscore.Internal.Vdw>
-1.7428

> <Gold.Goldscore.Internal.Torsion>
-0.4198

> <Gold.Goldscore.External.Vdw>
20.9905

> <Gold.Goldscore.Internal.HBond>
0.0000

> <Gold.Goldscore.External.HBond>
8.0917

> <Gold.Goldscore.Internal.Correction>
-0.7585

> <Gold.Goldscore.Hbonds>
donor molecule, donor type, donor heavy atom, donor atom, acceptor molecule, acceptor atom, score
      P1  H  5975  6022       L1     9  1.00
      P1  H  5978  6026       L1     9  0.02
      P1  H  5795  5829       L1     9  1.00

> <Gold.Goldscore.Internal.Vdw.Weighted>
-1.7428

> <Gold.Goldscore.Internal.Torsion.Weighted>
-0.4198

> <Gold.Goldscore.External.Vdw.Weighted>
28.8619

> <Gold.Goldscore.Internal.HBond.Weighted>
0.0000

> <Gold.Goldscore.External.HBond.Weighted>
8.0917

> <Gold.Goldscore.Internal.Correction.Weighted>
-0.7585

> <Gold.Rescore>
     Score     S(PLP)   S(hbond)     S(cho)   S(metal)  DE(clash)   DE(tors)     intcor
     35.47     -33.94       1.00       0.00       0.00       1.45       0.02       ----

> <Gold.PLP.Fitness>
35.4658

> <Gold.PLP.PLP>
-33.9424

> <Gold.PLP.part.hbond>
-1.0000

> <Gold.PLP.part.metal>
0.0000

> <Gold.PLP.part.buried>
-3.6425

> <Gold.PLP.part.nonpolar>
-30.7519

> <Gold.PLP.part.repulsive>
0.0329

> <Gold.PLP.ligand.clash>
1.4456

> <Gold.PLP.ligand.torsion>
0.0155

> <Gold.PLP.Chemscore.Hbond>
1.0000

> <Gold.PLP.Chemscore.CHOScore>
0.0000

> <Gold.PLP.Chemscore.Metal>
0.0000

> <Gold.Chemscore.Hbonds>
donor molecule, donor type, donor heavy atom, donor atom, acceptor molecule, acceptor atom, score
      P1  H  5975  6022       L1     9  1.00
      P1  H  5795  5829       L1     9  0.65

> <Gold.PLP.Chemscore.Internal.Correction>
   9.000000E+99

