#       Name:                CT1002167954
#       Creating user name   hitesit
#       Creation time:       Sun Apr 16 22:54:29 2023


#       File generated by GOLD software.
#

@<TRIPOS>MOLECULE
CT1002167954|ligand_prepared|mol2|1|dock9
    29    30     1
SMALL
NO_CHARGES


@<TRIPOS>ATOM
      1 C1          13.0610 -11.8294  32.4698 C.3            1 RES1               0.0000
      2 C2          12.8767 -10.3055  32.6198 C.ar           1 RES1               0.0000
      3 C3          11.7021 -12.3867  32.0560 C.2            1 RES1               0.0000
      4 C4          14.1572 -12.0261  31.4285 C.2            1 RES1               0.0000
      5 C5          13.5060 -12.5361  33.7713 C.3            1 RES1               0.0000
      6 C6          12.3015  -9.5572  31.5971 C.ar           1 RES1               0.0000
      7 C7          13.2738  -9.6356  33.7740 C.ar           1 RES1               0.0000
      8 N8          11.5505 -12.7852  30.7606 N.am           1 RES1               0.0000
      9 O9          10.7660 -12.4388  32.8442 O.2            1 RES1               0.0000
     10 N10         13.8155 -12.6163  30.2400 N.am           1 RES1               0.0000
     11 O11         15.3104 -11.6602  31.6200 O.2            1 RES1               0.0000
     12 C12         13.5567 -14.0518  33.6596 C.3            1 RES1               0.0000
     13 C13         12.1268  -8.1892  31.7247 C.ar           1 RES1               0.0000
     14 C14         13.0984  -8.2674  33.8994 C.ar           1 RES1               0.0000
     15 C15         12.5554 -12.9769  29.8468 C.2            1 RES1               0.0000
     16 C16         12.5247  -7.5434  32.8759 C.ar           1 RES1               0.0000
     17 O17         12.3191 -13.4524  28.7400 O.2            1 RES1               0.0000
     18 H18         14.5016 -12.1691  34.0497 H              1 RES1               0.0000
     19 H19         12.8115 -12.2645  34.5758 H              1 RES1               0.0000
     20 H20         11.9845 -10.0477  30.6828 H              1 RES1               0.0000
     21 H21         13.7284 -10.1846  34.5916 H              1 RES1               0.0000
     22 H22         10.6021 -12.9564  30.4418 H              1 RES1               0.0000
     23 H23         14.5703 -12.8045  29.5880 H              1 RES1               0.0000
     24 H24         13.8745 -14.4974  34.5998 H              1 RES1               0.0000
     25 H25         12.5770 -14.4530  33.4084 H              1 RES1               0.0000
     26 H26         14.2571 -14.3582  32.8854 H              1 RES1               0.0000
     27 H27         11.6761  -7.6238  30.9158 H              1 RES1               0.0000
     28 H28         13.4136  -7.7632  34.8070 H              1 RES1               0.0000
     29 H29         12.3874  -6.4718  32.9758 H              1 RES1               0.0000
@<TRIPOS>BOND
    1    1    2 1     
    2    1    3 1     
    3    1    4 1     
    4    1    5 1     
    5    2    6 ar    
    6    2    7 ar    
    7    3    8 1     
    8    3    9 2     
    9    4   10 1     
   10    4   11 2     
   11    5   12 1     
   12    5   18 1     
   13    5   19 1     
   14    6   13 ar    
   15    6   20 1     
   16    7   14 ar    
   17    7   21 1     
   18    8   15 1     
   19    8   22 1     
   20   10   15 1     
   21   10   23 1     
   22   12   24 1     
   23   12   25 1     
   24   12   26 1     
   25   13   16 ar    
   26   13   27 1     
   27   14   16 ar    
   28   14   28 1     
   29   15   17 2     
   30   16   29 1     
@<TRIPOS>SUBSTRUCTURE
      1 RES1           1
@<TRIPOS>SET
DONOR_HYDROGENS      STATIC     ATOMS    <user>   **** ""
2 22 23
ATOM$RED        STATIC     ATOMS    COLORGROUP SYSTEM
2 22 23
@<TRIPOS>COMMENT
> <Gold.Version>
2022.3.0

> <Gold.Id.Protein>
unknown|3mvj_clean|pdb

> <Gold.Protein.RotatedTorsions>
[ 10968 10947 10946 10944 ] final  155.63 input   60.01 | X-H torsion
[ 10728 10707 10706 10704 ] final  -66.61 input   59.96 | X-H torsion
[ 10960 10936 10937 10938 ] final -170.75 input   23.31 | X-H torsion
[ 12067 12045 12046 12047 ] final   41.21 input   63.71 | X-H torsion
[ 15542 15533 15534 15535 ] final   24.23 input   83.29 | X-H torsion
[ 15588 15579 15580 15581 ] final  -80.76 input  107.67 | X-H torsion
[ 15633 15624 15625 15626 ] final    1.85 input   84.82 | X-H torsion
[ 10915 10907 10908 10909 ] final -153.48 input  -87.38 | X-H torsion
[ 6151 6129 6130 6131 ] final   -8.80 input   27.76 | X-H torsion
[ 6109 6101 6102 6103 ] final -138.79 input  -93.79 | X-H torsion
[ 5929 5907 5908 5909 ] final  -15.75 input  119.25 | X-H torsion
[ 6001 5979 5980 5981 ] final  -19.68 input  112.51 | X-H torsion
[ 6064 6048 6049 6050 ] final  -66.11 input  108.26 | X-H torsion
[ 11206 11196 11197 11198 ] final    9.21 input   -0.63 | X-H torsion
[ 11245 11229 11230 11231 ] final   79.91 input  120.69 | X-H torsion
[ 11164 11142 11143 11144 ] final   -9.72 input   33.88 | X-H torsion
[ 11104 11082 11083 11084 ] final -118.13 input   45.00 | X-H torsion
[ 11284 11266 11267 11268 ] final -179.64 input   49.58 | X-H torsion
[ 9439 9421 9422 9423 ] final   13.73 input  116.39 | X-H torsion
[ 11482 11466 11467 11468 ] final  179.51 input  126.08 | X-H torsion
[ 11374 11358 11359 11360 ] final   27.77 input   98.08 | X-H torsion
[ 11559 11538 11537 11535 ] final  113.45 input   60.01 | X-H torsion
[ 9349 9335 9336 9337 ] final   20.85 input   84.14 | X-H torsion
[ 9355 9341 9339 9336 ] final   60.02 input   60.02 | X-H torsion
[ 9493 9469 9470 9471 ] final -131.50 input   75.21 | X-H torsion
[ 7840 7822 7823 7824 ] final  114.33 input  121.36 | X-H torsion
[ 7742 7722 7721 7720 ] final  144.39 input   60.01 | X-H torsion
[ 5728 5706 5707 5708 ] final   30.61 input  119.20 | X-H torsion
[ 5773 5761 5762 5763 ] final  -72.45 input  120.20 | X-H torsion
[ 5777 5766 5765 5762 ] final   -4.70 input   59.99 | X-H torsion
[ 7882 7866 7867 7868 ] final  -73.52 input   81.17 | X-H torsion
[ 9501 9480 9479 9477 ] final  -15.91 input   60.03 | X-H torsion
[ 7732 7714 7715 7716 ] final  158.08 input  -10.67 | X-H torsion
[ 15083 15054 15053 15052 ] final -111.55 input   60.01 | X-H torsion
[ 9319 9311 9312 9313 ] final   51.81 input  -66.31 | X-H torsion
[ 15194 15161 15160 15159 ] final  142.96 input   59.99 | X-H torsion
[ 15326 15310 15309 15306 ] final -166.42 input   59.99 | X-H torsion
[ 9292 9280 9281 9282 ] final -100.98 input   22.77 | X-H torsion
[ 7636 7620 7621 7622 ] final -144.22 input   34.37 | X-H torsion
[ 9241 9225 9226 9227 ] final  -55.80 input   96.07 | X-H torsion
[ 9544 9528 9529 9530 ] final -149.23 input   99.68 | X-H torsion
[ 3443 3412 3413 3414 ] final -161.36 input -120.58 | X-H torsion
[ 3504 3478 3479 3480 ] final  -67.12 input   70.69 | X-H torsion
[ 9190 9168 9169 9170 ] final -148.72 input  115.65 | X-H torsion
[ 9198 9178 9175 9174 ] final   44.52 input   59.98 | X-H torsion
[ 6282 6255 6254 6251 ] final  128.90 input   60.00 | X-H torsion
[ 9196 9176 9175 9174 ] final  -86.24 input   60.01 | X-H torsion
[ 12157 12142 12143 12144 ] final   29.80 input  108.55 | X-H torsion
[ 11995 11973 11974 11975 ] final  -61.07 input   68.31 | X-H torsion
[ 11434 11416 11417 11418 ] final -169.06 input  102.35 | X-H torsion
[ 5626 5608 5609 5610 ] final   17.84 input  119.09 | X-H torsion
[ 10774 10756 10757 10758 ] final -143.60 input  129.22 | X-H torsion
[ 10816 10800 10801 10802 ] final -153.80 input  128.85 | X-H torsion
[ 8641 8619 8620 8621 ] final  150.63 input   87.35 | X-H torsion
[ 3659 3632 3633 3634 ] final    5.88 input  116.97 | X-H torsion
[ 10029 10008 10007 10005 ] final  -49.68 input   60.01 | X-H torsion
[ 16458 15536 15535 15534 ] final  -99.84 input    0.00 | X-H torsion
[ 16468 10881 10880 10879 ] final  126.56 input    0.00 | X-H torsion
[ 16470 10910 10909 10908 ] final  144.84 input    0.00 | X-H torsion
[ 16473 10997 10996 10995 ] final  168.75 input    0.00 | X-H torsion
[ 16475 11976 11975 11974 ] final  -74.53 input    0.00 | X-H torsion
[ 16477 12048 12047 12046 ] final   94.22 input    0.00 | X-H torsion
[ 16480 10939 10938 10937 ] final  -84.38 input   -0.00 | X-H torsion
[ 16483 11039 11038 11037 ] final   95.62 input    0.00 | X-H torsion
[ 16492 15582 15581 15580 ] final   54.84 input    0.00 | X-H torsion
[ 16496 6104 6103 6102 ] final -140.63 input    0.00 | X-H torsion
[ 16499 5910 5909 5908 ] final -165.94 input   -0.00 | X-H torsion
[ 16502 5850 5849 5848 ] final  113.91 input    0.00 | X-H torsion
[ 16505 6051 6050 6049 ] final   43.59 input    0.00 | X-H torsion
[ 16507 5982 5981 5980 ] final    5.62 input    0.00 | X-H torsion
[ 16511 11145 11144 11143 ] final  164.53 input    0.00 | X-H torsion
[ 16514 11199 11198 11197 ] final  126.56 input    0.00 | X-H torsion
[ 16530 11085 11084 11083 ] final -136.41 input   -0.00 | X-H torsion
[ 16538 11232 11231 11230 ] final  142.03 input    0.00 | X-H torsion
[ 16549 11269 11268 11267 ] final -111.09 input   -0.00 | X-H torsion
[ 16552 11318 11317 11316 ] final  -91.41 input    0.00 | X-H torsion
[ 16558 9314 9313 9312 ] final   -7.03 input    0.00 | X-H torsion
[ 16561 9338 9337 9336 ] final   36.56 input    0.00 | X-H torsion
[ 16565 9380 9379 9378 ] final  -30.94 input    0.00 | X-H torsion
[ 16570 5709 5708 5707 ] final  -91.41 input    0.00 | X-H torsion
[ 16575 7825 7824 7823 ] final   75.94 input    0.00 | X-H torsion
[ 16583 7781 7780 7779 ] final  143.44 input   -0.00 | X-H torsion
[ 16593 9424 9423 9422 ] final -106.88 input   -0.00 | X-H torsion
[ 16597 7659 7658 7657 ] final  -90.00 input   -0.00 | X-H torsion
[ 16599 7717 7716 7715 ] final  -35.16 input    0.00 | X-H torsion
[ 16602 10532 10531 10530 ] final  -70.31 input    0.00 | X-H torsion
[ 16611 7554 7553 7552 ] final  171.56 input    0.00 | X-H torsion
[ 16613 7623 7622 7621 ] final  -15.47 input   -0.00 | X-H torsion
[ 16616 9283 9282 9281 ] final   99.84 input    0.00 | X-H torsion
[ 16618 9228 9227 9226 ] final  -16.88 input   -0.00 | X-H torsion
[ 16636 3357 3356 3355 ] final -146.25 input   -0.00 | X-H torsion
[ 16638 3415 3414 3413 ] final  174.37 input   -0.00 | X-H torsion
[ 16646 9102 9101 9100 ] final  178.59 input    0.00 | X-H torsion

> <Gold.Protein.ActiveResidues>
 ARG45   SER53   PHE54   LEU82   LYS83   GLN84   GLU86   HIS87   GLU127  PHE129 
 SER130  HIS131  LEU132  ARG133  ARG134  ILE135  GLY136  ARG137  PHE138  SER139 
 HIS142  ARG165  ASP166  LEU167  LYS168  PRO169  GLU170  ASN171  ASP184  GLY186 
 PHE187  TRP196  TPO197  LEU198  CYS199  GLY200  THR201  PRO202  GLU203  TYR204 
 LEU205  ILE209  ILE210  TYR215  VAL226  LEU227  TYR229  GLU230  MET231  ALA233 
 GLY234  TYR235  PRO236  PRO237  PHE238  PHE239  ALA240  ASP241  GLN242  PRO243 
 ILE244  GLN245  ILE246  TYR247  LYS249  ARG256  PHE257  PRO258  SER259  HIS260 
 PRO313  PHE314  ILE315  LYS317  LYS319  SER325  ASN326  ASP328  ASP329  GLU331 
 GLU332  GLU333  GLU334 

> <Gold.Protein.RotatedAtoms>
   24.4430   23.5704   36.8992 H   0  0  0  0  0  0  0  0  0  0  0  0  # atno 3443 bound_to 3412
   23.7421   22.2432   40.1466 H   0  0  0  0  0  0  0  0  0  0  0  0  # atno 3504 bound_to 3478
   23.9081   20.3987   45.7372 H   0  0  0  0  0  0  0  0  0  0  0  0  # atno 3659 bound_to 3632
   35.5676   -1.9244   42.0602 H   0  0  0  0  0  0  0  0  0  0  0  0  # atno 5626 bound_to 5608
   31.0821   -2.1936   40.7131 H   0  0  0  0  0  0  0  0  0  0  0  0  # atno 5728 bound_to 5706
   30.5539   -2.8180   38.2102 H   0  0  0  0  0  0  0  0  0  0  0  0  # atno 5773 bound_to 5761
   33.5160   -2.0831   35.9210 H   0  0  0  0  0  0  0  0  0  0  0  0  # atno 5777 bound_to 5766
   29.7156   -7.3866   37.2841 H   0  0  0  0  0  0  0  0  0  0  0  0  # atno 5929 bound_to 5907
   30.4560   -8.2860   35.4441 H   0  0  0  0  0  0  0  0  0  0  0  0  # atno 6001 bound_to 5979
   31.8987  -10.4118   35.4447 H   0  0  0  0  0  0  0  0  0  0  0  0  # atno 6064 bound_to 6048
   29.6596  -10.6082   35.4044 H   0  0  0  0  0  0  0  0  0  0  0  0  # atno 6109 bound_to 6101
   27.8165  -12.7611   37.7564 H   0  0  0  0  0  0  0  0  0  0  0  0  # atno 6151 bound_to 6129
   10.0399   25.0585   36.7726 H   0  0  0  0  0  0  0  0  0  0  0  0  # atno 6282 bound_to 6255
   18.5698    7.3616   46.4227 H   0  0  0  0  0  0  0  0  0  0  0  0  # atno 7636 bound_to 7620
   21.4907    2.3851   44.5353 H   0  0  0  0  0  0  0  0  0  0  0  0  # atno 7732 bound_to 7714
   23.4505    6.7607   41.3183 H   0  0  0  0  0  0  0  0  0  0  0  0  # atno 7742 bound_to 7722
   22.0521    6.6421   40.4370 H   0  0  0  0  0  0  0  0  0  0  0  0  # atno 7743 bound_to 7722
   22.2552    5.7168   41.7974 H   0  0  0  0  0  0  0  0  0  0  0  0  # atno 7744 bound_to 7722
   25.4186    1.2368   40.9495 H   0  0  0  0  0  0  0  0  0  0  0  0  # atno 7840 bound_to 7822
   27.7923    2.7493   42.4864 H   0  0  0  0  0  0  0  0  0  0  0  0  # atno 7882 bound_to 7866
   22.6872   12.8258   45.9765 H   0  0  0  0  0  0  0  0  0  0  0  0  # atno 8641 bound_to 8619
   10.0262   15.9739   45.7424 H   0  0  0  0  0  0  0  0  0  0  0  0  # atno 9190 bound_to 9168
   13.3984   18.9963   47.5529 H   0  0  0  0  0  0  0  0  0  0  0  0  # atno 9196 bound_to 9176
   14.9809   17.5021   46.5197 H   0  0  0  0  0  0  0  0  0  0  0  0  # atno 9198 bound_to 9178
   12.1148   14.2136   43.1584 H   0  0  0  0  0  0  0  0  0  0  0  0  # atno 9241 bound_to 9225
   13.3204   11.9029   41.1483 H   0  0  0  0  0  0  0  0  0  0  0  0  # atno 9292 bound_to 9280
   16.2187   10.0525   40.5730 H   0  0  0  0  0  0  0  0  0  0  0  0  # atno 9319 bound_to 9311
   17.3656    6.4545   40.3725 H   0  0  0  0  0  0  0  0  0  0  0  0  # atno 9349 bound_to 9335
   20.6260    6.3550   39.5080 H   0  0  0  0  0  0  0  0  0  0  0  0  # atno 9355 bound_to 9341
   16.0605    3.1150   37.6393 H   0  0  0  0  0  0  0  0  0  0  0  0  # atno 9439 bound_to 9421
   15.8661    0.9760   38.9790 H   0  0  0  0  0  0  0  0  0  0  0  0  # atno 9493 bound_to 9469
   20.7113   -2.7604   40.5626 H   0  0  0  0  0  0  0  0  0  0  0  0  # atno 9501 bound_to 9480
   14.7809    3.4233   41.0432 H   0  0  0  0  0  0  0  0  0  0  0  0  # atno 9544 bound_to 9528
   12.8538   11.4056   45.3186 H   0  0  0  0  0  0  0  0  0  0  0  0  # atno 10029 bound_to 10008
   13.9832  -10.1186   36.6315 H   0  0  0  0  0  0  0  0  0  0  0  0  # atno 10728 bound_to 10707
   18.2395   -7.6840   40.7150 H   0  0  0  0  0  0  0  0  0  0  0  0  # atno 10774 bound_to 10756
   22.0835   -6.9314   41.6169 H   0  0  0  0  0  0  0  0  0  0  0  0  # atno 10816 bound_to 10800
   22.4384  -11.3396   38.5381 H   0  0  0  0  0  0  0  0  0  0  0  0  # atno 10915 bound_to 10907
   21.8289   -9.3088   35.8471 H   0  0  0  0  0  0  0  0  0  0  0  0  # atno 10960 bound_to 10936
   17.0900  -13.9658   34.2495 H   0  0  0  0  0  0  0  0  0  0  0  0  # atno 10968 bound_to 10947
   13.3645   -5.7217   36.4487 H   0  0  0  0  0  0  0  0  0  0  0  0  # atno 11104 bound_to 11082
   12.7493   -4.0056   32.8958 H   0  0  0  0  0  0  0  0  0  0  0  0  # atno 11164 bound_to 11142
   15.2189   -1.7151   30.2006 H   0  0  0  0  0  0  0  0  0  0  0  0  # atno 11206 bound_to 11196
   13.4023   -0.6927   26.5390 H   0  0  0  0  0  0  0  0  0  0  0  0  # atno 11245 bound_to 11229
   14.3477    1.9806   25.9998 H   0  0  0  0  0  0  0  0  0  0  0  0  # atno 11284 bound_to 11266
   11.1427    4.3185   29.4678 H   0  0  0  0  0  0  0  0  0  0  0  0  # atno 11374 bound_to 11358
    9.1202    3.5359   28.9556 H   0  0  0  0  0  0  0  0  0  0  0  0  # atno 11434 bound_to 11416
   11.1372    0.9594   30.5812 H   0  0  0  0  0  0  0  0  0  0  0  0  # atno 11482 bound_to 11466
   13.0983    8.0771   33.6859 H   0  0  0  0  0  0  0  0  0  0  0  0  # atno 11559 bound_to 11538
    9.1334  -10.9718   38.5346 H   0  0  0  0  0  0  0  0  0  0  0  0  # atno 11995 bound_to 11973
   10.5949  -14.7692   37.9301 H   0  0  0  0  0  0  0  0  0  0  0  0  # atno 12067 bound_to 12045
   16.0508  -18.5554   37.2560 H   0  0  0  0  0  0  0  0  0  0  0  0  # atno 12157 bound_to 12142
   26.8410   14.4990   35.0538 H   0  0  0  0  0  0  0  0  0  0  0  0  # atno 15083 bound_to 15054
   27.1086   15.4896   33.7520 H   0  0  0  0  0  0  0  0  0  0  0  0  # atno 15084 bound_to 15054
   26.0962   15.9767   34.9705 H   0  0  0  0  0  0  0  0  0  0  0  0  # atno 15085 bound_to 15054
   32.0683   10.4910   31.3324 H   0  0  0  0  0  0  0  0  0  0  0  0  # atno 15194 bound_to 15161
   32.6290   12.0178   31.0118 H   0  0  0  0  0  0  0  0  0  0  0  0  # atno 15195 bound_to 15161
   31.0850   11.5937   30.5821 H   0  0  0  0  0  0  0  0  0  0  0  0  # atno 15196 bound_to 15161
   27.8261   10.8774   26.6604 H   0  0  0  0  0  0  0  0  0  0  0  0  # atno 15326 bound_to 15310
    8.9693  -12.0735   27.6684 H   0  0  0  0  0  0  0  0  0  0  0  0  # atno 15542 bound_to 15533
    9.4007  -14.6827   27.7913 H   0  0  0  0  0  0  0  0  0  0  0  0  # atno 15588 bound_to 15579
    8.8141  -18.3195   29.8975 H   0  0  0  0  0  0  0  0  0  0  0  0  # atno 15633 bound_to 15624
   11.2215  -15.6377   27.4601 LP  0  0  0  0  0  0  0  0  0  0  0  0  # atno 16458 bound_to 15536
   11.2845  -14.1006   28.2559 LP  0  0  0  0  0  0  0  0  0  0  0  0  # atno 16459 bound_to 15536
   15.7493  -13.0633   34.4373 LP  0  0  0  0  0  0  0  0  0  0  0  0  # atno 16460 bound_to 10947
   16.6312  -13.5015   35.7399 LP  0  0  0  0  0  0  0  0  0  0  0  0  # atno 16461 bound_to 10947
   13.3359  -11.2378   37.6196 LP  0  0  0  0  0  0  0  0  0  0  0  0  # atno 16466 bound_to 10707
   14.8045  -11.4867   36.9504 LP  0  0  0  0  0  0  0  0  0  0  0  0  # atno 16467 bound_to 10707
   21.3315  -12.2754   35.5895 LP  0  0  0  0  0  0  0  0  0  0  0  0  # atno 16468 bound_to 10881
   21.5250  -13.6708   36.5972 LP  0  0  0  0  0  0  0  0  0  0  0  0  # atno 16469 bound_to 10881
   22.2207   -8.3428   34.1838 LP  0  0  0  0  0  0  0  0  0  0  0  0  # atno 16470 bound_to 10910
   23.7328   -8.4410   35.0229 LP  0  0  0  0  0  0  0  0  0  0  0  0  # atno 16471 bound_to 10910
   20.6550   -9.3194   37.1395 LP  0  0  0  0  0  0  0  0  0  0  0  0  # atno 16472 bound_to 10936
   15.2072   -7.0985   35.6253 LP  0  0  0  0  0  0  0  0  0  0  0  0  # atno 16473 bound_to 10997
   16.7132   -6.4649   35.0503 LP  0  0  0  0  0  0  0  0  0  0  0  0  # atno 16474 bound_to 10997
   12.1841  -11.6270   36.9546 LP  0  0  0  0  0  0  0  0  0  0  0  0  # atno 16475 bound_to 11976
   11.9293  -11.4309   38.6565 LP  0  0  0  0  0  0  0  0  0  0  0  0  # atno 16476 bound_to 11976
   12.2656  -16.0789   36.4889 LP  0  0  0  0  0  0  0  0  0  0  0  0  # atno 16477 bound_to 12048
   12.2384  -17.0396   37.9299 LP  0  0  0  0  0  0  0  0  0  0  0  0  # atno 16478 bound_to 12048
   18.0964   -8.8567   37.3723 LP  0  0  0  0  0  0  0  0  0  0  0  0  # atno 16480 bound_to 10939
   19.2039   -8.0403   38.4244 LP  0  0  0  0  0  0  0  0  0  0  0  0  # atno 16481 bound_to 10939
   11.2507   -6.3849   36.8069 LP  0  0  0  0  0  0  0  0  0  0  0  0  # atno 16483 bound_to 11039
   12.1966   -7.2276   35.6258 LP  0  0  0  0  0  0  0  0  0  0  0  0  # atno 16484 bound_to 11039
   10.8686  -13.0678   38.2143 LP  0  0  0  0  0  0  0  0  0  0  0  0  # atno 16485 bound_to 12045
    8.0414  -11.8969   26.1977 LP  0  0  0  0  0  0  0  0  0  0  0  0  # atno 16490 bound_to 15533
    7.6629  -14.9122   27.8337 LP  0  0  0  0  0  0  0  0  0  0  0  0  # atno 16491 bound_to 15579
    9.2757  -17.0603   26.8084 LP  0  0  0  0  0  0  0  0  0  0  0  0  # atno 16492 bound_to 15582
    8.4267  -18.4973   27.2715 LP  0  0  0  0  0  0  0  0  0  0  0  0  # atno 16493 bound_to 15582
   10.2689  -17.4443   29.4729 LP  0  0  0  0  0  0  0  0  0  0  0  0  # atno 16494 bound_to 15624
   21.0256  -10.9016   37.6012 LP  0  0  0  0  0  0  0  0  0  0  0  0  # atno 16495 bound_to 10907
   25.4995  -10.2718   37.6052 LP  0  0  0  0  0  0  0  0  0  0  0  0  # atno 16496 bound_to 6104
   25.3274  -10.4735   35.8936 LP  0  0  0  0  0  0  0  0  0  0  0  0  # atno 16497 bound_to 6104
   26.4640  -12.1879   36.8108 LP  0  0  0  0  0  0  0  0  0  0  0  0  # atno 16498 bound_to 6129
   30.2470   -9.5784   33.6794 LP  0  0  0  0  0  0  0  0  0  0  0  0  # atno 16499 bound_to 5910
   28.8313   -8.6125   33.4293 LP  0  0  0  0  0  0  0  0  0  0  0  0  # atno 16500 bound_to 5910
   29.4829  -11.6029   36.8262 LP  0  0  0  0  0  0  0  0  0  0  0  0  # atno 16501 bound_to 6101
   27.8863   -9.0014   36.6697 LP  0  0  0  0  0  0  0  0  0  0  0  0  # atno 16502 bound_to 5850
   29.4004   -9.5604   37.2983 LP  0  0  0  0  0  0  0  0  0  0  0  0  # atno 16503 bound_to 5850
   28.8383   -5.8831   37.1434 LP  0  0  0  0  0  0  0  0  0  0  0  0  # atno 16504 bound_to 5907
   29.7015  -13.9914   37.1481 LP  0  0  0  0  0  0  0  0  0  0  0  0  # atno 16505 bound_to 6051
   29.0702  -13.7491   35.5535 LP  0  0  0  0  0  0  0  0  0  0  0  0  # atno 16506 bound_to 6051
   32.6715  -11.1502   33.5151 LP  0  0  0  0  0  0  0  0  0  0  0  0  # atno 16507 bound_to 5982
   31.9681  -12.2203   34.6813 LP  0  0  0  0  0  0  0  0  0  0  0  0  # atno 16508 bound_to 5982
   31.5976   -6.9813   35.1999 LP  0  0  0  0  0  0  0  0  0  0  0  0  # atno 16509 bound_to 5979
   31.8027   -9.7170   37.0465 LP  0  0  0  0  0  0  0  0  0  0  0  0  # atno 16510 bound_to 6048
   12.4019   -3.7874   29.7746 LP  0  0  0  0  0  0  0  0  0  0  0  0  # atno 16511 bound_to 11145
   12.8485   -4.6897   31.1839 LP  0  0  0  0  0  0  0  0  0  0  0  0  # atno 16512 bound_to 11145
   14.0484   -2.9946   30.4762 LP  0  0  0  0  0  0  0  0  0  0  0  0  # atno 16513 bound_to 11196
   16.5154   -0.3766   28.2555 LP  0  0  0  0  0  0  0  0  0  0  0  0  # atno 16514 bound_to 11199
   15.3642    0.1333   29.4449 LP  0  0  0  0  0  0  0  0  0  0  0  0  # atno 16515 bound_to 11199
   14.8748   -1.2526   27.3084 LP  0  0  0  0  0  0  0  0  0  0  0  0  # atno 16516 bound_to 11229
   14.0400   -3.9321   34.0647 LP  0  0  0  0  0  0  0  0  0  0  0  0  # atno 16525 bound_to 11142
   14.4814   -1.5601   34.1574 LP  0  0  0  0  0  0  0  0  0  0  0  0  # atno 16530 bound_to 11085
   14.8937   -2.4261   35.5997 LP  0  0  0  0  0  0  0  0  0  0  0  0  # atno 16531 bound_to 11085
   14.1069   -4.2356   37.0002 LP  0  0  0  0  0  0  0  0  0  0  0  0  # atno 16533 bound_to 11082
   16.0035    3.4574   25.9919 LP  0  0  0  0  0  0  0  0  0  0  0  0  # atno 16538 bound_to 11232
   17.0481    2.1104   26.2994 LP  0  0  0  0  0  0  0  0  0  0  0  0  # atno 16539 bound_to 11232
   13.9219    1.3987   27.6007 LP  0  0  0  0  0  0  0  0  0  0  0  0  # atno 16542 bound_to 11266
   15.8213    2.7375   35.9533 LP  0  0  0  0  0  0  0  0  0  0  0  0  # atno 16548 bound_to 9421
   11.5167    3.0696   29.4238 LP  0  0  0  0  0  0  0  0  0  0  0  0  # atno 16549 bound_to 11269
   12.7965    1.9034   29.3807 LP  0  0  0  0  0  0  0  0  0  0  0  0  # atno 16550 bound_to 11269
   11.1185    3.1598   32.0745 LP  0  0  0  0  0  0  0  0  0  0  0  0  # atno 16552 bound_to 11318
   10.9819    4.6984   32.8580 LP  0  0  0  0  0  0  0  0  0  0  0  0  # atno 16553 bound_to 11318
    9.6506    1.6471   31.2015 LP  0  0  0  0  0  0  0  0  0  0  0  0  # atno 16554 bound_to 11466
   11.4315    5.7429   30.4217 LP  0  0  0  0  0  0  0  0  0  0  0  0  # atno 16555 bound_to 11358
   13.3597    7.6236   35.2265 LP  0  0  0  0  0  0  0  0  0  0  0  0  # atno 16556 bound_to 11538
   12.4179    8.9175   34.9017 LP  0  0  0  0  0  0  0  0  0  0  0  0  # atno 16557 bound_to 11538
   17.1699    9.5399   38.7468 LP  0  0  0  0  0  0  0  0  0  0  0  0  # atno 16558 bound_to 9314
   17.6278    8.1591   37.8068 LP  0  0  0  0  0  0  0  0  0  0  0  0  # atno 16559 bound_to 9314
   18.7166    7.4768   39.9459 LP  0  0  0  0  0  0  0  0  0  0  0  0  # atno 16560 bound_to 9335
   16.4421    5.0785   40.0668 LP  0  0  0  0  0  0  0  0  0  0  0  0  # atno 16561 bound_to 9338
   15.8991    3.8742   38.9466 LP  0  0  0  0  0  0  0  0  0  0  0  0  # atno 16562 bound_to 9338
   20.7662    6.2874   37.8879 LP  0  0  0  0  0  0  0  0  0  0  0  0  # atno 16563 bound_to 9341
   21.4170    5.1121   38.8162 LP  0  0  0  0  0  0  0  0  0  0  0  0  # atno 16564 bound_to 9341
   13.4090    3.7437   38.2966 LP  0  0  0  0  0  0  0  0  0  0  0  0  # atno 16565 bound_to 9380
   13.4591    2.1466   37.6282 LP  0  0  0  0  0  0  0  0  0  0  0  0  # atno 16566 bound_to 9380
   15.6987    2.7144   39.0958 LP  0  0  0  0  0  0  0  0  0  0  0  0  # atno 16567 bound_to 9469
   29.6897   -4.7895   37.9572 LP  0  0  0  0  0  0  0  0  0  0  0  0  # atno 16570 bound_to 5709
   29.3688   -3.5724   36.7674 LP  0  0  0  0  0  0  0  0  0  0  0  0  # atno 16571 bound_to 5709
   26.7183    0.4414   41.8024 LP  0  0  0  0  0  0  0  0  0  0  0  0  # atno 16574 bound_to 7822
   28.8060    4.5831   41.4689 LP  0  0  0  0  0  0  0  0  0  0  0  0  # atno 16575 bound_to 7825
   29.6617    3.3781   42.3721 LP  0  0  0  0  0  0  0  0  0  0  0  0  # atno 16576 bound_to 7825
   29.5198   -2.1393   41.4896 LP  0  0  0  0  0  0  0  0  0  0  0  0  # atno 16579 bound_to 5706
   31.8800   -2.1554   39.1382 LP  0  0  0  0  0  0  0  0  0  0  0  0  # atno 16580 bound_to 5761
   35.0920   -2.4189   36.1451 LP  0  0  0  0  0  0  0  0  0  0  0  0  # atno 16581 bound_to 5766
   34.4134   -1.1350   36.8920 LP  0  0  0  0  0  0  0  0  0  0  0  0  # atno 16582 bound_to 5766
   28.6957    0.4271   41.9535 LP  0  0  0  0  0  0  0  0  0  0  0  0  # atno 16583 bound_to 7781
   28.0813   -0.0746   43.4933 LP  0  0  0  0  0  0  0  0  0  0  0  0  # atno 16584 bound_to 7781
   26.0876    2.6969   42.8841 LP  0  0  0  0  0  0  0  0  0  0  0  0  # atno 16585 bound_to 7866
   13.9007   -0.1942   39.4883 LP  0  0  0  0  0  0  0  0  0  0  0  0  # atno 16593 bound_to 9424
   15.3575   -1.0705   39.1565 LP  0  0  0  0  0  0  0  0  0  0  0  0  # atno 16594 bound_to 9424
   20.0175   -3.1495   41.9822 LP  0  0  0  0  0  0  0  0  0  0  0  0  # atno 16595 bound_to 9480
   21.3551   -2.2132   41.9534 LP  0  0  0  0  0  0  0  0  0  0  0  0  # atno 16596 bound_to 9480
   19.5416    1.9045   43.7726 LP  0  0  0  0  0  0  0  0  0  0  0  0  # atno 16597 bound_to 7659
   20.2938    3.3826   43.2732 LP  0  0  0  0  0  0  0  0  0  0  0  0  # atno 16598 bound_to 7659
   24.6768    2.3667   43.9157 LP  0  0  0  0  0  0  0  0  0  0  0  0  # atno 16599 bound_to 7717
   25.5935    0.9385   44.2618 LP  0  0  0  0  0  0  0  0  0  0  0  0  # atno 16600 bound_to 7717
   22.9205    1.6472   45.2238 LP  0  0  0  0  0  0  0  0  0  0  0  0  # atno 16601 bound_to 7714
   17.8657   -6.0878   42.2353 LP  0  0  0  0  0  0  0  0  0  0  0  0  # atno 16602 bound_to 10532
   18.7811   -4.7124   41.7153 LP  0  0  0  0  0  0  0  0  0  0  0  0  # atno 16603 bound_to 10532
   17.6063   10.7859   41.3399 LP  0  0  0  0  0  0  0  0  0  0  0  0  # atno 16604 bound_to 9311
   26.5009   11.7721   26.3570 LP  0  0  0  0  0  0  0  0  0  0  0  0  # atno 16607 bound_to 15310
   27.4916   11.3348   25.1347 LP  0  0  0  0  0  0  0  0  0  0  0  0  # atno 16608 bound_to 15310
   18.6686    7.9185   44.4481 LP  0  0  0  0  0  0  0  0  0  0  0  0  # atno 16611 bound_to 7554
   17.1744    8.5100   45.0940 LP  0  0  0  0  0  0  0  0  0  0  0  0  # atno 16612 bound_to 7554
   22.1300    5.6770   43.9091 LP  0  0  0  0  0  0  0  0  0  0  0  0  # atno 16613 bound_to 7623
   22.4732    4.2216   44.7833 LP  0  0  0  0  0  0  0  0  0  0  0  0  # atno 16614 bound_to 7623
   13.8261   11.9273   42.8098 LP  0  0  0  0  0  0  0  0  0  0  0  0  # atno 16615 bound_to 9280
   14.8307    8.6633   41.8203 LP  0  0  0  0  0  0  0  0  0  0  0  0  # atno 16616 bound_to 9283
   15.4858    9.3329   43.2772 LP  0  0  0  0  0  0  0  0  0  0  0  0  # atno 16617 bound_to 9283
   13.5902   14.4431   40.1072 LP  0  0  0  0  0  0  0  0  0  0  0  0  # atno 16618 bound_to 9228
   15.0645   13.9005   40.8367 LP  0  0  0  0  0  0  0  0  0  0  0  0  # atno 16619 bound_to 9228
   19.6692    6.4335   47.4016 LP  0  0  0  0  0  0  0  0  0  0  0  0  # atno 16620 bound_to 7620
   11.0766   14.8467   41.9055 LP  0  0  0  0  0  0  0  0  0  0  0  0  # atno 16628 bound_to 9225
   13.5351    2.3367   40.4765 LP  0  0  0  0  0  0  0  0  0  0  0  0  # atno 16635 bound_to 9528
   22.9390   20.6090   37.3897 LP  0  0  0  0  0  0  0  0  0  0  0  0  # atno 16636 bound_to 3357
   24.3567   19.7152   36.9524 LP  0  0  0  0  0  0  0  0  0  0  0  0  # atno 16637 bound_to 3357
   22.4576   20.5197   40.7468 LP  0  0  0  0  0  0  0  0  0  0  0  0  # atno 16638 bound_to 3415
   21.4129   21.5003   39.7736 LP  0  0  0  0  0  0  0  0  0  0  0  0  # atno 16639 bound_to 3415
   24.8163   21.9574   37.4622 LP  0  0  0  0  0  0  0  0  0  0  0  0  # atno 16640 bound_to 3412
   25.1451   21.7012   39.2508 LP  0  0  0  0  0  0  0  0  0  0  0  0  # atno 16641 bound_to 3478
    9.5331   14.5935   43.3156 LP  0  0  0  0  0  0  0  0  0  0  0  0  # atno 16646 bound_to 9102
    7.9428   14.3765   43.9668 LP  0  0  0  0  0  0  0  0  0  0  0  0  # atno 16647 bound_to 9102
   10.5548   14.3229   45.9412 LP  0  0  0  0  0  0  0  0  0  0  0  0  # atno 16648 bound_to 9168
   14.8497   15.9461   46.9772 LP  0  0  0  0  0  0  0  0  0  0  0  0  # atno 16649 bound_to 9178
   14.8820   17.1307   48.1008 LP  0  0  0  0  0  0  0  0  0  0  0  0  # atno 16650 bound_to 9178
    9.7251   24.2977   35.3691 LP  0  0  0  0  0  0  0  0  0  0  0  0  # atno 16654 bound_to 6255
   10.9814   23.8197   36.2965 LP  0  0  0  0  0  0  0  0  0  0  0  0  # atno 16655 bound_to 6255
   12.4283   18.2711   48.6403 LP  0  0  0  0  0  0  0  0  0  0  0  0  # atno 16656 bound_to 9176
   11.8428   18.6989   47.1771 LP  0  0  0  0  0  0  0  0  0  0  0  0  # atno 16657 bound_to 9176

> <Gold.Score>
     Fitness  S(hb_ext) S(vdw_ext)  S(hb_int)    S(int)      intcor
     26.31       0.00      19.20       0.00      -0.08      -0.76

> <Gold.Goldscore.Fitness>
26.3140

> <Gold.Goldscore.Internal.Vdw>
-0.4191

> <Gold.Goldscore.Internal.Torsion>
-0.4198

> <Gold.Goldscore.External.Vdw>
19.1974

> <Gold.Goldscore.Internal.HBond>
0.0000

> <Gold.Goldscore.External.HBond>
0.0000

> <Gold.Goldscore.Internal.Correction>
-0.7565

> <Gold.Goldscore.Internal.Vdw.Weighted>
-0.4191

> <Gold.Goldscore.Internal.Torsion.Weighted>
-0.4198

> <Gold.Goldscore.External.Vdw.Weighted>
26.3964

> <Gold.Goldscore.Internal.HBond.Weighted>
0.0000

> <Gold.Goldscore.External.HBond.Weighted>
0.0000

> <Gold.Goldscore.Internal.Correction.Weighted>
-0.7565

> <Gold.Rescore>
     Score     S(PLP)   S(hbond)     S(cho)   S(metal)  DE(clash)   DE(tors)     intcor
     26.54     -26.92       0.00       0.00       0.00       0.00       0.19       ----

> <Gold.PLP.Fitness>
26.5426

> <Gold.PLP.PLP>
-26.9170

> <Gold.PLP.part.hbond>
-0.3867

> <Gold.PLP.part.metal>
0.0000

> <Gold.PLP.part.buried>
-1.0165

> <Gold.PLP.part.nonpolar>
-27.0252

> <Gold.PLP.part.repulsive>
1.8092

> <Gold.PLP.ligand.clash>
0.0000

> <Gold.PLP.ligand.torsion>
0.1872

> <Gold.PLP.Chemscore.Hbond>
0.0000

> <Gold.PLP.Chemscore.CHOScore>
0.0000

> <Gold.PLP.Chemscore.Metal>
0.0000

> <Gold.PLP.Chemscore.Internal.Correction>
   9.000000E+99

