#       Name:                CT1002167954
#       Creating user name   hitesit
#       Creation time:       Sun Apr 16 22:54:13 2023


#       File generated by GOLD software.
#

@<TRIPOS>MOLECULE
CT1002167954|ligand_prepared|mol2|1|dock3
    29    30     1
SMALL
NO_CHARGES


@<TRIPOS>ATOM
      1 C1          25.0074  10.5533  40.1212 C.3            1 RES1               0.0000
      2 C2          24.6243  11.8213  40.9112 C.ar           1 RES1               0.0000
      3 C3          26.5108  10.6398  39.8751 C.2            1 RES1               0.0000
      4 C4          24.5853   9.3693  40.9841 C.2            1 RES1               0.0000
      5 C5          24.2925  10.4282  38.7556 C.3            1 RES1               0.0000
      6 C6          25.0256  11.9802  42.2343 C.ar           1 RES1               0.0000
      7 C7          23.8736  12.8402  40.3307 C.ar           1 RES1               0.0000
      8 N8          27.3188   9.8188  40.6052 N.am           1 RES1               0.0000
      9 O9          26.9831  11.4439  39.0810 O.2            1 RES1               0.0000
     10 N10         25.5685   8.5554  41.4827 N.am           1 RES1               0.0000
     11 O11         23.4113   9.1435  41.2504 O.2            1 RES1               0.0000
     12 C12         24.5166   9.0914  38.0664 C.3            1 RES1               0.0000
     13 C13         24.6911  13.1176  42.9502 C.ar           1 RES1               0.0000
     14 C14         23.5400  13.9768  41.0486 C.ar           1 RES1               0.0000
     15 C15         26.9179   8.7442  41.3577 C.2            1 RES1               0.0000
     16 C16         23.9486  14.1168  42.3579 C.ar           1 RES1               0.0000
     17 O17         27.7410   7.9987  41.8811 O.2            1 RES1               0.0000
     18 H18         23.2154  10.5715  38.9064 H              1 RES1               0.0000
     19 H19         24.6482  11.2294  38.0961 H              1 RES1               0.0000
     20 H20         25.6084  11.2034  42.7179 H              1 RES1               0.0000
     21 H21         23.5403  12.7511  39.3023 H              1 RES1               0.0000
     22 H22         28.3130  10.0227  40.5903 H              1 RES1               0.0000
     23 H23         25.2665   7.7323  41.9943 H              1 RES1               0.0000
     24 H24         23.9935   9.0564  37.1131 H              1 RES1               0.0000
     25 H25         25.5756   8.9272  37.8781 H              1 RES1               0.0000
     26 H26         24.1513   8.2732  38.6837 H              1 RES1               0.0000
     27 H27         25.0139  13.2224  43.9808 H              1 RES1               0.0000
     28 H28         22.9549  14.7604  40.5786 H              1 RES1               0.0000
     29 H29         23.6870  15.0079  42.9188 H              1 RES1               0.0000
@<TRIPOS>BOND
    1    1    2 1     
    2    1    3 1     
    3    1    4 1     
    4    1    5 1     
    5    2    6 ar    
    6    2    7 ar    
    7    3    8 1     
    8    3    9 2     
    9    4   10 1     
   10    4   11 2     
   11    5   12 1     
   12    5   18 1     
   13    5   19 1     
   14    6   13 ar    
   15    6   20 1     
   16    7   14 ar    
   17    7   21 1     
   18    8   15 1     
   19    8   22 1     
   20   10   15 1     
   21   10   23 1     
   22   12   24 1     
   23   12   25 1     
   24   12   26 1     
   25   13   16 ar    
   26   13   27 1     
   27   14   16 ar    
   28   14   28 1     
   29   15   17 2     
   30   16   29 1     
@<TRIPOS>SUBSTRUCTURE
      1 RES1           1
@<TRIPOS>SET
DONOR_HYDROGENS      STATIC     ATOMS    <user>   **** ""
2 22 23
ATOM$RED        STATIC     ATOMS    COLORGROUP SYSTEM
2 22 23
@<TRIPOS>COMMENT
> <Gold.Version>
2022.3.0

> <Gold.Id.Protein>
unknown|3mvj_clean|pdb

> <Gold.Protein.RotatedTorsions>
[ 10968 10947 10946 10944 ] final  -20.30 input   60.01 | X-H torsion
[ 10728 10707 10706 10704 ] final  -97.66 input   59.96 | X-H torsion
[ 10960 10936 10937 10938 ] final  166.61 input   23.31 | X-H torsion
[ 12067 12045 12046 12047 ] final  114.24 input   63.71 | X-H torsion
[ 15542 15533 15534 15535 ] final -140.47 input   83.29 | X-H torsion
[ 15588 15579 15580 15581 ] final   61.17 input  107.67 | X-H torsion
[ 15633 15624 15625 15626 ] final  -58.68 input   84.82 | X-H torsion
[ 10915 10907 10908 10909 ] final -171.90 input  -87.38 | X-H torsion
[ 6151 6129 6130 6131 ] final  -97.40 input   27.76 | X-H torsion
[ 6109 6101 6102 6103 ] final -117.84 input  -93.79 | X-H torsion
[ 5929 5907 5908 5909 ] final   22.12 input  119.25 | X-H torsion
[ 6001 5979 5980 5981 ] final -130.83 input  112.51 | X-H torsion
[ 6064 6048 6049 6050 ] final   71.60 input  108.26 | X-H torsion
[ 11206 11196 11197 11198 ] final  -37.28 input   -0.63 | X-H torsion
[ 11245 11229 11230 11231 ] final -167.68 input  120.69 | X-H torsion
[ 11164 11142 11143 11144 ] final -146.48 input   33.88 | X-H torsion
[ 11104 11082 11083 11084 ] final  101.11 input   45.00 | X-H torsion
[ 11284 11266 11267 11268 ] final  175.91 input   49.58 | X-H torsion
[ 9439 9421 9422 9423 ] final  145.97 input  116.39 | X-H torsion
[ 11482 11466 11467 11468 ] final -146.73 input  126.08 | X-H torsion
[ 11374 11358 11359 11360 ] final  143.04 input   98.08 | X-H torsion
[ 11559 11538 11537 11535 ] final  165.51 input   60.01 | X-H torsion
[ 9349 9335 9336 9337 ] final  -45.38 input   84.14 | X-H torsion
[ 9355 9341 9339 9336 ] final  -88.98 input   60.02 | X-H torsion
[ 9493 9469 9470 9471 ] final  142.72 input   75.21 | X-H torsion
[ 7840 7822 7823 7824 ] final   29.08 input  121.36 | X-H torsion
[ 7742 7722 7721 7720 ] final   15.24 input   60.01 | X-H torsion
[ 5728 5706 5707 5708 ] final  140.18 input  119.20 | X-H torsion
[ 5773 5761 5762 5763 ] final -140.00 input  120.20 | X-H torsion
[ 5777 5766 5765 5762 ] final  -96.32 input   59.99 | X-H torsion
[ 7882 7866 7867 7868 ] final  -96.19 input   81.17 | X-H torsion
[ 9501 9480 9479 9477 ] final   20.50 input   60.03 | X-H torsion
[ 7732 7714 7715 7716 ] final -109.21 input  -10.67 | X-H torsion
[ 15083 15054 15053 15052 ] final -132.83 input   60.01 | X-H torsion
[ 9319 9311 9312 9313 ] final   -7.34 input  -66.31 | X-H torsion
[ 15194 15161 15160 15159 ] final   76.77 input   59.99 | X-H torsion
[ 15326 15310 15309 15306 ] final  -31.90 input   59.99 | X-H torsion
[ 9292 9280 9281 9282 ] final  -36.43 input   22.77 | X-H torsion
[ 7636 7620 7621 7622 ] final -166.66 input   34.37 | X-H torsion
[ 9241 9225 9226 9227 ] final  108.59 input   96.07 | X-H torsion
[ 9544 9528 9529 9530 ] final  -63.49 input   99.68 | X-H torsion
[ 3443 3412 3413 3414 ] final   42.60 input -120.58 | X-H torsion
[ 3504 3478 3479 3480 ] final   25.69 input   70.69 | X-H torsion
[ 9190 9168 9169 9170 ] final  -67.14 input  115.65 | X-H torsion
[ 9198 9178 9175 9174 ] final  -69.45 input   59.98 | X-H torsion
[ 6282 6255 6254 6251 ] final -159.47 input   60.00 | X-H torsion
[ 9196 9176 9175 9174 ] final  100.77 input   60.01 | X-H torsion
[ 12157 12142 12143 12144 ] final    4.65 input  108.55 | X-H torsion
[ 11995 11973 11974 11975 ] final -170.59 input   68.31 | X-H torsion
[ 11434 11416 11417 11418 ] final -105.77 input  102.35 | X-H torsion
[ 5626 5608 5609 5610 ] final  -15.62 input  119.09 | X-H torsion
[ 10774 10756 10757 10758 ] final  161.59 input  129.22 | X-H torsion
[ 10816 10800 10801 10802 ] final  -39.79 input  128.85 | X-H torsion
[ 8641 8619 8620 8621 ] final -123.33 input   87.35 | X-H torsion
[ 3659 3632 3633 3634 ] final  139.47 input  116.97 | X-H torsion
[ 10029 10008 10007 10005 ] final  136.09 input   60.01 | X-H torsion
[ 16458 15536 15535 15534 ] final -108.09 input    0.00 | X-H torsion
[ 16468 10881 10880 10879 ] final   -8.50 input    0.00 | X-H torsion
[ 16470 10910 10909 10908 ] final -154.55 input    0.00 | X-H torsion
[ 16473 10997 10996 10995 ] final  -26.59 input    0.00 | X-H torsion
[ 16475 11976 11975 11974 ] final  -14.06 input    0.00 | X-H torsion
[ 16477 12048 12047 12046 ] final  132.16 input    0.00 | X-H torsion
[ 16480 10939 10938 10937 ] final   77.34 input   -0.00 | X-H torsion
[ 16483 11039 11038 11037 ] final   11.52 input    0.00 | X-H torsion
[ 16492 15582 15581 15580 ] final  -21.23 input    0.00 | X-H torsion
[ 16496 6104 6103 6102 ] final  161.79 input    0.00 | X-H torsion
[ 16499 5910 5909 5908 ] final  151.81 input   -0.00 | X-H torsion
[ 16502 5850 5849 5848 ] final   64.51 input    0.00 | X-H torsion
[ 16505 6051 6050 6049 ] final -161.76 input    0.00 | X-H torsion
[ 16507 5982 5981 5980 ] final  130.60 input    0.00 | X-H torsion
[ 16511 11145 11144 11143 ] final   18.38 input    0.00 | X-H torsion
[ 16514 11199 11198 11197 ] final -101.25 input    0.00 | X-H torsion
[ 16530 11085 11084 11083 ] final  157.59 input   -0.00 | X-H torsion
[ 16538 11232 11231 11230 ] final  154.98 input    0.00 | X-H torsion
[ 16549 11269 11268 11267 ] final  147.85 input   -0.00 | X-H torsion
[ 16552 11318 11317 11316 ] final -135.95 input    0.00 | X-H torsion
[ 16558 9314 9313 9312 ] final  122.81 input    0.00 | X-H torsion
[ 16561 9338 9337 9336 ] final   -5.39 input    0.00 | X-H torsion
[ 16565 9380 9379 9378 ] final  -56.15 input    0.00 | X-H torsion
[ 16570 5709 5708 5707 ] final   12.79 input    0.00 | X-H torsion
[ 16575 7825 7824 7823 ] final   91.81 input    0.00 | X-H torsion
[ 16583 7781 7780 7779 ] final  -29.36 input   -0.00 | X-H torsion
[ 16593 9424 9423 9422 ] final  -75.64 input   -0.00 | X-H torsion
[ 16597 7659 7658 7657 ] final  -11.47 input   -0.00 | X-H torsion
[ 16599 7717 7716 7715 ] final  129.12 input    0.00 | X-H torsion
[ 16602 10532 10531 10530 ] final  -87.44 input    0.00 | X-H torsion
[ 16611 7554 7553 7552 ] final  112.21 input    0.00 | X-H torsion
[ 16613 7623 7622 7621 ] final  -84.70 input   -0.00 | X-H torsion
[ 16616 9283 9282 9281 ] final -125.39 input    0.00 | X-H torsion
[ 16618 9228 9227 9226 ] final   71.37 input   -0.00 | X-H torsion
[ 16636 3357 3356 3355 ] final  -76.28 input   -0.00 | X-H torsion
[ 16638 3415 3414 3413 ] final  -62.25 input   -0.00 | X-H torsion
[ 16646 9102 9101 9100 ] final -140.85 input    0.00 | X-H torsion

> <Gold.Protein.ActiveResidues>
 ARG45   SER53   PHE54   LEU82   LYS83   GLN84   GLU86   HIS87   GLU127  PHE129 
 SER130  HIS131  LEU132  ARG133  ARG134  ILE135  GLY136  ARG137  PHE138  SER139 
 HIS142  ARG165  ASP166  LEU167  LYS168  PRO169  GLU170  ASN171  ASP184  GLY186 
 PHE187  TRP196  TPO197  LEU198  CYS199  GLY200  THR201  PRO202  GLU203  TYR204 
 LEU205  ILE209  ILE210  TYR215  VAL226  LEU227  TYR229  GLU230  MET231  ALA233 
 GLY234  TYR235  PRO236  PRO237  PHE238  PHE239  ALA240  ASP241  GLN242  PRO243 
 ILE244  GLN245  ILE246  TYR247  LYS249  ARG256  PHE257  PRO258  SER259  HIS260 
 PRO313  PHE314  ILE315  LYS317  LYS319  SER325  ASN326  ASP328  ASP329  GLU331 
 GLU332  GLU333  GLU334 

> <Gold.Protein.RotatedAtoms>
   24.5679   21.8687   37.2113 H   0  0  0  0  0  0  0  0  0  0  0  0  # atno 3443 bound_to 3412
   24.9871   22.5689   40.0753 H   0  0  0  0  0  0  0  0  0  0  0  0  # atno 3504 bound_to 3478
   22.8048   19.8447   44.6801 H   0  0  0  0  0  0  0  0  0  0  0  0  # atno 3659 bound_to 3632
   35.4997   -1.9255   42.5618 H   0  0  0  0  0  0  0  0  0  0  0  0  # atno 5626 bound_to 5608
   30.0435   -1.3287   41.2036 H   0  0  0  0  0  0  0  0  0  0  0  0  # atno 5728 bound_to 5706
   30.9799   -1.9499   38.0151 H   0  0  0  0  0  0  0  0  0  0  0  0  # atno 5773 bound_to 5761
   34.7501   -2.6100   35.9030 H   0  0  0  0  0  0  0  0  0  0  0  0  # atno 5777 bound_to 5766
   30.0890   -6.9606   37.2034 H   0  0  0  0  0  0  0  0  0  0  0  0  # atno 5929 bound_to 5907
   30.9929   -7.3092   34.4878 H   0  0  0  0  0  0  0  0  0  0  0  0  # atno 6001 bound_to 5979
   31.2405   -9.6642   36.7644 H   0  0  0  0  0  0  0  0  0  0  0  0  # atno 6064 bound_to 6048
   29.5553  -10.3917   35.6140 H   0  0  0  0  0  0  0  0  0  0  0  0  # atno 6109 bound_to 6101
   27.3900  -11.6446   37.4517 H   0  0  0  0  0  0  0  0  0  0  0  0  # atno 6151 bound_to 6129
   10.8655   24.3426   36.8494 H   0  0  0  0  0  0  0  0  0  0  0  0  # atno 6282 bound_to 6255
   18.7800    7.6031   46.5325 H   0  0  0  0  0  0  0  0  0  0  0  0  # atno 7636 bound_to 7620
   21.7611    1.3097   45.1865 H   0  0  0  0  0  0  0  0  0  0  0  0  # atno 7732 bound_to 7714
   22.1317    5.7147   41.7090 H   0  0  0  0  0  0  0  0  0  0  0  0  # atno 7742 bound_to 7722
   23.4589    6.6703   41.4418 H   0  0  0  0  0  0  0  0  0  0  0  0  # atno 7743 bound_to 7722
   22.1688    6.7347   40.4028 H   0  0  0  0  0  0  0  0  0  0  0  0  # atno 7744 bound_to 7722
   25.8294    1.3309   42.0666 H   0  0  0  0  0  0  0  0  0  0  0  0  # atno 7840 bound_to 7822
   27.6758    3.0393   42.3281 H   0  0  0  0  0  0  0  0  0  0  0  0  # atno 7882 bound_to 7866
   22.6734   13.9627   46.3790 H   0  0  0  0  0  0  0  0  0  0  0  0  # atno 8641 bound_to 8619
    9.6289   14.9988   45.2844 H   0  0  0  0  0  0  0  0  0  0  0  0  # atno 9190 bound_to 9168
   11.7663   18.2857   48.1258 H   0  0  0  0  0  0  0  0  0  0  0  0  # atno 9196 bound_to 9176
   14.8543   15.9805   46.8843 H   0  0  0  0  0  0  0  0  0  0  0  0  # atno 9198 bound_to 9178
   11.2718   14.9518   41.8199 H   0  0  0  0  0  0  0  0  0  0  0  0  # atno 9241 bound_to 9225
   13.3509   11.1407   41.6640 H   0  0  0  0  0  0  0  0  0  0  0  0  # atno 9292 bound_to 9280
   16.8751   10.3489   40.0819 H   0  0  0  0  0  0  0  0  0  0  0  0  # atno 9319 bound_to 9311
   17.2691    7.2750   39.8733 H   0  0  0  0  0  0  0  0  0  0  0  0  # atno 9349 bound_to 9335
   21.0070    5.8918   37.8058 H   0  0  0  0  0  0  0  0  0  0  0  0  # atno 9355 bound_to 9341
   16.4951    2.6800   36.1567 H   0  0  0  0  0  0  0  0  0  0  0  0  # atno 9439 bound_to 9421
   16.6702    1.8779   39.0555 H   0  0  0  0  0  0  0  0  0  0  0  0  # atno 9493 bound_to 9469
   21.1631   -2.4313   40.7352 H   0  0  0  0  0  0  0  0  0  0  0  0  # atno 9501 bound_to 9480
   14.2541    2.4572   41.5297 H   0  0  0  0  0  0  0  0  0  0  0  0  # atno 9544 bound_to 9528
   13.0416   12.0700   47.0572 H   0  0  0  0  0  0  0  0  0  0  0  0  # atno 10029 bound_to 10008
   13.5573  -10.1634   36.8919 H   0  0  0  0  0  0  0  0  0  0  0  0  # atno 10728 bound_to 10707
   18.3806   -6.9455   41.0295 H   0  0  0  0  0  0  0  0  0  0  0  0  # atno 10774 bound_to 10756
   21.5777   -8.1380   40.9506 H   0  0  0  0  0  0  0  0  0  0  0  0  # atno 10816 bound_to 10800
   22.4120  -11.5766   38.3818 H   0  0  0  0  0  0  0  0  0  0  0  0  # atno 10915 bound_to 10907
   21.6032   -9.5444   35.7319 H   0  0  0  0  0  0  0  0  0  0  0  0  # atno 10960 bound_to 10936
   15.8609  -13.0369   35.3108 H   0  0  0  0  0  0  0  0  0  0  0  0  # atno 10968 bound_to 10947
   13.6071   -4.3019   37.3040 H   0  0  0  0  0  0  0  0  0  0  0  0  # atno 11104 bound_to 11082
   13.6562   -3.4191   34.1110 H   0  0  0  0  0  0  0  0  0  0  0  0  # atno 11164 bound_to 11142
   15.4148   -2.3391   29.9224 H   0  0  0  0  0  0  0  0  0  0  0  0  # atno 11206 bound_to 11196
   14.5438   -1.6445   26.4779 H   0  0  0  0  0  0  0  0  0  0  0  0  # atno 11245 bound_to 11229
   14.2812    1.9694   25.9810 H   0  0  0  0  0  0  0  0  0  0  0  0  # atno 11284 bound_to 11266
   11.2524    5.7766   29.5084 H   0  0  0  0  0  0  0  0  0  0  0  0  # atno 11374 bound_to 11358
    8.7742    3.6170   29.8093 H   0  0  0  0  0  0  0  0  0  0  0  0  # atno 11434 bound_to 11416
   10.7894    0.5764   30.5966 H   0  0  0  0  0  0  0  0  0  0  0  0  # atno 11482 bound_to 11466
   12.6184    8.7112   33.8922 H   0  0  0  0  0  0  0  0  0  0  0  0  # atno 11559 bound_to 11538
    8.2551  -10.9078   37.3680 H   0  0  0  0  0  0  0  0  0  0  0  0  # atno 11995 bound_to 11973
   10.3496  -14.2335   38.7992 H   0  0  0  0  0  0  0  0  0  0  0  0  # atno 12067 bound_to 12045
   15.9344  -18.3897   37.5833 H   0  0  0  0  0  0  0  0  0  0  0  0  # atno 12157 bound_to 12142
   26.6180   14.6572   35.2776 H   0  0  0  0  0  0  0  0  0  0  0  0  # atno 15083 bound_to 15054
   27.2355   15.1683   33.8267 H   0  0  0  0  0  0  0  0  0  0  0  0  # atno 15084 bound_to 15054
   26.1922   16.1396   34.6723 H   0  0  0  0  0  0  0  0  0  0  0  0  # atno 15085 bound_to 15054
   31.1688   10.7903   30.8927 H   0  0  0  0  0  0  0  0  0  0  0  0  # atno 15194 bound_to 15161
   32.7303   11.0474   31.3865 H   0  0  0  0  0  0  0  0  0  0  0  0  # atno 15195 bound_to 15161
   31.8828   12.2652   30.6468 H   0  0  0  0  0  0  0  0  0  0  0  0  # atno 15196 bound_to 15161
   27.2912   11.4617   25.1256 H   0  0  0  0  0  0  0  0  0  0  0  0  # atno 15326 bound_to 15310
    7.8673  -12.0083   26.3066 H   0  0  0  0  0  0  0  0  0  0  0  0  # atno 15542 bound_to 15533
    7.8641  -15.3258   27.4905 H   0  0  0  0  0  0  0  0  0  0  0  0  # atno 15588 bound_to 15579
    8.9044  -17.9627   29.0802 H   0  0  0  0  0  0  0  0  0  0  0  0  # atno 15633 bound_to 15624
   11.1891  -15.6838   27.5711 LP  0  0  0  0  0  0  0  0  0  0  0  0  # atno 16458 bound_to 15536
   11.3169  -14.0545   28.1448 LP  0  0  0  0  0  0  0  0  0  0  0  0  # atno 16459 bound_to 15536
   17.2120  -13.9404   35.2384 LP  0  0  0  0  0  0  0  0  0  0  0  0  # atno 16460 bound_to 10947
   16.4064  -13.5599   33.8699 LP  0  0  0  0  0  0  0  0  0  0  0  0  # atno 16461 bound_to 10947
   13.6819  -11.6048   37.6367 LP  0  0  0  0  0  0  0  0  0  0  0  0  # atno 16466 bound_to 10707
   14.8874  -11.0746   36.6712 LP  0  0  0  0  0  0  0  0  0  0  0  0  # atno 16467 bound_to 10707
   20.8916  -13.5562   36.4427 LP  0  0  0  0  0  0  0  0  0  0  0  0  # atno 16468 bound_to 10881
   21.9649  -12.3900   35.7440 LP  0  0  0  0  0  0  0  0  0  0  0  0  # atno 16469 bound_to 10881
   22.4593   -7.7107   34.7382 LP  0  0  0  0  0  0  0  0  0  0  0  0  # atno 16470 bound_to 10910
   23.4942   -9.0732   34.4685 LP  0  0  0  0  0  0  0  0  0  0  0  0  # atno 16471 bound_to 10910
   20.8764   -9.0883   37.2525 LP  0  0  0  0  0  0  0  0  0  0  0  0  # atno 16472 bound_to 10936
   16.5843   -6.2766   35.0133 LP  0  0  0  0  0  0  0  0  0  0  0  0  # atno 16473 bound_to 10997
   15.3360   -7.2868   35.6623 LP  0  0  0  0  0  0  0  0  0  0  0  0  # atno 16474 bound_to 10997
   11.5667  -11.0846   37.2467 LP  0  0  0  0  0  0  0  0  0  0  0  0  # atno 16475 bound_to 11976
   12.5467  -11.9733   38.3645 LP  0  0  0  0  0  0  0  0  0  0  0  0  # atno 16476 bound_to 11976
   12.7101  -16.4245   36.4869 LP  0  0  0  0  0  0  0  0  0  0  0  0  # atno 16477 bound_to 12048
   11.7939  -16.6940   37.9319 LP  0  0  0  0  0  0  0  0  0  0  0  0  # atno 16478 bound_to 12048
   19.3679   -8.2436   38.3375 LP  0  0  0  0  0  0  0  0  0  0  0  0  # atno 16480 bound_to 10939
   17.9324   -8.6534   37.4592 LP  0  0  0  0  0  0  0  0  0  0  0  0  # atno 16481 bound_to 10939
   11.8281   -7.3904   36.8471 LP  0  0  0  0  0  0  0  0  0  0  0  0  # atno 16483 bound_to 11039
   11.6192   -6.2221   35.5856 LP  0  0  0  0  0  0  0  0  0  0  0  0  # atno 16484 bound_to 11039
   11.1089  -13.5927   37.3628 LP  0  0  0  0  0  0  0  0  0  0  0  0  # atno 16485 bound_to 12045
    9.1174  -11.9605   27.5272 LP  0  0  0  0  0  0  0  0  0  0  0  0  # atno 16490 bound_to 15533
    9.1351  -14.2961   28.1218 LP  0  0  0  0  0  0  0  0  0  0  0  0  # atno 16491 bound_to 15579
    8.2371  -17.1682   27.0292 LP  0  0  0  0  0  0  0  0  0  0  0  0  # atno 16492 bound_to 15582
    9.4653  -18.3894   27.0507 LP  0  0  0  0  0  0  0  0  0  0  0  0  # atno 16493 bound_to 15582
   10.1815  -17.7897   30.2641 LP  0  0  0  0  0  0  0  0  0  0  0  0  # atno 16494 bound_to 15624
   21.0511  -10.6727   37.7521 LP  0  0  0  0  0  0  0  0  0  0  0  0  # atno 16495 bound_to 10907
   24.9791  -10.8581   37.3200 LP  0  0  0  0  0  0  0  0  0  0  0  0  # atno 16496 bound_to 6104
   25.8478   -9.8872   36.1787 LP  0  0  0  0  0  0  0  0  0  0  0  0  # atno 16497 bound_to 6104
   26.8813  -13.2804   37.1089 LP  0  0  0  0  0  0  0  0  0  0  0  0  # atno 16498 bound_to 6129
   30.3357   -9.1635   33.2215 LP  0  0  0  0  0  0  0  0  0  0  0  0  # atno 16499 bound_to 5910
   28.7426   -9.0273   33.8872 LP  0  0  0  0  0  0  0  0  0  0  0  0  # atno 16500 bound_to 5910
   29.5861  -11.8170   36.6188 LP  0  0  0  0  0  0  0  0  0  0  0  0  # atno 16501 bound_to 6101
   27.8606   -9.2402   37.3524 LP  0  0  0  0  0  0  0  0  0  0  0  0  # atno 16502 bound_to 5850
   29.4261   -9.3216   36.6156 LP  0  0  0  0  0  0  0  0  0  0  0  0  # atno 16503 bound_to 5850
   28.4722   -6.3008   37.2226 LP  0  0  0  0  0  0  0  0  0  0  0  0  # atno 16504 bound_to 5907
   28.7725  -13.6658   35.7746 LP  0  0  0  0  0  0  0  0  0  0  0  0  # atno 16505 bound_to 6051
   29.9992  -14.0747   36.9270 LP  0  0  0  0  0  0  0  0  0  0  0  0  # atno 16506 bound_to 6051
   32.7588  -12.1034   34.7166 LP  0  0  0  0  0  0  0  0  0  0  0  0  # atno 16507 bound_to 5982
   31.8808  -11.2670   33.4799 LP  0  0  0  0  0  0  0  0  0  0  0  0  # atno 16508 bound_to 5982
   31.0786   -7.9254   36.1243 LP  0  0  0  0  0  0  0  0  0  0  0  0  # atno 16509 bound_to 5979
   32.4430  -10.4443   35.7627 LP  0  0  0  0  0  0  0  0  0  0  0  0  # atno 16510 bound_to 6048
   12.5052   -4.3505   31.3296 LP  0  0  0  0  0  0  0  0  0  0  0  0  # atno 16511 bound_to 11145
   12.7452   -4.1266   29.6289 LP  0  0  0  0  0  0  0  0  0  0  0  0  # atno 16512 bound_to 11145
   13.8623   -2.4021   30.7403 LP  0  0  0  0  0  0  0  0  0  0  0  0  # atno 16513 bound_to 11196
   15.4561    0.5931   28.9225 LP  0  0  0  0  0  0  0  0  0  0  0  0  # atno 16514 bound_to 11199
   16.4235   -0.8364   28.7779 LP  0  0  0  0  0  0  0  0  0  0  0  0  # atno 16515 bound_to 11199
   13.7806   -0.3403   27.3669 LP  0  0  0  0  0  0  0  0  0  0  0  0  # atno 16516 bound_to 11229
   13.1394   -4.5146   32.8579 LP  0  0  0  0  0  0  0  0  0  0  0  0  # atno 16525 bound_to 11142
   15.2122   -2.1544   34.2087 LP  0  0  0  0  0  0  0  0  0  0  0  0  # atno 16530 bound_to 11085
   14.1628   -1.8318   35.5484 LP  0  0  0  0  0  0  0  0  0  0  0  0  # atno 16531 bound_to 11085
   13.8719   -5.6104   36.1720 LP  0  0  0  0  0  0  0  0  0  0  0  0  # atno 16533 bound_to 11082
   16.0140    3.4814   26.1853 LP  0  0  0  0  0  0  0  0  0  0  0  0  # atno 16538 bound_to 11232
   17.0376    2.0864   26.1059 LP  0  0  0  0  0  0  0  0  0  0  0  0  # atno 16539 bound_to 11232
   13.9850    1.4094   27.6185 LP  0  0  0  0  0  0  0  0  0  0  0  0  # atno 16542 bound_to 11266
   15.3921    3.1670   37.4171 LP  0  0  0  0  0  0  0  0  0  0  0  0  # atno 16548 bound_to 9421
   12.5173    2.6069   30.1803 LP  0  0  0  0  0  0  0  0  0  0  0  0  # atno 16549 bound_to 11269
   11.7959    2.3661   28.6242 LP  0  0  0  0  0  0  0  0  0  0  0  0  # atno 16550 bound_to 11269
   10.5265    3.4304   31.9897 LP  0  0  0  0  0  0  0  0  0  0  0  0  # atno 16552 bound_to 11318
   11.5738    4.4277   32.9429 LP  0  0  0  0  0  0  0  0  0  0  0  0  # atno 16553 bound_to 11318
    9.9861    2.0166   31.1867 LP  0  0  0  0  0  0  0  0  0  0  0  0  # atno 16554 bound_to 11466
   11.3210    4.2744   30.3808 LP  0  0  0  0  0  0  0  0  0  0  0  0  # atno 16555 bound_to 11358
   13.5169    7.4656   34.4295 LP  0  0  0  0  0  0  0  0  0  0  0  0  # atno 16556 bound_to 11538
   12.7442    8.4367   35.4910 LP  0  0  0  0  0  0  0  0  0  0  0  0  # atno 16557 bound_to 11538
   18.1685    8.6369   37.9416 LP  0  0  0  0  0  0  0  0  0  0  0  0  # atno 16558 bound_to 9314
   16.6291    9.0621   38.6120 LP  0  0  0  0  0  0  0  0  0  0  0  0  # atno 16559 bound_to 9314
   18.8109    6.6744   40.4340 LP  0  0  0  0  0  0  0  0  0  0  0  0  # atno 16560 bound_to 9335
   16.8558    4.6194   40.0167 LP  0  0  0  0  0  0  0  0  0  0  0  0  # atno 16561 bound_to 9338
   15.4855    4.3334   38.9967 LP  0  0  0  0  0  0  0  0  0  0  0  0  # atno 16562 bound_to 9338
   21.3174    5.2333   39.2615 LP  0  0  0  0  0  0  0  0  0  0  0  0  # atno 16563 bound_to 9341
   20.4822    6.6327   39.1566 LP  0  0  0  0  0  0  0  0  0  0  0  0  # atno 16564 bound_to 9341
   13.6113    3.5534   38.5529 LP  0  0  0  0  0  0  0  0  0  0  0  0  # atno 16565 bound_to 9380
   13.2568    2.3369   37.3719 LP  0  0  0  0  0  0  0  0  0  0  0  0  # atno 16566 bound_to 9380
   14.9206    1.8416   39.0218 LP  0  0  0  0  0  0  0  0  0  0  0  0  # atno 16567 bound_to 9469
   28.7454   -3.8791   37.5733 LP  0  0  0  0  0  0  0  0  0  0  0  0  # atno 16570 bound_to 5709
   30.3130   -4.4828   37.1513 LP  0  0  0  0  0  0  0  0  0  0  0  0  # atno 16571 bound_to 5709
   26.3154    0.3491   40.7068 LP  0  0  0  0  0  0  0  0  0  0  0  0  # atno 16574 bound_to 7822
   28.7639    4.6698   41.6877 LP  0  0  0  0  0  0  0  0  0  0  0  0  # atno 16575 bound_to 7825
   29.7038    3.2915   42.1533 LP  0  0  0  0  0  0  0  0  0  0  0  0  # atno 16576 bound_to 7825
   30.5413   -2.9900   41.0072 LP  0  0  0  0  0  0  0  0  0  0  0  0  # atno 16579 bound_to 5706
   31.4663   -2.9984   39.3276 LP  0  0  0  0  0  0  0  0  0  0  0  0  # atno 16580 bound_to 5761
   34.8383   -1.3164   36.8858 LP  0  0  0  0  0  0  0  0  0  0  0  0  # atno 16581 bound_to 5766
   33.4236   -1.7066   36.1695 LP  0  0  0  0  0  0  0  0  0  0  0  0  # atno 16582 bound_to 5766
   28.0903   -0.1765   43.4560 LP  0  0  0  0  0  0  0  0  0  0  0  0  # atno 16583 bound_to 7781
   28.6866    0.5290   41.9908 LP  0  0  0  0  0  0  0  0  0  0  0  0  # atno 16584 bound_to 7781
   26.2000    2.4172   43.0368 LP  0  0  0  0  0  0  0  0  0  0  0  0  # atno 16585 bound_to 7866
   13.8576   -0.3481   39.0503 LP  0  0  0  0  0  0  0  0  0  0  0  0  # atno 16593 bound_to 9424
   15.4005   -0.9166   39.5945 LP  0  0  0  0  0  0  0  0  0  0  0  0  # atno 16594 bound_to 9424
   19.9296   -3.2516   41.4088 LP  0  0  0  0  0  0  0  0  0  0  0  0  # atno 16595 bound_to 9480
   20.9881   -2.4425   42.3530 LP  0  0  0  0  0  0  0  0  0  0  0  0  # atno 16596 bound_to 9480
   19.3819    2.9239   44.1429 LP  0  0  0  0  0  0  0  0  0  0  0  0  # atno 16597 bound_to 7659
   20.4535    2.3632   42.9030 LP  0  0  0  0  0  0  0  0  0  0  0  0  # atno 16598 bound_to 7659
   25.4502    0.9315   44.4503 LP  0  0  0  0  0  0  0  0  0  0  0  0  # atno 16599 bound_to 7717
   24.8201    2.3737   43.7272 LP  0  0  0  0  0  0  0  0  0  0  0  0  # atno 16600 bound_to 7717
   22.6583    2.6899   44.5925 LP  0  0  0  0  0  0  0  0  0  0  0  0  # atno 16601 bound_to 7714
   18.0723   -6.1198   42.3865 LP  0  0  0  0  0  0  0  0  0  0  0  0  # atno 16602 bound_to 10532
   18.5745   -4.6805   41.5642 LP  0  0  0  0  0  0  0  0  0  0  0  0  # atno 16603 bound_to 10532
   16.9642   10.4959   41.8203 LP  0  0  0  0  0  0  0  0  0  0  0  0  # atno 16604 bound_to 9311
   27.9565   10.8270   26.4685 LP  0  0  0  0  0  0  0  0  0  0  0  0  # atno 16607 bound_to 15310
   26.5747   11.6915   26.5687 LP  0  0  0  0  0  0  0  0  0  0  0  0  # atno 16608 bound_to 15310
   18.6344    8.7057   44.7863 LP  0  0  0  0  0  0  0  0  0  0  0  0  # atno 16611 bound_to 7554
   17.2086    7.7228   44.7558 LP  0  0  0  0  0  0  0  0  0  0  0  0  # atno 16612 bound_to 7554
   21.7790    4.7882   43.6746 LP  0  0  0  0  0  0  0  0  0  0  0  0  # atno 16613 bound_to 7623
   22.8242    5.1104   45.0177 LP  0  0  0  0  0  0  0  0  0  0  0  0  # atno 16614 bound_to 7623
   13.7951   12.6999   42.2870 LP  0  0  0  0  0  0  0  0  0  0  0  0  # atno 16615 bound_to 9280
   15.8750    8.8603   43.0148 LP  0  0  0  0  0  0  0  0  0  0  0  0  # atno 16616 bound_to 9283
   14.4414    9.1359   42.0827 LP  0  0  0  0  0  0  0  0  0  0  0  0  # atno 16617 bound_to 9283
   14.1683   14.7104   41.1312 LP  0  0  0  0  0  0  0  0  0  0  0  0  # atno 16618 bound_to 9228
   14.4864   13.6331   39.8128 LP  0  0  0  0  0  0  0  0  0  0  0  0  # atno 16619 bound_to 9228
   19.4589    6.1919   47.2916 LP  0  0  0  0  0  0  0  0  0  0  0  0  # atno 16620 bound_to 7620
   11.9044   14.1218   43.2197 LP  0  0  0  0  0  0  0  0  0  0  0  0  # atno 16628 bound_to 9225
   14.0493    3.2799   40.0016 LP  0  0  0  0  0  0  0  0  0  0  0  0  # atno 16635 bound_to 9528
   23.1486   20.2859   36.4744 LP  0  0  0  0  0  0  0  0  0  0  0  0  # atno 16636 bound_to 3357
   24.1471   20.0383   37.8678 LP  0  0  0  0  0  0  0  0  0  0  0  0  # atno 16637 bound_to 3357
   21.6061   21.7654   40.5267 LP  0  0  0  0  0  0  0  0  0  0  0  0  # atno 16638 bound_to 3415
   22.2643   20.2546   39.9936 LP  0  0  0  0  0  0  0  0  0  0  0  0  # atno 16639 bound_to 3415
   24.6949   23.6121   37.1588 LP  0  0  0  0  0  0  0  0  0  0  0  0  # atno 16640 bound_to 3412
   23.9408   21.3862   39.3197 LP  0  0  0  0  0  0  0  0  0  0  0  0  # atno 16641 bound_to 3478
    9.4547   14.0238   43.4876 LP  0  0  0  0  0  0  0  0  0  0  0  0  # atno 16646 bound_to 9102
    8.0212   14.9462   43.7948 LP  0  0  0  0  0  0  0  0  0  0  0  0  # atno 16647 bound_to 9102
   10.9463   15.2838   46.3925 LP  0  0  0  0  0  0  0  0  0  0  0  0  # atno 16648 bound_to 9168
   14.8740   17.0345   48.1239 LP  0  0  0  0  0  0  0  0  0  0  0  0  # atno 16649 bound_to 9178
   14.9851   17.5749   46.5869 LP  0  0  0  0  0  0  0  0  0  0  0  0  # atno 16650 bound_to 9178
    9.5675   25.0457   36.1649 LP  0  0  0  0  0  0  0  0  0  0  0  0  # atno 16654 bound_to 6255
   10.3072   23.7929   35.4233 LP  0  0  0  0  0  0  0  0  0  0  0  0  # atno 16655 bound_to 6255
   12.5769   19.0185   46.9194 LP  0  0  0  0  0  0  0  0  0  0  0  0  # atno 16656 bound_to 9176
   13.3367   18.6667   48.3214 LP  0  0  0  0  0  0  0  0  0  0  0  0  # atno 16657 bound_to 9176

> <Gold.Score>
     Fitness  S(hb_ext) S(vdw_ext)  S(hb_int)    S(int)      intcor
     28.06       6.19      15.99       0.00      -0.12      -0.76

> <Gold.Goldscore.Fitness>
28.0595

> <Gold.Goldscore.Internal.Vdw>
-0.4087

> <Gold.Goldscore.Internal.Torsion>
-0.4702

> <Gold.Goldscore.External.Vdw>
15.9915

> <Gold.Goldscore.Internal.HBond>
0.0000

> <Gold.Goldscore.External.HBond>
6.1916

> <Gold.Goldscore.Internal.Correction>
-0.7585

> <Gold.Goldscore.Hbonds>
donor molecule, donor type, donor heavy atom, donor atom, acceptor molecule, acceptor atom, score
      P1  H  7722  7743       L1    11  0.01
      P1  H  7872  7892       L1    11  0.06
      L1  H    10    23       P1  7873  1.00

> <Gold.Goldscore.Internal.Vdw.Weighted>
-0.4087

> <Gold.Goldscore.Internal.Torsion.Weighted>
-0.4702

> <Gold.Goldscore.External.Vdw.Weighted>
21.9883

> <Gold.Goldscore.Internal.HBond.Weighted>
0.0000

> <Gold.Goldscore.External.HBond.Weighted>
6.1916

> <Gold.Goldscore.Internal.Correction.Weighted>
-0.7585

> <Gold.Rescore>
     Score     S(PLP)   S(hbond)     S(cho)   S(metal)  DE(clash)   DE(tors)     intcor
     17.77     -19.18       0.25       0.00       0.00       0.00       1.08       ----

> <Gold.PLP.Fitness>
17.7693

> <Gold.PLP.PLP>
-19.1834

> <Gold.PLP.part.hbond>
-1.0000

> <Gold.PLP.part.metal>
0.0000

> <Gold.PLP.part.buried>
-3.8921

> <Gold.PLP.part.nonpolar>
-17.4202

> <Gold.PLP.part.repulsive>
3.1834

> <Gold.PLP.ligand.clash>
0.0000

> <Gold.PLP.ligand.torsion>
1.0803

> <Gold.PLP.Chemscore.Hbond>
0.2488

> <Gold.PLP.Chemscore.CHOScore>
0.0000

> <Gold.PLP.Chemscore.Metal>
0.0000

> <Gold.Chemscore.Hbonds>
donor molecule, donor type, donor heavy atom, donor atom, acceptor molecule, acceptor atom, score
      L1  H    10    23       P1  7873  0.42
      P1  H  7722  7743       L1    11  0.02

> <Gold.PLP.Chemscore.Internal.Correction>
   9.000000E+99

