#       Name:                CT1002167954
#       Creating user name   hitesit
#       Creation time:       Sun Apr 16 22:54:26 2023


#       File generated by GOLD software.
#

@<TRIPOS>MOLECULE
CT1002167954|ligand_prepared|mol2|1|dock8
    29    30     1
SMALL
NO_CHARGES


@<TRIPOS>ATOM
      1 C1          11.4439  -8.6939  32.8578 C.3            1 RES1               0.0000
      2 C2          10.1839  -8.2745  33.6423 C.ar           1 RES1               0.0000
      3 C3          10.9501  -9.4289  31.6152 C.2            1 RES1               0.0000
      4 C4          12.2072  -7.4085  32.5581 C.2            1 RES1               0.0000
      5 C5          12.3848  -9.6360  33.6443 C.3            1 RES1               0.0000
      6 C6           9.6857  -9.0771  34.6642 C.ar           1 RES1               0.0000
      7 C7           9.5118  -7.0888  33.3578 C.ar           1 RES1               0.0000
      8 N8          11.0366  -8.7780  30.4199 N.am           1 RES1               0.0000
      9 O9          10.4558 -10.5472  31.6885 O.2            1 RES1               0.0000
     10 N10         12.3258  -7.0227  31.2486 N.am           1 RES1               0.0000
     11 O11         12.6928  -6.7177  33.4453 O.2            1 RES1               0.0000
     12 C12         13.7455  -9.8271  32.9930 C.3            1 RES1               0.0000
     13 C13          8.5581  -8.7064  35.3780 C.ar           1 RES1               0.0000
     14 C14          8.3842  -6.7201  34.0727 C.ar           1 RES1               0.0000
     15 C15         11.7487  -7.6329  30.1683 C.2            1 RES1               0.0000
     16 C16          7.9069  -7.5276  35.0830 C.ar           1 RES1               0.0000
     17 O17         11.8559  -7.1950  29.0265 O.2            1 RES1               0.0000
     18 H18         12.5300  -9.2289  34.6526 H              1 RES1               0.0000
     19 H19         11.9008 -10.6153  33.7447 H              1 RES1               0.0000
     20 H20         10.1834 -10.0096  34.9089 H              1 RES1               0.0000
     21 H21          9.8686  -6.4384  32.5665 H              1 RES1               0.0000
     22 H22         10.5244  -9.1798  29.6411 H              1 RES1               0.0000
     23 H23         12.8972  -6.2048  31.0617 H              1 RES1               0.0000
     24 H24         14.3660 -10.4966  33.5852 H              1 RES1               0.0000
     25 H25         13.6403 -10.2543  31.9979 H              1 RES1               0.0000
     26 H26         14.2658  -8.8761  32.9004 H              1 RES1               0.0000
     27 H27          8.1857  -9.3461  36.1713 H              1 RES1               0.0000
     28 H28          7.8745  -5.7918  33.8367 H              1 RES1               0.0000
     29 H29          7.0238  -7.2372  35.6426 H              1 RES1               0.0000
@<TRIPOS>BOND
    1    1    2 1     
    2    1    3 1     
    3    1    4 1     
    4    1    5 1     
    5    2    6 ar    
    6    2    7 ar    
    7    3    8 1     
    8    3    9 2     
    9    4   10 1     
   10    4   11 2     
   11    5   12 1     
   12    5   18 1     
   13    5   19 1     
   14    6   13 ar    
   15    6   20 1     
   16    7   14 ar    
   17    7   21 1     
   18    8   15 1     
   19    8   22 1     
   20   10   15 1     
   21   10   23 1     
   22   12   24 1     
   23   12   25 1     
   24   12   26 1     
   25   13   16 ar    
   26   13   27 1     
   27   14   16 ar    
   28   14   28 1     
   29   15   17 2     
   30   16   29 1     
@<TRIPOS>SUBSTRUCTURE
      1 RES1           1
@<TRIPOS>SET
DONOR_HYDROGENS      STATIC     ATOMS    <user>   **** ""
2 22 23
ATOM$RED        STATIC     ATOMS    COLORGROUP SYSTEM
2 22 23
@<TRIPOS>COMMENT
> <Gold.Version>
2022.3.0

> <Gold.Id.Protein>
unknown|3mvj_clean|pdb

> <Gold.Protein.RotatedTorsions>
[ 10968 10947 10946 10944 ] final   13.91 input   60.01 | X-H torsion
[ 10728 10707 10706 10704 ] final  118.40 input   59.96 | X-H torsion
[ 10960 10936 10937 10938 ] final  -38.45 input   23.31 | X-H torsion
[ 12067 12045 12046 12047 ] final  149.77 input   63.71 | X-H torsion
[ 15542 15533 15534 15535 ] final -113.28 input   83.29 | X-H torsion
[ 15588 15579 15580 15581 ] final  -35.72 input  107.67 | X-H torsion
[ 15633 15624 15625 15626 ] final  123.19 input   84.82 | X-H torsion
[ 10915 10907 10908 10909 ] final -122.53 input  -87.38 | X-H torsion
[ 6151 6129 6130 6131 ] final  138.06 input   27.76 | X-H torsion
[ 6109 6101 6102 6103 ] final  -95.19 input  -93.79 | X-H torsion
[ 5929 5907 5908 5909 ] final  -32.35 input  119.25 | X-H torsion
[ 6001 5979 5980 5981 ] final -153.24 input  112.51 | X-H torsion
[ 6064 6048 6049 6050 ] final   94.43 input  108.26 | X-H torsion
[ 11206 11196 11197 11198 ] final   95.01 input   -0.63 | X-H torsion
[ 11245 11229 11230 11231 ] final  150.40 input  120.69 | X-H torsion
[ 11164 11142 11143 11144 ] final  -10.44 input   33.88 | X-H torsion
[ 11104 11082 11083 11084 ] final -144.34 input   45.00 | X-H torsion
[ 11284 11266 11267 11268 ] final   20.19 input   49.58 | X-H torsion
[ 9439 9421 9422 9423 ] final  -35.49 input  116.39 | X-H torsion
[ 11482 11466 11467 11468 ] final  -67.84 input  126.08 | X-H torsion
[ 11374 11358 11359 11360 ] final  121.92 input   98.08 | X-H torsion
[ 11559 11538 11537 11535 ] final  133.23 input   60.01 | X-H torsion
[ 9349 9335 9336 9337 ] final -135.41 input   84.14 | X-H torsion
[ 9355 9341 9339 9336 ] final  175.11 input   60.02 | X-H torsion
[ 9493 9469 9470 9471 ] final  -17.61 input   75.21 | X-H torsion
[ 7840 7822 7823 7824 ] final  130.04 input  121.36 | X-H torsion
[ 7742 7722 7721 7720 ] final   19.26 input   60.01 | X-H torsion
[ 5728 5706 5707 5708 ] final  -43.92 input  119.20 | X-H torsion
[ 5773 5761 5762 5763 ] final   71.00 input  120.20 | X-H torsion
[ 5777 5766 5765 5762 ] final  -42.65 input   59.99 | X-H torsion
[ 7882 7866 7867 7868 ] final   78.41 input   81.17 | X-H torsion
[ 9501 9480 9479 9477 ] final   47.52 input   60.03 | X-H torsion
[ 7732 7714 7715 7716 ] final   85.24 input  -10.67 | X-H torsion
[ 15083 15054 15053 15052 ] final  171.37 input   60.01 | X-H torsion
[ 9319 9311 9312 9313 ] final  -56.28 input  -66.31 | X-H torsion
[ 15194 15161 15160 15159 ] final   17.97 input   59.99 | X-H torsion
[ 15326 15310 15309 15306 ] final -111.40 input   59.99 | X-H torsion
[ 9292 9280 9281 9282 ] final  121.25 input   22.77 | X-H torsion
[ 7636 7620 7621 7622 ] final   92.08 input   34.37 | X-H torsion
[ 9241 9225 9226 9227 ] final -115.80 input   96.07 | X-H torsion
[ 9544 9528 9529 9530 ] final  -12.39 input   99.68 | X-H torsion
[ 3443 3412 3413 3414 ] final -163.78 input -120.58 | X-H torsion
[ 3504 3478 3479 3480 ] final  -73.33 input   70.69 | X-H torsion
[ 9190 9168 9169 9170 ] final  -68.13 input  115.65 | X-H torsion
[ 9198 9178 9175 9174 ] final   36.00 input   59.98 | X-H torsion
[ 6282 6255 6254 6251 ] final  154.17 input   60.00 | X-H torsion
[ 9196 9176 9175 9174 ] final  137.26 input   60.01 | X-H torsion
[ 12157 12142 12143 12144 ] final   66.19 input  108.55 | X-H torsion
[ 11995 11973 11974 11975 ] final  -11.09 input   68.31 | X-H torsion
[ 11434 11416 11417 11418 ] final -129.88 input  102.35 | X-H torsion
[ 5626 5608 5609 5610 ] final   85.15 input  119.09 | X-H torsion
[ 10774 10756 10757 10758 ] final -171.97 input  129.22 | X-H torsion
[ 10816 10800 10801 10802 ] final  -63.99 input  128.85 | X-H torsion
[ 8641 8619 8620 8621 ] final  -56.32 input   87.35 | X-H torsion
[ 3659 3632 3633 3634 ] final -140.55 input  116.97 | X-H torsion
[ 10029 10008 10007 10005 ] final   65.43 input   60.01 | X-H torsion
[ 16458 15536 15535 15534 ] final   71.55 input    0.00 | X-H torsion
[ 16468 10881 10880 10879 ] final  -52.08 input    0.00 | X-H torsion
[ 16470 10910 10909 10908 ] final   40.64 input    0.00 | X-H torsion
[ 16473 10997 10996 10995 ] final  157.19 input    0.00 | X-H torsion
[ 16475 11976 11975 11974 ] final  -17.28 input    0.00 | X-H torsion
[ 16477 12048 12047 12046 ] final  157.11 input    0.00 | X-H torsion
[ 16480 10939 10938 10937 ] final  119.24 input   -0.00 | X-H torsion
[ 16483 11039 11038 11037 ] final -177.40 input    0.00 | X-H torsion
[ 16492 15582 15581 15580 ] final   -1.64 input    0.00 | X-H torsion
[ 16496 6104 6103 6102 ] final  175.54 input    0.00 | X-H torsion
[ 16499 5910 5909 5908 ] final -174.56 input   -0.00 | X-H torsion
[ 16502 5850 5849 5848 ] final   84.31 input    0.00 | X-H torsion
[ 16505 6051 6050 6049 ] final  150.39 input    0.00 | X-H torsion
[ 16507 5982 5981 5980 ] final  160.18 input    0.00 | X-H torsion
[ 16511 11145 11144 11143 ] final -171.86 input    0.00 | X-H torsion
[ 16514 11199 11198 11197 ] final   36.19 input    0.00 | X-H torsion
[ 16530 11085 11084 11083 ] final  112.25 input   -0.00 | X-H torsion
[ 16538 11232 11231 11230 ] final   93.75 input    0.00 | X-H torsion
[ 16549 11269 11268 11267 ] final  -69.41 input   -0.00 | X-H torsion
[ 16552 11318 11317 11316 ] final   31.99 input    0.00 | X-H torsion
[ 16558 9314 9313 9312 ] final   46.44 input    0.00 | X-H torsion
[ 16561 9338 9337 9336 ] final -115.97 input    0.00 | X-H torsion
[ 16565 9380 9379 9378 ] final  -30.22 input    0.00 | X-H torsion
[ 16570 5709 5708 5707 ] final   58.40 input    0.00 | X-H torsion
[ 16575 7825 7824 7823 ] final  174.05 input    0.00 | X-H torsion
[ 16583 7781 7780 7779 ] final  173.69 input   -0.00 | X-H torsion
[ 16593 9424 9423 9422 ] final -146.85 input   -0.00 | X-H torsion
[ 16597 7659 7658 7657 ] final -172.26 input   -0.00 | X-H torsion
[ 16599 7717 7716 7715 ] final  153.99 input    0.00 | X-H torsion
[ 16602 10532 10531 10530 ] final   96.34 input    0.00 | X-H torsion
[ 16611 7554 7553 7552 ] final   13.48 input    0.00 | X-H torsion
[ 16613 7623 7622 7621 ] final -177.71 input   -0.00 | X-H torsion
[ 16616 9283 9282 9281 ] final  121.83 input    0.00 | X-H torsion
[ 16618 9228 9227 9226 ] final -135.61 input   -0.00 | X-H torsion
[ 16636 3357 3356 3355 ] final  -93.40 input   -0.00 | X-H torsion
[ 16638 3415 3414 3413 ] final   96.39 input   -0.00 | X-H torsion
[ 16646 9102 9101 9100 ] final  121.72 input    0.00 | X-H torsion

> <Gold.Protein.ActiveResidues>
 ARG45   SER53   PHE54   LEU82   LYS83   GLN84   GLU86   HIS87   GLU127  PHE129 
 SER130  HIS131  LEU132  ARG133  ARG134  ILE135  GLY136  ARG137  PHE138  SER139 
 HIS142  ARG165  ASP166  LEU167  LYS168  PRO169  GLU170  ASN171  ASP184  GLY186 
 PHE187  TRP196  TPO197  LEU198  CYS199  GLY200  THR201  PRO202  GLU203  TYR204 
 LEU205  ILE209  ILE210  TYR215  VAL226  LEU227  TYR229  GLU230  MET231  ALA233 
 GLY234  TYR235  PRO236  PRO237  PHE238  PHE239  ALA240  ASP241  GLN242  PRO243 
 ILE244  GLN245  ILE246  TYR247  LYS249  ARG256  PHE257  PRO258  SER259  HIS260 
 PRO313  PHE314  ILE315  LYS317  LYS319  SER325  ASN326  ASP328  ASP329  GLU331 
 GLU332  GLU333  GLU334 

> <Gold.Protein.RotatedAtoms>
   24.4195   23.5554   36.8743 H   0  0  0  0  0  0  0  0  0  0  0  0  # atno 3443 bound_to 3412
   23.6928   22.1743   40.1008 H   0  0  0  0  0  0  0  0  0  0  0  0  # atno 3504 bound_to 3478
   22.3134   19.8312   45.7048 H   0  0  0  0  0  0  0  0  0  0  0  0  # atno 3659 bound_to 3632
   35.8174   -1.1918   41.4687 H   0  0  0  0  0  0  0  0  0  0  0  0  # atno 5626 bound_to 5608
   30.4935   -3.0207   41.0373 H   0  0  0  0  0  0  0  0  0  0  0  0  # atno 5728 bound_to 5706
   31.7721   -2.6452   39.3615 H   0  0  0  0  0  0  0  0  0  0  0  0  # atno 5773 bound_to 5761
   33.9290   -2.4927   35.7421 H   0  0  0  0  0  0  0  0  0  0  0  0  # atno 5777 bound_to 5766
   29.4800   -7.4788   37.3117 H   0  0  0  0  0  0  0  0  0  0  0  0  # atno 5929 bound_to 5907
   31.2446   -7.1126   34.6205 H   0  0  0  0  0  0  0  0  0  0  0  0  # atno 6001 bound_to 5979
   31.5183   -9.6667   36.9786 H   0  0  0  0  0  0  0  0  0  0  0  0  # atno 6064 bound_to 6048
   29.4462  -10.2647   35.9149 H   0  0  0  0  0  0  0  0  0  0  0  0  # atno 6109 bound_to 6101
   26.4268  -12.6848   36.7929 H   0  0  0  0  0  0  0  0  0  0  0  0  # atno 6151 bound_to 6129
   10.3672   24.8778   36.9397 H   0  0  0  0  0  0  0  0  0  0  0  0  # atno 6282 bound_to 6255
   19.7793    7.2464   47.3585 H   0  0  0  0  0  0  0  0  0  0  0  0  # atno 7636 bound_to 7620
   22.4731    2.7678   44.4973 H   0  0  0  0  0  0  0  0  0  0  0  0  # atno 7732 bound_to 7714
   22.1850    5.7138   41.7498 H   0  0  0  0  0  0  0  0  0  0  0  0  # atno 7742 bound_to 7722
   23.4583    6.7109   41.3883 H   0  0  0  0  0  0  0  0  0  0  0  0  # atno 7743 bound_to 7722
   22.1161    6.6951   40.4155 H   0  0  0  0  0  0  0  0  0  0  0  0  # atno 7744 bound_to 7722
   25.4950    1.0961   40.7693 H   0  0  0  0  0  0  0  0  0  0  0  0  # atno 7840 bound_to 7822
   26.2242    2.3559   43.1009 H   0  0  0  0  0  0  0  0  0  0  0  0  # atno 7882 bound_to 7866
   22.6146   13.8602   47.3477 H   0  0  0  0  0  0  0  0  0  0  0  0  # atno 8641 bound_to 8619
    9.6261   15.0137   45.2841 H   0  0  0  0  0  0  0  0  0  0  0  0  # atno 9190 bound_to 9168
   12.1809   18.2380   48.5380 H   0  0  0  0  0  0  0  0  0  0  0  0  # atno 9196 bound_to 9176
   14.9773   17.3945   46.4318 H   0  0  0  0  0  0  0  0  0  0  0  0  # atno 9198 bound_to 9178
   11.2551   14.0221   43.1604 H   0  0  0  0  0  0  0  0  0  0  0  0  # atno 9241 bound_to 9225
   13.7904   12.5038   42.5646 H   0  0  0  0  0  0  0  0  0  0  0  0  # atno 9292 bound_to 9280
   17.4871   10.6650   40.3282 H   0  0  0  0  0  0  0  0  0  0  0  0  # atno 9319 bound_to 9311
   18.4525    7.6677   39.7932 H   0  0  0  0  0  0  0  0  0  0  0  0  # atno 9349 bound_to 9335
   21.4036    5.1231   38.8951 H   0  0  0  0  0  0  0  0  0  0  0  0  # atno 9355 bound_to 9341
   15.3700    3.1792   37.4079 H   0  0  0  0  0  0  0  0  0  0  0  0  # atno 9439 bound_to 9421
   14.9371    2.1390   39.0655 H   0  0  0  0  0  0  0  0  0  0  0  0  # atno 9493 bound_to 9469
   21.3875   -2.2506   41.0643 H   0  0  0  0  0  0  0  0  0  0  0  0  # atno 9501 bound_to 9480
   13.7269    2.1611   41.0647 H   0  0  0  0  0  0  0  0  0  0  0  0  # atno 9544 bound_to 9528
   12.4768   12.5911   46.2939 H   0  0  0  0  0  0  0  0  0  0  0  0  # atno 10029 bound_to 10008
   14.0268  -11.7559   37.5352 H   0  0  0  0  0  0  0  0  0  0  0  0  # atno 10728 bound_to 10707
   18.2507   -7.2611   40.8117 H   0  0  0  0  0  0  0  0  0  0  0  0  # atno 10774 bound_to 10756
   21.7948   -7.8588   40.8529 H   0  0  0  0  0  0  0  0  0  0  0  0  # atno 10816 bound_to 10800
   22.3207  -10.9026   38.6830 H   0  0  0  0  0  0  0  0  0  0  0  0  # atno 10915 bound_to 10907
   21.1837   -8.8661   37.2566 H   0  0  0  0  0  0  0  0  0  0  0  0  # atno 10960 bound_to 10936
   15.7105  -12.9960   34.7828 H   0  0  0  0  0  0  0  0  0  0  0  0  # atno 10968 bound_to 10947
   13.1108   -5.5935   36.7348 H   0  0  0  0  0  0  0  0  0  0  0  0  # atno 11104 bound_to 11082
   12.7456   -3.9958   32.8993 H   0  0  0  0  0  0  0  0  0  0  0  0  # atno 11164 bound_to 11142
   14.1207   -1.7378   30.7444 H   0  0  0  0  0  0  0  0  0  0  0  0  # atno 11206 bound_to 11196
   14.0014   -1.4595   26.1924 H   0  0  0  0  0  0  0  0  0  0  0  0  # atno 11245 bound_to 11229
   13.6246    1.4043   27.5136 H   0  0  0  0  0  0  0  0  0  0  0  0  # atno 11284 bound_to 11266
   11.1821    5.5715   29.2766 H   0  0  0  0  0  0  0  0  0  0  0  0  # atno 11374 bound_to 11358
    8.7973    3.6271   29.4421 H   0  0  0  0  0  0  0  0  0  0  0  0  # atno 11434 bound_to 11416
    9.7273    0.7069   30.9681 H   0  0  0  0  0  0  0  0  0  0  0  0  # atno 11482 bound_to 11466
   12.9073    8.3356   33.6770 H   0  0  0  0  0  0  0  0  0  0  0  0  # atno 11559 bound_to 11538
    9.7790  -10.7221   38.2307 H   0  0  0  0  0  0  0  0  0  0  0  0  # atno 11995 bound_to 11973
   10.4374  -13.7086   38.8801 H   0  0  0  0  0  0  0  0  0  0  0  0  # atno 12067 bound_to 12045
   15.9318  -18.7415   36.7499 H   0  0  0  0  0  0  0  0  0  0  0  0  # atno 12157 bound_to 12142
   26.1480   15.4123   35.3811 H   0  0  0  0  0  0  0  0  0  0  0  0  # atno 15083 bound_to 15054
   27.1961   14.5270   34.4510 H   0  0  0  0  0  0  0  0  0  0  0  0  # atno 15084 bound_to 15054
   26.7014   16.0257   33.9450 H   0  0  0  0  0  0  0  0  0  0  0  0  # atno 15085 bound_to 15054
   31.1164   11.6702   30.5676 H   0  0  0  0  0  0  0  0  0  0  0  0  # atno 15194 bound_to 15161
   31.9905   10.4730   31.3098 H   0  0  0  0  0  0  0  0  0  0  0  0  # atno 15195 bound_to 15161
   32.6753   11.9601   31.0486 H   0  0  0  0  0  0  0  0  0  0  0  0  # atno 15196 bound_to 15161
   28.0558   10.8634   25.8265 H   0  0  0  0  0  0  0  0  0  0  0  0  # atno 15326 bound_to 15310
    7.6904  -12.1923   26.6349 H   0  0  0  0  0  0  0  0  0  0  0  0  # atno 15542 bound_to 15533
    9.1933  -15.1941   27.3841 H   0  0  0  0  0  0  0  0  0  0  0  0  # atno 15588 bound_to 15579
   10.2259  -17.7894   30.2571 H   0  0  0  0  0  0  0  0  0  0  0  0  # atno 15633 bound_to 15624
   11.3183  -14.0529   28.1398 LP  0  0  0  0  0  0  0  0  0  0  0  0  # atno 16458 bound_to 15536
   11.1878  -15.6854   27.5761 LP  0  0  0  0  0  0  0  0  0  0  0  0  # atno 16459 bound_to 15536
   16.9083  -13.6963   35.6328 LP  0  0  0  0  0  0  0  0  0  0  0  0  # atno 16460 bound_to 10947
   16.8615  -13.8452   34.0073 LP  0  0  0  0  0  0  0  0  0  0  0  0  # atno 16461 bound_to 10947
   14.7843  -10.7247   36.5298 LP  0  0  0  0  0  0  0  0  0  0  0  0  # atno 16466 bound_to 10707
   13.3124  -10.3511   37.1302 LP  0  0  0  0  0  0  0  0  0  0  0  0  # atno 16467 bound_to 10707
   21.5047  -13.6736   36.5968 LP  0  0  0  0  0  0  0  0  0  0  0  0  # atno 16468 bound_to 10881
   21.3518  -12.2726   35.5899 LP  0  0  0  0  0  0  0  0  0  0  0  0  # atno 16469 bound_to 10881
   23.3251   -9.1352   34.3272 LP  0  0  0  0  0  0  0  0  0  0  0  0  # atno 16470 bound_to 10910
   22.6284   -7.6487   34.8795 LP  0  0  0  0  0  0  0  0  0  0  0  0  # atno 16471 bound_to 10910
   21.2880   -9.7538   35.7567 LP  0  0  0  0  0  0  0  0  0  0  0  0  # atno 16472 bound_to 10936
   15.2997   -7.2433   35.6553 LP  0  0  0  0  0  0  0  0  0  0  0  0  # atno 16473 bound_to 10997
   16.6206   -6.3201   35.0203 LP  0  0  0  0  0  0  0  0  0  0  0  0  # atno 16474 bound_to 10997
   11.5913  -11.1057   37.2104 LP  0  0  0  0  0  0  0  0  0  0  0  0  # atno 16475 bound_to 11976
   12.5221  -11.9522   38.4008 LP  0  0  0  0  0  0  0  0  0  0  0  0  # atno 16476 bound_to 11976
   12.9059  -16.6937   36.6577 LP  0  0  0  0  0  0  0  0  0  0  0  0  # atno 16477 bound_to 12048
   11.5981  -16.4248   37.7611 LP  0  0  0  0  0  0  0  0  0  0  0  0  # atno 16478 bound_to 12048
   18.9126   -7.8414   38.4574 LP  0  0  0  0  0  0  0  0  0  0  0  0  # atno 16480 bound_to 10939
   18.3878   -9.0557   37.3393 LP  0  0  0  0  0  0  0  0  0  0  0  0  # atno 16481 bound_to 10939
   11.5451   -6.1542   35.6751 LP  0  0  0  0  0  0  0  0  0  0  0  0  # atno 16483 bound_to 11039
   11.9022   -7.4583   36.7576 LP  0  0  0  0  0  0  0  0  0  0  0  0  # atno 16484 bound_to 11039
   11.0229  -14.1070   37.2835 LP  0  0  0  0  0  0  0  0  0  0  0  0  # atno 16485 bound_to 12045
    9.2900  -11.7809   27.2067 LP  0  0  0  0  0  0  0  0  0  0  0  0  # atno 16490 bound_to 15533
    7.8616  -14.4222   28.2238 LP  0  0  0  0  0  0  0  0  0  0  0  0  # atno 16491 bound_to 15579
    8.4704  -17.0061   26.9507 LP  0  0  0  0  0  0  0  0  0  0  0  0  # atno 16492 bound_to 15582
    9.2320  -18.5515   27.1292 LP  0  0  0  0  0  0  0  0  0  0  0  0  # atno 16493 bound_to 15582
    8.9021  -17.9575   29.1248 LP  0  0  0  0  0  0  0  0  0  0  0  0  # atno 16494 bound_to 15624
   21.1392  -11.3237   37.4613 LP  0  0  0  0  0  0  0  0  0  0  0  0  # atno 16495 bound_to 10907
   25.0813  -10.7426   37.4585 LP  0  0  0  0  0  0  0  0  0  0  0  0  # atno 16496 bound_to 6104
   25.7456  -10.0027   36.0403 LP  0  0  0  0  0  0  0  0  0  0  0  0  # atno 16497 bound_to 6104
   27.8237  -12.2626   37.7535 LP  0  0  0  0  0  0  0  0  0  0  0  0  # atno 16498 bound_to 6129
   30.2998   -9.5084   33.5831 LP  0  0  0  0  0  0  0  0  0  0  0  0  # atno 16499 bound_to 5910
   28.7785   -8.6825   33.5256 LP  0  0  0  0  0  0  0  0  0  0  0  0  # atno 16500 bound_to 5910
   29.6940  -11.9427   36.3212 LP  0  0  0  0  0  0  0  0  0  0  0  0  # atno 16501 bound_to 6101
   27.7964   -9.1298   37.0835 LP  0  0  0  0  0  0  0  0  0  0  0  0  # atno 16502 bound_to 5850
   29.4903   -9.4321   36.8845 LP  0  0  0  0  0  0  0  0  0  0  0  0  # atno 16503 bound_to 5850
   29.0693   -5.7927   37.1164 LP  0  0  0  0  0  0  0  0  0  0  0  0  # atno 16504 bound_to 5907
   28.5611  -13.6228   36.4430 LP  0  0  0  0  0  0  0  0  0  0  0  0  # atno 16505 bound_to 6051
   30.2106  -14.1176   36.2586 LP  0  0  0  0  0  0  0  0  0  0  0  0  # atno 16506 bound_to 6051
   32.3381  -12.2268   34.7737 LP  0  0  0  0  0  0  0  0  0  0  0  0  # atno 16507 bound_to 5982
   32.3014  -11.1436   33.4227 LP  0  0  0  0  0  0  0  0  0  0  0  0  # atno 16508 bound_to 5982
   30.8353   -8.1155   35.9960 LP  0  0  0  0  0  0  0  0  0  0  0  0  # atno 16509 bound_to 5979
   32.1728  -10.4419   35.5543 LP  0  0  0  0  0  0  0  0  0  0  0  0  # atno 16510 bound_to 6048
   12.6402   -4.0140   29.6430 LP  0  0  0  0  0  0  0  0  0  0  0  0  # atno 16511 bound_to 11145
   12.6102   -4.4630   31.3156 LP  0  0  0  0  0  0  0  0  0  0  0  0  # atno 16512 bound_to 11145
   15.0911   -2.9731   29.9598 LP  0  0  0  0  0  0  0  0  0  0  0  0  # atno 16513 bound_to 11196
   16.0672   -0.8535   29.2953 LP  0  0  0  0  0  0  0  0  0  0  0  0  # atno 16514 bound_to 11199
   15.8124    0.6102   28.4050 LP  0  0  0  0  0  0  0  0  0  0  0  0  # atno 16515 bound_to 11199
   14.3005   -0.5176   27.6406 LP  0  0  0  0  0  0  0  0  0  0  0  0  # atno 16516 bound_to 11229
   14.0437   -3.9418   34.0611 LP  0  0  0  0  0  0  0  0  0  0  0  0  # atno 16525 bound_to 11142
   15.3830   -2.4947   34.7572 LP  0  0  0  0  0  0  0  0  0  0  0  0  # atno 16530 bound_to 11085
   13.9921   -1.4915   34.9999 LP  0  0  0  0  0  0  0  0  0  0  0  0  # atno 16531 bound_to 11085
   14.3525   -4.3598   36.7232 LP  0  0  0  0  0  0  0  0  0  0  0  0  # atno 16533 bound_to 11082
   16.1874    3.0951   25.4117 LP  0  0  0  0  0  0  0  0  0  0  0  0  # atno 16538 bound_to 11232
   16.8641    2.4727   26.8796 LP  0  0  0  0  0  0  0  0  0  0  0  0  # atno 16539 bound_to 11232
   14.6082    1.9457   26.1638 LP  0  0  0  0  0  0  0  0  0  0  0  0  # atno 16542 bound_to 11266
   16.5030    2.6741   36.1817 LP  0  0  0  0  0  0  0  0  0  0  0  0  # atno 16548 bound_to 9421
   11.5174    2.7646   28.8883 LP  0  0  0  0  0  0  0  0  0  0  0  0  # atno 16549 bound_to 11269
   12.7958    2.2084   29.9161 LP  0  0  0  0  0  0  0  0  0  0  0  0  # atno 16550 bound_to 11269
   11.6938    4.2934   32.9168 LP  0  0  0  0  0  0  0  0  0  0  0  0  # atno 16552 bound_to 11318
   10.4066    3.5647   32.0157 LP  0  0  0  0  0  0  0  0  0  0  0  0  # atno 16553 bound_to 11318
   11.0106    1.8907   30.8282 LP  0  0  0  0  0  0  0  0  0  0  0  0  # atno 16554 bound_to 11466
   11.3918    4.4810   30.6142 LP  0  0  0  0  0  0  0  0  0  0  0  0  # atno 16555 bound_to 11358
   13.4697    7.4939   34.9508 LP  0  0  0  0  0  0  0  0  0  0  0  0  # atno 16556 bound_to 11538
   12.5003    8.7867   35.1864 LP  0  0  0  0  0  0  0  0  0  0  0  0  # atno 16557 bound_to 11538
   17.9146    9.5009   38.5210 LP  0  0  0  0  0  0  0  0  0  0  0  0  # atno 16558 bound_to 9314
   16.8830    8.1981   38.0327 LP  0  0  0  0  0  0  0  0  0  0  0  0  # atno 16559 bound_to 9314
   17.6537    6.2904   40.5124 LP  0  0  0  0  0  0  0  0  0  0  0  0  # atno 16560 bound_to 9335
   16.2631    3.7318   39.0742 LP  0  0  0  0  0  0  0  0  0  0  0  0  # atno 16561 bound_to 9338
   16.0781    5.2210   39.9392 LP  0  0  0  0  0  0  0  0  0  0  0  0  # atno 16562 bound_to 9338
   20.5944    6.4153   39.4646 LP  0  0  0  0  0  0  0  0  0  0  0  0  # atno 16563 bound_to 9341
   20.8059    6.2246   37.8567 LP  0  0  0  0  0  0  0  0  0  0  0  0  # atno 16564 bound_to 9341
   13.4032    3.7470   38.2881 LP  0  0  0  0  0  0  0  0  0  0  0  0  # atno 16565 bound_to 9380
   13.4649    2.1433   37.6367 LP  0  0  0  0  0  0  0  0  0  0  0  0  # atno 16566 bound_to 9380
   16.5978    1.5889   39.0121 LP  0  0  0  0  0  0  0  0  0  0  0  0  # atno 16567 bound_to 9469
   29.0043   -3.5758   37.0333 LP  0  0  0  0  0  0  0  0  0  0  0  0  # atno 16570 bound_to 5709
   30.0541   -4.7861   37.6913 LP  0  0  0  0  0  0  0  0  0  0  0  0  # atno 16571 bound_to 5709
   26.6433    0.5794   41.9791 LP  0  0  0  0  0  0  0  0  0  0  0  0  # atno 16574 bound_to 7822
   29.0827    4.2925   42.7141 LP  0  0  0  0  0  0  0  0  0  0  0  0  # atno 16575 bound_to 7825
   29.3850    3.6687   41.1268 LP  0  0  0  0  0  0  0  0  0  0  0  0  # atno 16576 bound_to 7825
   30.0987   -1.3258   41.1707 LP  0  0  0  0  0  0  0  0  0  0  0  0  # atno 16579 bound_to 5706
   30.6970   -2.3231   38.0202 LP  0  0  0  0  0  0  0  0  0  0  0  0  # atno 16580 bound_to 5761
   35.2533   -1.9680   36.5281 LP  0  0  0  0  0  0  0  0  0  0  0  0  # atno 16581 bound_to 5766
   33.8359   -1.1733   36.6893 LP  0  0  0  0  0  0  0  0  0  0  0  0  # atno 16582 bound_to 5766
   28.6272    0.8100   42.1836 LP  0  0  0  0  0  0  0  0  0  0  0  0  # atno 16583 bound_to 7781
   28.1498   -0.4575   43.2632 LP  0  0  0  0  0  0  0  0  0  0  0  0  # atno 16584 bound_to 7781
   27.6001    3.0763   42.2915 LP  0  0  0  0  0  0  0  0  0  0  0  0  # atno 16585 bound_to 7866
   14.2551   -0.1846   39.9624 LP  0  0  0  0  0  0  0  0  0  0  0  0  # atno 16593 bound_to 9424
   15.0030   -1.0801   38.6823 LP  0  0  0  0  0  0  0  0  0  0  0  0  # atno 16594 bound_to 9424
   20.0602   -3.1894   40.9928 LP  0  0  0  0  0  0  0  0  0  0  0  0  # atno 16595 bound_to 9480
   20.6313   -2.6867   42.4377 LP  0  0  0  0  0  0  0  0  0  0  0  0  # atno 16596 bound_to 9480
   20.3332    2.1121   42.9799 LP  0  0  0  0  0  0  0  0  0  0  0  0  # atno 16597 bound_to 7659
   19.5022    3.1751   44.0659 LP  0  0  0  0  0  0  0  0  0  0  0  0  # atno 16598 bound_to 7659
   25.6617    0.9674   44.1452 LP  0  0  0  0  0  0  0  0  0  0  0  0  # atno 16599 bound_to 7717
   24.6086    2.3378   44.0323 LP  0  0  0  0  0  0  0  0  0  0  0  0  # atno 16600 bound_to 7717
   21.9680    1.2762   45.2607 LP  0  0  0  0  0  0  0  0  0  0  0  0  # atno 16601 bound_to 7714
   18.6227   -4.6821   41.5948 LP  0  0  0  0  0  0  0  0  0  0  0  0  # atno 16602 bound_to 10532
   18.0241   -6.1182   42.3558 LP  0  0  0  0  0  0  0  0  0  0  0  0  # atno 16603 bound_to 10532
   16.3656   10.1867   41.5793 LP  0  0  0  0  0  0  0  0  0  0  0  0  # atno 16604 bound_to 9311
   26.9914   11.3654   26.9507 LP  0  0  0  0  0  0  0  0  0  0  0  0  # atno 16607 bound_to 15310
   26.7698   11.7557   25.3806 LP  0  0  0  0  0  0  0  0  0  0  0  0  # atno 16608 bound_to 15310
   17.3724    8.7673   45.1488 LP  0  0  0  0  0  0  0  0  0  0  0  0  # atno 16611 bound_to 7554
   18.4706    7.6612   44.3934 LP  0  0  0  0  0  0  0  0  0  0  0  0  # atno 16612 bound_to 7554
   22.3144    4.1196   44.5939 LP  0  0  0  0  0  0  0  0  0  0  0  0  # atno 16613 bound_to 7623
   22.2888    5.7790   44.0984 LP  0  0  0  0  0  0  0  0  0  0  0  0  # atno 16614 bound_to 7623
   13.3496   11.3183   41.3742 LP  0  0  0  0  0  0  0  0  0  0  0  0  # atno 16615 bound_to 9280
   15.1109    8.4906   41.8486 LP  0  0  0  0  0  0  0  0  0  0  0  0  # atno 16616 bound_to 9283
   15.2056    9.5056   43.2489 LP  0  0  0  0  0  0  0  0  0  0  0  0  # atno 16617 bound_to 9283
   14.8015   13.5761   40.0593 LP  0  0  0  0  0  0  0  0  0  0  0  0  # atno 16618 bound_to 9228
   13.8532   14.7675   40.8847 LP  0  0  0  0  0  0  0  0  0  0  0  0  # atno 16619 bound_to 9228
   18.4588    6.5489   46.4651 LP  0  0  0  0  0  0  0  0  0  0  0  0  # atno 16620 bound_to 7620
   11.9208   15.0348   41.9035 LP  0  0  0  0  0  0  0  0  0  0  0  0  # atno 16628 bound_to 9225
   14.5640    3.5690   40.4555 LP  0  0  0  0  0  0  0  0  0  0  0  0  # atno 16635 bound_to 9528
   23.0022   20.4071   36.6485 LP  0  0  0  0  0  0  0  0  0  0  0  0  # atno 16636 bound_to 3357
   24.2935   19.9170   37.6936 LP  0  0  0  0  0  0  0  0  0  0  0  0  # atno 16637 bound_to 3357
   22.0929   20.3391   39.7358 LP  0  0  0  0  0  0  0  0  0  0  0  0  # atno 16638 bound_to 3415
   21.7776   21.6810   40.7846 LP  0  0  0  0  0  0  0  0  0  0  0  0  # atno 16639 bound_to 3415
   24.8392   21.9720   37.4865 LP  0  0  0  0  0  0  0  0  0  0  0  0  # atno 16640 bound_to 3412
   25.1928   21.7679   39.2950 LP  0  0  0  0  0  0  0  0  0  0  0  0  # atno 16641 bound_to 3478
    9.0275   15.2445   43.3425 LP  0  0  0  0  0  0  0  0  0  0  0  0  # atno 16646 bound_to 9102
    8.4484   13.7254   43.9400 LP  0  0  0  0  0  0  0  0  0  0  0  0  # atno 16647 bound_to 9102
   10.9491   15.2691   46.3928 LP  0  0  0  0  0  0  0  0  0  0  0  0  # atno 16648 bound_to 9168
   14.8416   15.9241   47.1152 LP  0  0  0  0  0  0  0  0  0  0  0  0  # atno 16649 bound_to 9178
   14.8937   17.2611   48.0513 LP  0  0  0  0  0  0  0  0  0  0  0  0  # atno 16650 bound_to 9178
    9.5430   24.6137   35.5618 LP  0  0  0  0  0  0  0  0  0  0  0  0  # atno 16654 bound_to 6255
   10.8337   23.6857   35.9353 LP  0  0  0  0  0  0  0  0  0  0  0  0  # atno 16655 bound_to 6255
   12.0320   18.8167   47.0240 LP  0  0  0  0  0  0  0  0  0  0  0  0  # atno 16656 bound_to 9176
   13.4644   18.9164   47.8019 LP  0  0  0  0  0  0  0  0  0  0  0  0  # atno 16657 bound_to 9176

> <Gold.Score>
     Fitness  S(hb_ext) S(vdw_ext)  S(hb_int)    S(int)      intcor
     37.63       2.43      26.00       0.00      -0.55      -0.76

> <Gold.Goldscore.Fitness>
37.6343

> <Gold.Goldscore.Internal.Vdw>
-0.7394

> <Gold.Goldscore.Internal.Torsion>
-0.5702

> <Gold.Goldscore.External.Vdw>
26.0049

> <Gold.Goldscore.Internal.HBond>
0.0000

> <Gold.Goldscore.External.HBond>
2.4307

> <Gold.Goldscore.Internal.Correction>
-0.7565

> <Gold.Goldscore.Hbonds>
donor molecule, donor type, donor heavy atom, donor atom, acceptor molecule, acceptor atom, score
      P1  H 11640 11661       L1    17  0.32
      L1  H    10    23       P1 11145  0.25

> <Gold.Goldscore.Internal.Vdw.Weighted>
-0.7394

> <Gold.Goldscore.Internal.Torsion.Weighted>
-0.5702

> <Gold.Goldscore.External.Vdw.Weighted>
35.7567

> <Gold.Goldscore.Internal.HBond.Weighted>
0.0000

> <Gold.Goldscore.External.HBond.Weighted>
2.4307

> <Gold.Goldscore.Internal.Correction.Weighted>
-0.7565

> <Gold.Rescore>
     Score     S(PLP)   S(hbond)     S(cho)   S(metal)  DE(clash)   DE(tors)     intcor
     23.20     -23.32       0.75       0.00       0.00       0.00       1.19       ----

> <Gold.PLP.Fitness>
23.2010

> <Gold.PLP.PLP>
-23.3232

> <Gold.PLP.part.hbond>
-1.9100

> <Gold.PLP.part.metal>
0.0000

> <Gold.PLP.part.buried>
10.1121

> <Gold.PLP.part.nonpolar>
-35.0496

> <Gold.PLP.part.repulsive>
1.6436

> <Gold.PLP.ligand.clash>
0.0000

> <Gold.PLP.ligand.torsion>
1.1912

> <Gold.PLP.Chemscore.Hbond>
0.7534

> <Gold.PLP.Chemscore.CHOScore>
0.0000

> <Gold.PLP.Chemscore.Metal>
0.0000

> <Gold.Chemscore.Hbonds>
donor molecule, donor type, donor heavy atom, donor atom, acceptor molecule, acceptor atom, score
      L1  H    10    23       P1 11145  0.36
      P1  H 11640 11661       L1    17  0.45

> <Gold.PLP.Chemscore.Internal.Correction>
   9.000000E+99

