#       Name:                CT1002167954
#       Creating user name   hitesit
#       Creation time:       Sun Apr 16 22:54:10 2023


#       File generated by GOLD software.
#

@<TRIPOS>MOLECULE
CT1002167954|ligand_prepared|mol2|1|dock2
    29    30     1
SMALL
NO_CHARGES


@<TRIPOS>ATOM
      1 C1           9.3957  16.3271  39.0426 C.3            1 RES1               0.0000
      2 C2           8.7599  14.9404  39.2696 C.ar           1 RES1               0.0000
      3 C3          10.8024  16.2548  39.6294 C.2            1 RES1               0.0000
      4 C4           9.3610  16.5712  37.5380 C.2            1 RES1               0.0000
      5 C5           8.6349  17.4837  39.7319 C.3            1 RES1               0.0000
      6 C6           8.2583  14.5867  40.5186 C.ar           1 RES1               0.0000
      7 C7           8.6657  14.0069  38.2409 C.ar           1 RES1               0.0000
      8 N8          11.8484  16.1903  38.7567 N.am           1 RES1               0.0000
      9 O9          10.9888  16.2149  40.8393 O.2            1 RES1               0.0000
     10 N10         10.5562  16.6460  36.8719 N.am           1 RES1               0.0000
     11 O11          8.3090  16.6828  36.9206 O.2            1 RES1               0.0000
     12 C12          9.1051  18.8660  39.3072 C.3            1 RES1               0.0000
     13 C13          7.6807  13.3459  40.7309 C.ar           1 RES1               0.0000
     14 C14          8.0879  12.7664  38.4554 C.ar           1 RES1               0.0000
     15 C15         11.7974  16.4360  37.4081 C.2            1 RES1               0.0000
     16 C16          7.5947  12.4352  39.6995 C.ar           1 RES1               0.0000
     17 O17         12.8226  16.4665  36.7334 O.2            1 RES1               0.0000
     18 H18          7.5661  17.3887  39.5038 H              1 RES1               0.0000
     19 H19          8.7557  17.3880  40.8181 H              1 RES1               0.0000
     20 H20          8.3193  15.2894  41.3430 H              1 RES1               0.0000
     21 H21          9.0480  14.2453  37.2542 H              1 RES1               0.0000
     22 H22         12.7521  15.9358  39.1424 H              1 RES1               0.0000
     23 H23         10.5170  16.8801  35.8850 H              1 RES1               0.0000
     24 H24          8.5388  19.6405  39.8202 H              1 RES1               0.0000
     25 H25         10.1583  19.0043  39.5423 H              1 RES1               0.0000
     26 H26          8.9758  19.0050  38.2358 H              1 RES1               0.0000
     27 H27          7.2952  13.0896  41.7122 H              1 RES1               0.0000
     28 H28          8.0229  12.0526  37.6409 H              1 RES1               0.0000
     29 H29          7.1418  11.4634  39.8659 H              1 RES1               0.0000
@<TRIPOS>BOND
    1    1    2 1     
    2    1    3 1     
    3    1    4 1     
    4    1    5 1     
    5    2    6 ar    
    6    2    7 ar    
    7    3    8 1     
    8    3    9 2     
    9    4   10 1     
   10    4   11 2     
   11    5   12 1     
   12    5   18 1     
   13    5   19 1     
   14    6   13 ar    
   15    6   20 1     
   16    7   14 ar    
   17    7   21 1     
   18    8   15 1     
   19    8   22 1     
   20   10   15 1     
   21   10   23 1     
   22   12   24 1     
   23   12   25 1     
   24   12   26 1     
   25   13   16 ar    
   26   13   27 1     
   27   14   16 ar    
   28   14   28 1     
   29   15   17 2     
   30   16   29 1     
@<TRIPOS>SUBSTRUCTURE
      1 RES1           1
@<TRIPOS>SET
DONOR_HYDROGENS      STATIC     ATOMS    <user>   **** ""
2 22 23
ATOM$RED        STATIC     ATOMS    COLORGROUP SYSTEM
2 22 23
@<TRIPOS>COMMENT
> <Gold.Version>
2022.3.0

> <Gold.Id.Protein>
unknown|3mvj_clean|pdb

> <Gold.Protein.RotatedTorsions>
[ 10968 10947 10946 10944 ] final   91.89 input   60.01 | X-H torsion
[ 10728 10707 10706 10704 ] final  -80.48 input   59.96 | X-H torsion
[ 10960 10936 10937 10938 ] final  -25.60 input   23.31 | X-H torsion
[ 12067 12045 12046 12047 ] final  -10.64 input   63.71 | X-H torsion
[ 15542 15533 15534 15535 ] final   83.46 input   83.29 | X-H torsion
[ 15588 15579 15580 15581 ] final   41.86 input  107.67 | X-H torsion
[ 15633 15624 15625 15626 ] final   -6.42 input   84.82 | X-H torsion
[ 10915 10907 10908 10909 ] final  164.60 input  -87.38 | X-H torsion
[ 6151 6129 6130 6131 ] final  -57.79 input   27.76 | X-H torsion
[ 6109 6101 6102 6103 ] final  -43.01 input  -93.79 | X-H torsion
[ 5929 5907 5908 5909 ] final   51.78 input  119.25 | X-H torsion
[ 6001 5979 5980 5981 ] final -153.10 input  112.51 | X-H torsion
[ 6064 6048 6049 6050 ] final  123.84 input  108.26 | X-H torsion
[ 11206 11196 11197 11198 ] final -149.54 input   -0.63 | X-H torsion
[ 11245 11229 11230 11231 ] final  -89.77 input  120.69 | X-H torsion
[ 11164 11142 11143 11144 ] final -119.28 input   33.88 | X-H torsion
[ 11104 11082 11083 11084 ] final  139.31 input   45.00 | X-H torsion
[ 11284 11266 11267 11268 ] final  -79.76 input   49.58 | X-H torsion
[ 9439 9421 9422 9423 ] final  129.21 input  116.39 | X-H torsion
[ 11482 11466 11467 11468 ] final  -37.06 input  126.08 | X-H torsion
[ 11374 11358 11359 11360 ] final   71.83 input   98.08 | X-H torsion
[ 11559 11538 11537 11535 ] final  -56.66 input   60.01 | X-H torsion
[ 9349 9335 9336 9337 ] final  -70.56 input   84.14 | X-H torsion
[ 9355 9341 9339 9336 ] final  179.61 input   60.02 | X-H torsion
[ 9493 9469 9470 9471 ] final  137.12 input   75.21 | X-H torsion
[ 7840 7822 7823 7824 ] final -172.55 input  121.36 | X-H torsion
[ 7742 7722 7721 7720 ] final  -53.85 input   60.01 | X-H torsion
[ 5728 5706 5707 5708 ] final   61.56 input  119.20 | X-H torsion
[ 5773 5761 5762 5763 ] final -177.92 input  120.20 | X-H torsion
[ 5777 5766 5765 5762 ] final -152.34 input   59.99 | X-H torsion
[ 7882 7866 7867 7868 ] final   30.56 input   81.17 | X-H torsion
[ 9501 9480 9479 9477 ] final  -81.65 input   60.03 | X-H torsion
[ 7732 7714 7715 7716 ] final -113.25 input  -10.67 | X-H torsion
[ 15083 15054 15053 15052 ] final -149.60 input   60.01 | X-H torsion
[ 9319 9311 9312 9313 ] final -146.54 input  -66.31 | X-H torsion
[ 15194 15161 15160 15159 ] final   93.64 input   59.99 | X-H torsion
[ 15326 15310 15309 15306 ] final -166.36 input   59.99 | X-H torsion
[ 9292 9280 9281 9282 ] final -113.83 input   22.77 | X-H torsion
[ 7636 7620 7621 7622 ] final    4.47 input   34.37 | X-H torsion
[ 9241 9225 9226 9227 ] final   79.22 input   96.07 | X-H torsion
[ 9544 9528 9529 9530 ] final -171.78 input   99.68 | X-H torsion
[ 3443 3412 3413 3414 ] final  -13.82 input -120.58 | X-H torsion
[ 3504 3478 3479 3480 ] final  -47.55 input   70.69 | X-H torsion
[ 9190 9168 9169 9170 ] final    1.57 input  115.65 | X-H torsion
[ 9198 9178 9175 9174 ] final   90.78 input   59.98 | X-H torsion
[ 6282 6255 6254 6251 ] final  -83.49 input   60.00 | X-H torsion
[ 9196 9176 9175 9174 ] final  -83.63 input   60.01 | X-H torsion
[ 12157 12142 12143 12144 ] final  -95.49 input  108.55 | X-H torsion
[ 11995 11973 11974 11975 ] final -169.38 input   68.31 | X-H torsion
[ 11434 11416 11417 11418 ] final -156.56 input  102.35 | X-H torsion
[ 5626 5608 5609 5610 ] final   40.22 input  119.09 | X-H torsion
[ 10774 10756 10757 10758 ] final -129.73 input  129.22 | X-H torsion
[ 10816 10800 10801 10802 ] final  -70.66 input  128.85 | X-H torsion
[ 8641 8619 8620 8621 ] final  -85.80 input   87.35 | X-H torsion
[ 3659 3632 3633 3634 ] final  -28.05 input  116.97 | X-H torsion
[ 10029 10008 10007 10005 ] final  -37.17 input   60.01 | X-H torsion
[ 16458 15536 15535 15534 ] final -170.30 input    0.00 | X-H torsion
[ 16468 10881 10880 10879 ] final  -22.66 input    0.00 | X-H torsion
[ 16470 10910 10909 10908 ] final -166.18 input    0.00 | X-H torsion
[ 16473 10997 10996 10995 ] final    4.33 input    0.00 | X-H torsion
[ 16475 11976 11975 11974 ] final  159.99 input    0.00 | X-H torsion
[ 16477 12048 12047 12046 ] final  116.56 input    0.00 | X-H torsion
[ 16480 10939 10938 10937 ] final  179.80 input   -0.00 | X-H torsion
[ 16483 11039 11038 11037 ] final  158.76 input    0.00 | X-H torsion
[ 16492 15582 15581 15580 ] final  -12.79 input    0.00 | X-H torsion
[ 16496 6104 6103 6102 ] final  171.44 input    0.00 | X-H torsion
[ 16499 5910 5909 5908 ] final  141.88 input   -0.00 | X-H torsion
[ 16502 5850 5849 5848 ] final  162.87 input    0.00 | X-H torsion
[ 16505 6051 6050 6049 ] final   15.90 input    0.00 | X-H torsion
[ 16507 5982 5981 5980 ] final   -1.56 input    0.00 | X-H torsion
[ 16511 11145 11144 11143 ] final -160.62 input    0.00 | X-H torsion
[ 16514 11199 11198 11197 ] final  -16.96 input    0.00 | X-H torsion
[ 16530 11085 11084 11083 ] final -138.13 input   -0.00 | X-H torsion
[ 16538 11232 11231 11230 ] final  130.54 input    0.00 | X-H torsion
[ 16549 11269 11268 11267 ] final  -76.18 input   -0.00 | X-H torsion
[ 16552 11318 11317 11316 ] final  -49.45 input    0.00 | X-H torsion
[ 16558 9314 9313 9312 ] final -174.59 input    0.00 | X-H torsion
[ 16561 9338 9337 9336 ] final   88.40 input    0.00 | X-H torsion
[ 16565 9380 9379 9378 ] final   40.55 input    0.00 | X-H torsion
[ 16570 5709 5708 5707 ] final  157.27 input    0.00 | X-H torsion
[ 16575 7825 7824 7823 ] final    1.69 input    0.00 | X-H torsion
[ 16583 7781 7780 7779 ] final  106.62 input   -0.00 | X-H torsion
[ 16593 9424 9423 9422 ] final  -19.96 input   -0.00 | X-H torsion
[ 16597 7659 7658 7657 ] final  161.46 input   -0.00 | X-H torsion
[ 16599 7717 7716 7715 ] final -129.63 input    0.00 | X-H torsion
[ 16602 10532 10531 10530 ] final  111.78 input    0.00 | X-H torsion
[ 16611 7554 7553 7552 ] final  -59.42 input    0.00 | X-H torsion
[ 16613 7623 7622 7621 ] final  -35.50 input   -0.00 | X-H torsion
[ 16616 9283 9282 9281 ] final   41.84 input    0.00 | X-H torsion
[ 16618 9228 9227 9226 ] final   27.83 input   -0.00 | X-H torsion
[ 16636 3357 3356 3355 ] final  -19.98 input   -0.00 | X-H torsion
[ 16638 3415 3414 3413 ] final -151.12 input   -0.00 | X-H torsion
[ 16646 9102 9101 9100 ] final -118.29 input    0.00 | X-H torsion

> <Gold.Protein.ActiveResidues>
 ARG45   SER53   PHE54   LEU82   LYS83   GLN84   GLU86   HIS87   GLU127  PHE129 
 SER130  HIS131  LEU132  ARG133  ARG134  ILE135  GLY136  ARG137  PHE138  SER139 
 HIS142  ARG165  ASP166  LEU167  LYS168  PRO169  GLU170  ASN171  ASP184  GLY186 
 PHE187  TRP196  TPO197  LEU198  CYS199  GLY200  THR201  PRO202  GLU203  TYR204 
 LEU205  ILE209  ILE210  TYR215  VAL226  LEU227  TYR229  GLU230  MET231  ALA233 
 GLY234  TYR235  PRO236  PRO237  PHE238  PHE239  ALA240  ASP241  GLN242  PRO243 
 ILE244  GLN245  ILE246  TYR247  LYS249  ARG256  PHE257  PRO258  SER259  HIS260 
 PRO313  PHE314  ILE315  LYS317  LYS319  SER325  ASN326  ASP328  ASP329  GLU331 
 GLU332  GLU333  GLU334 

> <Gold.Protein.RotatedAtoms>
   25.0836   22.2449   37.7545 H   0  0  0  0  0  0  0  0  0  0  0  0  # atno 3443 bound_to 3412
   23.9493   22.4354   40.2543 H   0  0  0  0  0  0  0  0  0  0  0  0  # atno 3504 bound_to 3478
   23.6096   20.3588   46.1560 H   0  0  0  0  0  0  0  0  0  0  0  0  # atno 3659 bound_to 3632
   35.6434   -1.7682   41.7667 H   0  0  0  0  0  0  0  0  0  0  0  0  # atno 5626 bound_to 5608
   30.9764   -1.7376   40.7501 H   0  0  0  0  0  0  0  0  0  0  0  0  # atno 5728 bound_to 5706
   31.4199   -1.7059   38.2965 H   0  0  0  0  0  0  0  0  0  0  0  0  # atno 5773 bound_to 5761
   35.2406   -2.1028   36.4270 H   0  0  0  0  0  0  0  0  0  0  0  0  # atno 5777 bound_to 5766
   30.1445   -6.5169   37.1412 H   0  0  0  0  0  0  0  0  0  0  0  0  # atno 5929 bound_to 5907
   31.2431   -7.1136   34.6194 H   0  0  0  0  0  0  0  0  0  0  0  0  # atno 6001 bound_to 5979
   31.9452   -9.7607   37.0856 H   0  0  0  0  0  0  0  0  0  0  0  0  # atno 6064 bound_to 6048
   29.2941  -10.4630   36.6445 H   0  0  0  0  0  0  0  0  0  0  0  0  # atno 6109 bound_to 6101
   27.7633  -12.0321   37.7135 H   0  0  0  0  0  0  0  0  0  0  0  0  # atno 6151 bound_to 6129
   10.8086   23.6840   35.9056 H   0  0  0  0  0  0  0  0  0  0  0  0  # atno 6282 bound_to 6255
   19.3418    6.1296   47.2539 H   0  0  0  0  0  0  0  0  0  0  0  0  # atno 7636 bound_to 7620
   21.7094    1.3358   45.1626 H   0  0  0  0  0  0  0  0  0  0  0  0  # atno 7732 bound_to 7714
   21.7282    6.1724   40.8119 H   0  0  0  0  0  0  0  0  0  0  0  0  # atno 7742 bound_to 7722
   22.8775    5.9287   41.9807 H   0  0  0  0  0  0  0  0  0  0  0  0  # atno 7743 bound_to 7722
   23.1532    7.0178   40.7617 H   0  0  0  0  0  0  0  0  0  0  0  0  # atno 7744 bound_to 7722
   26.0677    0.5079   40.5616 H   0  0  0  0  0  0  0  0  0  0  0  0  # atno 7840 bound_to 7822
   26.8417    1.9909   43.1912 H   0  0  0  0  0  0  0  0  0  0  0  0  # atno 7882 bound_to 7866
   22.6406   14.0488   46.9402 H   0  0  0  0  0  0  0  0  0  0  0  0  # atno 8641 bound_to 8619
   10.2072   14.2866   45.6615 H   0  0  0  0  0  0  0  0  0  0  0  0  # atno 9190 bound_to 9168
   13.3822   19.0071   47.5149 H   0  0  0  0  0  0  0  0  0  0  0  0  # atno 9196 bound_to 9176
   14.9702   17.7949   47.1943 H   0  0  0  0  0  0  0  0  0  0  0  0  # atno 9198 bound_to 9178
   11.7081   15.0477   41.8209 H   0  0  0  0  0  0  0  0  0  0  0  0  # atno 9241 bound_to 9225
   13.3505   12.0932   41.1589 H   0  0  0  0  0  0  0  0  0  0  0  0  # atno 9292 bound_to 9280
   17.4727   10.7284   41.5783 H   0  0  0  0  0  0  0  0  0  0  0  0  # atno 9319 bound_to 9311
   17.5147    7.5428   39.7462 H   0  0  0  0  0  0  0  0  0  0  0  0  # atno 9349 bound_to 9335
   21.4117    5.1170   38.8223 H   0  0  0  0  0  0  0  0  0  0  0  0  # atno 9355 bound_to 9341
   16.6632    2.6973   36.3487 H   0  0  0  0  0  0  0  0  0  0  0  0  # atno 9439 bound_to 9421
   16.6640    1.9643   39.0623 H   0  0  0  0  0  0  0  0  0  0  0  0  # atno 9493 bound_to 9469
   20.0018   -3.2181   41.1282 H   0  0  0  0  0  0  0  0  0  0  0  0  # atno 9501 bound_to 9480
   14.7098    3.5580   40.7328 H   0  0  0  0  0  0  0  0  0  0  0  0  # atno 9544 bound_to 9528
   12.7421   11.5720   45.2800 H   0  0  0  0  0  0  0  0  0  0  0  0  # atno 10029 bound_to 10008
   13.7830  -10.1085   36.7363 H   0  0  0  0  0  0  0  0  0  0  0  0  # atno 10728 bound_to 10707
   18.2843   -7.8926   40.7275 H   0  0  0  0  0  0  0  0  0  0  0  0  # atno 10774 bound_to 10756
   21.8501   -7.7732   40.8514 H   0  0  0  0  0  0  0  0  0  0  0  0  # atno 10816 bound_to 10800
   22.2775  -11.8071   38.1361 H   0  0  0  0  0  0  0  0  0  0  0  0  # atno 10915 bound_to 10907
   21.0175   -8.9696   37.2806 H   0  0  0  0  0  0  0  0  0  0  0  0  # atno 10960 bound_to 10936
   16.3036  -13.4862   33.8909 H   0  0  0  0  0  0  0  0  0  0  0  0  # atno 10968 bound_to 10947
   13.1727   -4.6861   37.3521 H   0  0  0  0  0  0  0  0  0  0  0  0  # atno 11104 bound_to 11082
   13.3275   -3.2324   33.9489 H   0  0  0  0  0  0  0  0  0  0  0  0  # atno 11164 bound_to 11142
   14.2304   -3.1813   30.2731 H   0  0  0  0  0  0  0  0  0  0  0  0  # atno 11206 bound_to 11196
   14.8943   -1.1260   27.4132 H   0  0  0  0  0  0  0  0  0  0  0  0  # atno 11245 bound_to 11229
   14.9192    1.7920   27.2397 H   0  0  0  0  0  0  0  0  0  0  0  0  # atno 11284 bound_to 11266
   11.0942    4.8618   29.1151 H   0  0  0  0  0  0  0  0  0  0  0  0  # atno 11374 bound_to 11358
    8.9842    3.5781   29.0843 H   0  0  0  0  0  0  0  0  0  0  0  0  # atno 11434 bound_to 11416
    9.5426    1.1120   31.1283 H   0  0  0  0  0  0  0  0  0  0  0  0  # atno 11482 bound_to 11466
   12.9117    8.2029   35.5372 H   0  0  0  0  0  0  0  0  0  0  0  0  # atno 11559 bound_to 11538
    8.2501  -10.9135   37.3852 H   0  0  0  0  0  0  0  0  0  0  0  0  # atno 11995 bound_to 11973
   10.9305  -14.3808   37.3542 H   0  0  0  0  0  0  0  0  0  0  0  0  # atno 12067 bound_to 12045
   14.6266  -18.0434   37.6755 H   0  0  0  0  0  0  0  0  0  0  0  0  # atno 12157 bound_to 12142
   26.4470   14.8474   35.3893 H   0  0  0  0  0  0  0  0  0  0  0  0  # atno 15083 bound_to 15054
   27.2828   14.9276   33.9601 H   0  0  0  0  0  0  0  0  0  0  0  0  # atno 15084 bound_to 15054
   26.3159   16.1900   34.4273 H   0  0  0  0  0  0  0  0  0  0  0  0  # atno 15085 bound_to 15054
   31.3433   10.6110   31.0201 H   0  0  0  0  0  0  0  0  0  0  0  0  # atno 15194 bound_to 15161
   32.8155   11.3084   31.3277 H   0  0  0  0  0  0  0  0  0  0  0  0  # atno 15195 bound_to 15161
   31.6232   12.1833   30.5783 H   0  0  0  0  0  0  0  0  0  0  0  0  # atno 15196 bound_to 15161
   27.8267   10.8772   26.6597 H   0  0  0  0  0  0  0  0  0  0  0  0  # atno 15326 bound_to 15310
    9.3319  -11.6882   26.9725 H   0  0  0  0  0  0  0  0  0  0  0  0  # atno 15542 bound_to 15533
    8.1005  -15.4448   27.3486 H   0  0  0  0  0  0  0  0  0  0  0  0  # atno 15588 bound_to 15579
    8.7743  -18.2926   29.7786 H   0  0  0  0  0  0  0  0  0  0  0  0  # atno 15633 bound_to 15624
   11.0275  -15.4813   28.4276 LP  0  0  0  0  0  0  0  0  0  0  0  0  # atno 16458 bound_to 15536
   11.4785  -14.2570   27.2883 LP  0  0  0  0  0  0  0  0  0  0  0  0  # atno 16459 bound_to 15536
   15.9239  -13.0701   35.4174 LP  0  0  0  0  0  0  0  0  0  0  0  0  # atno 16460 bound_to 10947
   17.2487  -13.9776   35.1209 LP  0  0  0  0  0  0  0  0  0  0  0  0  # atno 16461 bound_to 10947
   13.4704  -11.4194   37.6483 LP  0  0  0  0  0  0  0  0  0  0  0  0  # atno 16466 bound_to 10707
   14.8717  -11.3153   36.8163 LP  0  0  0  0  0  0  0  0  0  0  0  0  # atno 16467 bound_to 10707
   21.0730  -13.6372   36.5210 LP  0  0  0  0  0  0  0  0  0  0  0  0  # atno 16468 bound_to 10881
   21.7835  -12.3090   35.6658 LP  0  0  0  0  0  0  0  0  0  0  0  0  # atno 16469 bound_to 10881
   22.3537   -7.7907   34.6230 LP  0  0  0  0  0  0  0  0  0  0  0  0  # atno 16470 bound_to 10910
   23.5997   -8.9932   34.5837 LP  0  0  0  0  0  0  0  0  0  0  0  0  # atno 16471 bound_to 10910
   21.4510   -9.6522   35.7331 LP  0  0  0  0  0  0  0  0  0  0  0  0  # atno 16472 bound_to 10936
   16.7891   -6.6791   35.1089 LP  0  0  0  0  0  0  0  0  0  0  0  0  # atno 16473 bound_to 10997
   15.1313   -6.8842   35.5667 LP  0  0  0  0  0  0  0  0  0  0  0  0  # atno 16474 bound_to 10997
   12.5001  -11.9332   38.4301 LP  0  0  0  0  0  0  0  0  0  0  0  0  # atno 16475 bound_to 11976
   11.6133  -11.1247   37.1811 LP  0  0  0  0  0  0  0  0  0  0  0  0  # atno 16476 bound_to 11976
   12.5412  -16.2659   36.4476 LP  0  0  0  0  0  0  0  0  0  0  0  0  # atno 16477 bound_to 12048
   11.9628  -16.8526   37.9712 LP  0  0  0  0  0  0  0  0  0  0  0  0  # atno 16478 bound_to 12048
   18.0978   -7.8280   38.1430 LP  0  0  0  0  0  0  0  0  0  0  0  0  # atno 16480 bound_to 10939
   19.2026   -9.0690   37.6537 LP  0  0  0  0  0  0  0  0  0  0  0  0  # atno 16481 bound_to 10939
   11.3727   -6.0532   35.9719 LP  0  0  0  0  0  0  0  0  0  0  0  0  # atno 16483 bound_to 11039
   12.0746   -7.5593   36.4608 LP  0  0  0  0  0  0  0  0  0  0  0  0  # atno 16484 bound_to 11039
   10.5398  -13.4483   38.7785 LP  0  0  0  0  0  0  0  0  0  0  0  0  # atno 16485 bound_to 12045
    7.6875  -12.2731   26.8771 LP  0  0  0  0  0  0  0  0  0  0  0  0  # atno 16490 bound_to 15533
    8.9086  -14.1820   28.2578 LP  0  0  0  0  0  0  0  0  0  0  0  0  # atno 16491 bound_to 15579
    8.3303  -17.0884   26.9947 LP  0  0  0  0  0  0  0  0  0  0  0  0  # atno 16492 bound_to 15582
    9.3721  -18.4692   27.0852 LP  0  0  0  0  0  0  0  0  0  0  0  0  # atno 16493 bound_to 15582
   10.3074  -17.4703   29.5880 LP  0  0  0  0  0  0  0  0  0  0  0  0  # atno 16494 bound_to 15624
   21.1809  -10.4501   37.9894 LP  0  0  0  0  0  0  0  0  0  0  0  0  # atno 16495 bound_to 10907
   25.0485  -10.7796   37.4212 LP  0  0  0  0  0  0  0  0  0  0  0  0  # atno 16496 bound_to 6104
   25.7783   -9.9658   36.0776 LP  0  0  0  0  0  0  0  0  0  0  0  0  # atno 16497 bound_to 6104
   26.5160  -12.9012   36.8527 LP  0  0  0  0  0  0  0  0  0  0  0  0  # atno 16498 bound_to 6129
   30.2935   -9.0516   33.1312 LP  0  0  0  0  0  0  0  0  0  0  0  0  # atno 16499 bound_to 5910
   28.7848   -9.1393   33.9775 LP  0  0  0  0  0  0  0  0  0  0  0  0  # atno 16500 bound_to 5910
   29.8445  -11.7465   35.5996 LP  0  0  0  0  0  0  0  0  0  0  0  0  # atno 16501 bound_to 6101
   28.4345   -8.9572   36.2084 LP  0  0  0  0  0  0  0  0  0  0  0  0  # atno 16502 bound_to 5850
   28.8522   -9.6047   37.7596 LP  0  0  0  0  0  0  0  0  0  0  0  0  # atno 16503 bound_to 5850
   28.4178   -6.7358   37.2835 LP  0  0  0  0  0  0  0  0  0  0  0  0  # atno 16504 bound_to 5907
   30.0214  -14.0806   36.9002 LP  0  0  0  0  0  0  0  0  0  0  0  0  # atno 16505 bound_to 6051
   28.7503  -13.6599   35.8014 LP  0  0  0  0  0  0  0  0  0  0  0  0  # atno 16506 bound_to 6051
   32.5709  -11.1374   33.4763 LP  0  0  0  0  0  0  0  0  0  0  0  0  # atno 16507 bound_to 5982
   32.0687  -12.2331   34.7201 LP  0  0  0  0  0  0  0  0  0  0  0  0  # atno 16508 bound_to 5982
   30.8367   -8.1145   35.9971 LP  0  0  0  0  0  0  0  0  0  0  0  0  # atno 16509 bound_to 5979
   31.7575  -10.3505   35.4501 LP  0  0  0  0  0  0  0  0  0  0  0  0  # atno 16510 bound_to 6048
   12.7553   -4.1379   29.6290 LP  0  0  0  0  0  0  0  0  0  0  0  0  # atno 16511 bound_to 11145
   12.4951   -4.3392   31.3295 LP  0  0  0  0  0  0  0  0  0  0  0  0  # atno 16512 bound_to 11145
   14.9870   -1.6024   30.4073 LP  0  0  0  0  0  0  0  0  0  0  0  0  # atno 16513 bound_to 11196
   15.5549   -0.3526   29.5908 LP  0  0  0  0  0  0  0  0  0  0  0  0  # atno 16514 bound_to 11199
   16.3248    0.1093   28.1096 LP  0  0  0  0  0  0  0  0  0  0  0  0  # atno 16515 bound_to 11199
   13.4446   -0.8372   26.4703 LP  0  0  0  0  0  0  0  0  0  0  0  0  # atno 16516 bound_to 11229
   13.4658   -4.6999   33.0189 LP  0  0  0  0  0  0  0  0  0  0  0  0  # atno 16525 bound_to 11142
   14.5015   -1.5714   34.1453 LP  0  0  0  0  0  0  0  0  0  0  0  0  # atno 16530 bound_to 11085
   14.8736   -2.4148   35.6117 LP  0  0  0  0  0  0  0  0  0  0  0  0  # atno 16531 bound_to 11085
   14.2926   -5.2384   36.1254 LP  0  0  0  0  0  0  0  0  0  0  0  0  # atno 16533 bound_to 11082
   16.0164    3.4074   25.8264 LP  0  0  0  0  0  0  0  0  0  0  0  0  # atno 16538 bound_to 11232
   17.0351    2.1605   26.4648 LP  0  0  0  0  0  0  0  0  0  0  0  0  # atno 16539 bound_to 11232
   13.3794    1.5777   26.4238 LP  0  0  0  0  0  0  0  0  0  0  0  0  # atno 16542 bound_to 11266
   15.2262    3.1499   37.2275 LP  0  0  0  0  0  0  0  0  0  0  0  0  # atno 16548 bound_to 9421
   11.4930    2.8293   28.9638 LP  0  0  0  0  0  0  0  0  0  0  0  0  # atno 16549 bound_to 11269
   12.8201    2.1437   29.8406 LP  0  0  0  0  0  0  0  0  0  0  0  0  # atno 16550 bound_to 11269
   11.6465    3.3096   32.3631 LP  0  0  0  0  0  0  0  0  0  0  0  0  # atno 16552 bound_to 11318
   10.4538    4.5485   32.5695 LP  0  0  0  0  0  0  0  0  0  0  0  0  # atno 16553 bound_to 11318
   11.1889    1.4999   30.6737 LP  0  0  0  0  0  0  0  0  0  0  0  0  # atno 16554 bound_to 11466
   11.4803    5.1958   30.7769 LP  0  0  0  0  0  0  0  0  0  0  0  0  # atno 16555 bound_to 11358
   12.4978    8.8636   34.1091 LP  0  0  0  0  0  0  0  0  0  0  0  0  # atno 16556 bound_to 11538
   13.4678    7.5507   34.1542 LP  0  0  0  0  0  0  0  0  0  0  0  0  # atno 16557 bound_to 11538
   17.4476    8.1108   37.8274 LP  0  0  0  0  0  0  0  0  0  0  0  0  # atno 16558 bound_to 9314
   17.3501    9.5882   38.7263 LP  0  0  0  0  0  0  0  0  0  0  0  0  # atno 16559 bound_to 9314
   18.5707    6.4126   40.5583 LP  0  0  0  0  0  0  0  0  0  0  0  0  # atno 16560 bound_to 9335
   15.7700    5.2070   39.7429 LP  0  0  0  0  0  0  0  0  0  0  0  0  # atno 16561 bound_to 9338
   16.5713    3.7458   39.2706 LP  0  0  0  0  0  0  0  0  0  0  0  0  # atno 16562 bound_to 9338
   20.6227    6.3637   39.5094 LP  0  0  0  0  0  0  0  0  0  0  0  0  # atno 16563 bound_to 9341
   20.7694    6.2824   37.8851 LP  0  0  0  0  0  0  0  0  0  0  0  0  # atno 16564 bound_to 9341
   12.9810    3.4532   37.4270 LP  0  0  0  0  0  0  0  0  0  0  0  0  # atno 16565 bound_to 9380
   13.8870    2.4371   38.4978 LP  0  0  0  0  0  0  0  0  0  0  0  0  # atno 16566 bound_to 9380
   14.9266    1.7580   39.0152 LP  0  0  0  0  0  0  0  0  0  0  0  0  # atno 16567 bound_to 9469
   30.1862   -4.1063   36.8030 LP  0  0  0  0  0  0  0  0  0  0  0  0  # atno 16570 bound_to 5709
   28.8722   -4.2556   37.9216 LP  0  0  0  0  0  0  0  0  0  0  0  0  # atno 16571 bound_to 5709
   26.0817    1.1563   42.1828 LP  0  0  0  0  0  0  0  0  0  0  0  0  # atno 16574 bound_to 7822
   29.3233    3.7584   41.0883 LP  0  0  0  0  0  0  0  0  0  0  0  0  # atno 16575 bound_to 7825
   29.1444    4.2029   42.7527 LP  0  0  0  0  0  0  0  0  0  0  0  0  # atno 16576 bound_to 7825
   29.6238   -2.5878   41.4532 LP  0  0  0  0  0  0  0  0  0  0  0  0  # atno 16579 bound_to 5706
   31.0390   -3.2354   39.0543 LP  0  0  0  0  0  0  0  0  0  0  0  0  # atno 16580 bound_to 5761
   33.9810   -1.1301   36.7651 LP  0  0  0  0  0  0  0  0  0  0  0  0  # atno 16581 bound_to 5766
   33.7866   -2.4040   35.7621 LP  0  0  0  0  0  0  0  0  0  0  0  0  # atno 16582 bound_to 5766
   28.6661   -0.1191   41.9581 LP  0  0  0  0  0  0  0  0  0  0  0  0  # atno 16583 bound_to 7781
   28.1108    0.4716   43.4887 LP  0  0  0  0  0  0  0  0  0  0  0  0  # atno 16584 bound_to 7781
   27.0045    3.4284   42.2043 LP  0  0  0  0  0  0  0  0  0  0  0  0  # atno 16585 bound_to 7866
   14.3036   -0.7829   38.5341 LP  0  0  0  0  0  0  0  0  0  0  0  0  # atno 16593 bound_to 9424
   14.9546   -0.4819   40.1107 LP  0  0  0  0  0  0  0  0  0  0  0  0  # atno 16594 bound_to 9424
   20.7548   -2.6005   42.4320 LP  0  0  0  0  0  0  0  0  0  0  0  0  # atno 16595 bound_to 9480
   21.3322   -2.3013   40.9340 LP  0  0  0  0  0  0  0  0  0  0  0  0  # atno 16596 bound_to 9480
   20.4833    2.4653   42.8918 LP  0  0  0  0  0  0  0  0  0  0  0  0  # atno 16597 bound_to 7659
   19.3521    2.8219   44.1540 LP  0  0  0  0  0  0  0  0  0  0  0  0  # atno 16598 bound_to 7659
   25.6352    1.7211   43.3850 LP  0  0  0  0  0  0  0  0  0  0  0  0  # atno 16599 bound_to 7717
   24.6351    1.5841   44.7925 LP  0  0  0  0  0  0  0  0  0  0  0  0  # atno 16600 bound_to 7717
   22.7085    2.6646   44.6157 LP  0  0  0  0  0  0  0  0  0  0  0  0  # atno 16601 bound_to 7714
   18.8038   -4.7206   41.7356 LP  0  0  0  0  0  0  0  0  0  0  0  0  # atno 16602 bound_to 10532
   17.8430   -6.0796   42.2150 LP  0  0  0  0  0  0  0  0  0  0  0  0  # atno 16603 bound_to 10532
   16.3797   10.1247   40.3565 LP  0  0  0  0  0  0  0  0  0  0  0  0  # atno 16604 bound_to 9311
   26.5011   11.7719   26.3578 LP  0  0  0  0  0  0  0  0  0  0  0  0  # atno 16607 bound_to 15310
   27.4909   11.3353   25.1346 LP  0  0  0  0  0  0  0  0  0  0  0  0  # atno 16608 bound_to 15310
   17.1513    7.8205   44.8119 LP  0  0  0  0  0  0  0  0  0  0  0  0  # atno 16611 bound_to 7554
   18.6917    8.6081   44.7302 LP  0  0  0  0  0  0  0  0  0  0  0  0  # atno 16612 bound_to 7554
   21.9712    5.4794   43.7463 LP  0  0  0  0  0  0  0  0  0  0  0  0  # atno 16613 bound_to 7623
   22.6320    4.4192   44.9461 LP  0  0  0  0  0  0  0  0  0  0  0  0  # atno 16614 bound_to 7623
   13.7955   11.7344   42.7990 LP  0  0  0  0  0  0  0  0  0  0  0  0  # atno 16615 bound_to 9280
   14.4040    9.2670   42.2188 LP  0  0  0  0  0  0  0  0  0  0  0  0  # atno 16616 bound_to 9283
   15.9124    8.7292   42.8787 LP  0  0  0  0  0  0  0  0  0  0  0  0  # atno 16617 bound_to 9283
   13.7074   14.7379   40.6845 LP  0  0  0  0  0  0  0  0  0  0  0  0  # atno 16618 bound_to 9228
   14.9473   13.6057   40.2594 LP  0  0  0  0  0  0  0  0  0  0  0  0  # atno 16619 bound_to 9228
   18.8966    7.6665   46.5697 LP  0  0  0  0  0  0  0  0  0  0  0  0  # atno 16620 bound_to 7620
   11.4760   14.0277   43.2188 LP  0  0  0  0  0  0  0  0  0  0  0  0  # atno 16628 bound_to 9225
   13.6044    2.2052   40.7795 LP  0  0  0  0  0  0  0  0  0  0  0  0  # atno 16635 bound_to 9528
   23.8471   19.8726   36.3796 LP  0  0  0  0  0  0  0  0  0  0  0  0  # atno 16636 bound_to 3357
   23.4486   20.4516   37.9626 LP  0  0  0  0  0  0  0  0  0  0  0  0  # atno 16637 bound_to 3357
   22.3373   20.9355   41.0236 LP  0  0  0  0  0  0  0  0  0  0  0  0  # atno 16638 bound_to 3415
   21.5331   21.0846   39.4968 LP  0  0  0  0  0  0  0  0  0  0  0  0  # atno 16639 bound_to 3415
   24.1935   23.2463   36.6306 LP  0  0  0  0  0  0  0  0  0  0  0  0  # atno 16640 bound_to 3412
   24.9447   21.5153   39.1465 LP  0  0  0  0  0  0  0  0  0  0  0  0  # atno 16641 bound_to 3478
    9.2519   13.7882   43.6227 LP  0  0  0  0  0  0  0  0  0  0  0  0  # atno 16646 bound_to 9102
    8.2240   15.1817   43.6598 LP  0  0  0  0  0  0  0  0  0  0  0  0  # atno 16647 bound_to 9102
   10.3764   15.9857   46.0209 LP  0  0  0  0  0  0  0  0  0  0  0  0  # atno 16648 bound_to 9168
   14.9092   16.3854   46.3837 LP  0  0  0  0  0  0  0  0  0  0  0  0  # atno 16649 bound_to 9178
   14.8332   16.3965   48.0148 LP  0  0  0  0  0  0  0  0  0  0  0  0  # atno 16650 bound_to 9178
   10.3994   24.8603   36.9528 LP  0  0  0  0  0  0  0  0  0  0  0  0  # atno 16654 bound_to 6255
    9.5326   24.6418   35.5862 LP  0  0  0  0  0  0  0  0  0  0  0  0  # atno 16655 bound_to 6255
   12.4694   18.2795   48.6493 LP  0  0  0  0  0  0  0  0  0  0  0  0  # atno 16656 bound_to 9176
   11.8179   18.6796   47.2063 LP  0  0  0  0  0  0  0  0  0  0  0  0  # atno 16657 bound_to 9176

> <Gold.Score>
     Fitness  S(hb_ext) S(vdw_ext)  S(hb_int)    S(int)      intcor
     32.21       0.41      23.89       0.00      -1.04      -0.76

> <Gold.Goldscore.Fitness>
32.2089

> <Gold.Goldscore.Internal.Vdw>
-1.2634

> <Gold.Goldscore.Internal.Torsion>
-0.5363

> <Gold.Goldscore.External.Vdw>
23.8858

> <Gold.Goldscore.Internal.HBond>
0.0000

> <Gold.Goldscore.External.HBond>
0.4073

> <Gold.Goldscore.Internal.Correction>
-0.7585

> <Gold.Goldscore.Hbonds>
donor molecule, donor type, donor heavy atom, donor atom, acceptor molecule, acceptor atom, score
      P1  H  9225  9241       L1     9  0.05
      L1  H    10    23       P1  6121  0.15

> <Gold.Goldscore.Internal.Vdw.Weighted>
-1.2634

> <Gold.Goldscore.Internal.Torsion.Weighted>
-0.5363

> <Gold.Goldscore.External.Vdw.Weighted>
32.8429

> <Gold.Goldscore.Internal.HBond.Weighted>
0.0000

> <Gold.Goldscore.External.HBond.Weighted>
0.4073

> <Gold.Goldscore.Internal.Correction.Weighted>
-0.7585

> <Gold.Rescore>
     Score     S(PLP)   S(hbond)     S(cho)   S(metal)  DE(clash)   DE(tors)     intcor
     25.27     -21.17       1.99       0.00       0.00       0.64       0.62       ----

> <Gold.PLP.Fitness>
25.2685

> <Gold.PLP.PLP>
-21.1677

> <Gold.PLP.part.hbond>
-2.3158

> <Gold.PLP.part.metal>
0.0000

> <Gold.PLP.part.buried>
3.5227

> <Gold.PLP.part.nonpolar>
-23.9947

> <Gold.PLP.part.repulsive>
0.3903

> <Gold.PLP.ligand.clash>
0.6412

> <Gold.PLP.ligand.torsion>
0.6170

> <Gold.PLP.Chemscore.Hbond>
1.9920

> <Gold.PLP.Chemscore.CHOScore>
0.0000

> <Gold.PLP.Chemscore.Metal>
0.0000

> <Gold.Chemscore.Hbonds>
donor molecule, donor type, donor heavy atom, donor atom, acceptor molecule, acceptor atom, score
      L1  H    10    23       P1  6121  0.83
      P1  H  9225  9241       L1     9  0.99

> <Gold.PLP.Chemscore.Internal.Correction>
   9.000000E+99

