#       Name:                CT1002167954
#       Creating user name   hitesit
#       Creation time:       Sun Apr 16 22:54:32 2023


#       File generated by GOLD software.
#

@<TRIPOS>MOLECULE
CT1002167954|ligand_prepared|mol2|1|dock10
    29    30     1
SMALL
NO_CHARGES


@<TRIPOS>ATOM
      1 C1          18.8057  15.8775  32.9667 C.3            1 RES1               0.0000
      2 C2          17.6218  16.8658  32.9443 C.ar           1 RES1               0.0000
      3 C3          19.4907  16.0601  34.3179 C.2            1 RES1               0.0000
      4 C4          18.2080  14.4910  32.7546 C.2            1 RES1               0.0000
      5 C5          19.8472  16.1247  31.8507 C.3            1 RES1               0.0000
      6 C6          16.9427  17.1311  31.7589 C.ar           1 RES1               0.0000
      7 C7          17.1964  17.5167  34.0993 C.ar           1 RES1               0.0000
      8 N8          19.3120  15.0844  35.2539 N.am           1 RES1               0.0000
      9 O9          20.1452  17.0637  34.5721 O.2            1 RES1               0.0000
     10 N10         18.2938  13.5904  33.7838 N.am           1 RES1               0.0000
     11 O11         17.6488  14.1757  31.7115 O.2            1 RES1               0.0000
     12 C12         21.0939  15.2628  31.9736 C.3            1 RES1               0.0000
     13 C13         15.8749  18.0129  31.7298 C.ar           1 RES1               0.0000
     14 C14         16.1285  18.3983  34.0678 C.ar           1 RES1               0.0000
     15 C15         18.7915  13.8343  35.0349 C.2            1 RES1               0.0000
     16 C16         15.4669  18.6466  32.8841 C.ar           1 RES1               0.0000
     17 O17         18.7847  12.9892  35.9253 O.2            1 RES1               0.0000
     18 H18         19.3769  15.9288  30.8791 H              1 RES1               0.0000
     19 H19         20.1444  17.1804  31.8725 H              1 RES1               0.0000
     20 H20         17.2510  16.6437  30.8401 H              1 RES1               0.0000
     21 H21         17.7027  17.3374  35.0417 H              1 RES1               0.0000
     22 H22         19.5911  15.3047  36.2046 H              1 RES1               0.0000
     23 H23         17.9555  12.6511  33.6004 H              1 RES1               0.0000
     24 H24         21.7913  15.4759  31.1662 H              1 RES1               0.0000
     25 H25         21.6009  15.4503  32.9178 H              1 RES1               0.0000
     26 H26         20.8380  14.2061  31.9303 H              1 RES1               0.0000
     27 H27         15.3584  18.2060  30.7953 H              1 RES1               0.0000
     28 H28         15.8112  18.8953  34.9786 H              1 RES1               0.0000
     29 H29         14.6302  19.3370  32.8610 H              1 RES1               0.0000
@<TRIPOS>BOND
    1    1    2 1     
    2    1    3 1     
    3    1    4 1     
    4    1    5 1     
    5    2    6 ar    
    6    2    7 ar    
    7    3    8 1     
    8    3    9 2     
    9    4   10 1     
   10    4   11 2     
   11    5   12 1     
   12    5   18 1     
   13    5   19 1     
   14    6   13 ar    
   15    6   20 1     
   16    7   14 ar    
   17    7   21 1     
   18    8   15 1     
   19    8   22 1     
   20   10   15 1     
   21   10   23 1     
   22   12   24 1     
   23   12   25 1     
   24   12   26 1     
   25   13   16 ar    
   26   13   27 1     
   27   14   16 ar    
   28   14   28 1     
   29   15   17 2     
   30   16   29 1     
@<TRIPOS>SUBSTRUCTURE
      1 RES1           1
@<TRIPOS>SET
DONOR_HYDROGENS      STATIC     ATOMS    <user>   **** ""
2 22 23
ATOM$RED        STATIC     ATOMS    COLORGROUP SYSTEM
2 22 23
@<TRIPOS>COMMENT
> <Gold.Version>
2022.3.0

> <Gold.Id.Protein>
unknown|3mvj_clean|pdb

> <Gold.Protein.RotatedTorsions>
[ 10968 10947 10946 10944 ] final -167.81 input   60.01 | X-H torsion
[ 10728 10707 10706 10704 ] final -159.42 input   59.96 | X-H torsion
[ 10960 10936 10937 10938 ] final  111.91 input   23.31 | X-H torsion
[ 12067 12045 12046 12047 ] final  142.46 input   63.71 | X-H torsion
[ 15542 15533 15534 15535 ] final  150.79 input   83.29 | X-H torsion
[ 15588 15579 15580 15581 ] final  -59.67 input  107.67 | X-H torsion
[ 15633 15624 15625 15626 ] final  -52.99 input   84.82 | X-H torsion
[ 10915 10907 10908 10909 ] final -171.76 input  -87.38 | X-H torsion
[ 6151 6129 6130 6131 ] final  -80.52 input   27.76 | X-H torsion
[ 6109 6101 6102 6103 ] final  -65.67 input  -93.79 | X-H torsion
[ 5929 5907 5908 5909 ] final   10.97 input  119.25 | X-H torsion
[ 6001 5979 5980 5981 ] final  146.26 input  112.51 | X-H torsion
[ 6064 6048 6049 6050 ] final  -81.58 input  108.26 | X-H torsion
[ 11206 11196 11197 11198 ] final  -69.54 input   -0.63 | X-H torsion
[ 11245 11229 11230 11231 ] final  -11.50 input  120.69 | X-H torsion
[ 11164 11142 11143 11144 ] final -155.97 input   33.88 | X-H torsion
[ 11104 11082 11083 11084 ] final   95.62 input   45.00 | X-H torsion
[ 11284 11266 11267 11268 ] final  139.58 input   49.58 | X-H torsion
[ 9439 9421 9422 9423 ] final   47.48 input  116.39 | X-H torsion
[ 11482 11466 11467 11468 ] final  123.26 input  126.08 | X-H torsion
[ 11374 11358 11359 11360 ] final   41.83 input   98.08 | X-H torsion
[ 11559 11538 11537 11535 ] final  -17.34 input   60.01 | X-H torsion
[ 9349 9335 9336 9337 ] final   65.85 input   84.14 | X-H torsion
[ 9355 9341 9339 9336 ] final  -76.39 input   60.02 | X-H torsion
[ 9493 9469 9470 9471 ] final  124.43 input   75.21 | X-H torsion
[ 7840 7822 7823 7824 ] final -143.02 input  121.36 | X-H torsion
[ 7742 7722 7721 7720 ] final -164.99 input   60.01 | X-H torsion
[ 5728 5706 5707 5708 ] final -174.70 input  119.20 | X-H torsion
[ 5773 5761 5762 5763 ] final   -0.73 input  120.20 | X-H torsion
[ 5777 5766 5765 5762 ] final    2.33 input   59.99 | X-H torsion
[ 7882 7866 7867 7868 ] final  -88.99 input   81.17 | X-H torsion
[ 9501 9480 9479 9477 ] final  -80.60 input   60.03 | X-H torsion
[ 7732 7714 7715 7716 ] final -166.76 input  -10.67 | X-H torsion
[ 15083 15054 15053 15052 ] final  150.01 input   60.01 | X-H torsion
[ 9319 9311 9312 9313 ] final   15.25 input  -66.31 | X-H torsion
[ 15194 15161 15160 15159 ] final -150.95 input   59.99 | X-H torsion
[ 15326 15310 15309 15306 ] final   59.99 input   59.99 | X-H torsion
[ 9292 9280 9281 9282 ] final  170.43 input   22.77 | X-H torsion
[ 7636 7620 7621 7622 ] final  -24.69 input   34.37 | X-H torsion
[ 9241 9225 9226 9227 ] final -159.87 input   96.07 | X-H torsion
[ 9544 9528 9529 9530 ] final -136.57 input   99.68 | X-H torsion
[ 3443 3412 3413 3414 ] final  136.76 input -120.58 | X-H torsion
[ 3504 3478 3479 3480 ] final  145.22 input   70.69 | X-H torsion
[ 9190 9168 9169 9170 ] final   58.00 input  115.65 | X-H torsion
[ 9198 9178 9175 9174 ] final  127.48 input   59.98 | X-H torsion
[ 6282 6255 6254 6251 ] final   74.06 input   60.00 | X-H torsion
[ 9196 9176 9175 9174 ] final   61.41 input   60.01 | X-H torsion
[ 12157 12142 12143 12144 ] final  -37.70 input  108.55 | X-H torsion
[ 11995 11973 11974 11975 ] final  120.34 input   68.31 | X-H torsion
[ 11434 11416 11417 11418 ] final  147.35 input  102.35 | X-H torsion
[ 5626 5608 5609 5610 ] final  165.50 input  119.09 | X-H torsion
[ 10774 10756 10757 10758 ] final  150.31 input  129.22 | X-H torsion
[ 10816 10800 10801 10802 ] final -166.46 input  128.85 | X-H torsion
[ 8641 8619 8620 8621 ] final   78.91 input   87.35 | X-H torsion
[ 3659 3632 3633 3634 ] final   55.09 input  116.97 | X-H torsion
[ 10029 10008 10007 10005 ] final   -1.87 input   60.01 | X-H torsion
[ 16458 15536 15535 15534 ] final  -35.16 input    0.00 | X-H torsion
[ 16468 10881 10880 10879 ] final  -36.56 input    0.00 | X-H torsion
[ 16470 10910 10909 10908 ] final -168.75 input    0.00 | X-H torsion
[ 16473 10997 10996 10995 ] final -154.69 input    0.00 | X-H torsion
[ 16475 11976 11975 11974 ] final  129.37 input    0.00 | X-H torsion
[ 16477 12048 12047 12046 ] final  -53.44 input    0.00 | X-H torsion
[ 16480 10939 10938 10937 ] final  115.31 input   -0.00 | X-H torsion
[ 16483 11039 11038 11037 ] final   26.72 input    0.00 | X-H torsion
[ 16492 15582 15581 15580 ] final   33.75 input    0.00 | X-H torsion
[ 16496 6104 6103 6102 ] final -108.28 input    0.00 | X-H torsion
[ 16499 5910 5909 5908 ] final  156.09 input   -0.00 | X-H torsion
[ 16502 5850 5849 5848 ] final  -29.53 input    0.00 | X-H torsion
[ 16505 6051 6050 6049 ] final   60.47 input    0.00 | X-H torsion
[ 16507 5982 5981 5980 ] final  -95.62 input    0.00 | X-H torsion
[ 16511 11145 11144 11143 ] final  -61.87 input    0.00 | X-H torsion
[ 16514 11199 11198 11197 ] final  156.09 input    0.00 | X-H torsion
[ 16530 11085 11084 11083 ] final  -71.72 input   -0.00 | X-H torsion
[ 16538 11232 11231 11230 ] final   11.25 input    0.00 | X-H torsion
[ 16549 11269 11268 11267 ] final -158.91 input   -0.00 | X-H torsion
[ 16552 11318 11317 11316 ] final -150.47 input    0.00 | X-H torsion
[ 16558 9314 9313 9312 ] final -102.66 input    0.00 | X-H torsion
[ 16561 9338 9337 9336 ] final   78.75 input    0.00 | X-H torsion
[ 16565 9380 9379 9378 ] final  163.12 input    0.00 | X-H torsion
[ 16570 5709 5708 5707 ] final  -52.03 input    0.00 | X-H torsion
[ 16575 7825 7824 7823 ] final  149.06 input    0.00 | X-H torsion
[ 16583 7781 7780 7779 ] final   50.62 input   -0.00 | X-H torsion
[ 16593 9424 9423 9422 ] final  -99.84 input   -0.00 | X-H torsion
[ 16597 7659 7658 7657 ] final -112.50 input   -0.00 | X-H torsion
[ 16599 7717 7716 7715 ] final   33.75 input    0.00 | X-H torsion
[ 16602 10532 10531 10530 ] final  165.94 input    0.00 | X-H torsion
[ 16611 7554 7553 7552 ] final   15.47 input    0.00 | X-H torsion
[ 16613 7623 7622 7621 ] final   11.25 input   -0.00 | X-H torsion
[ 16616 9283 9282 9281 ] final  -36.56 input    0.00 | X-H torsion
[ 16618 9228 9227 9226 ] final -167.34 input   -0.00 | X-H torsion
[ 16636 3357 3356 3355 ] final  -78.75 input   -0.00 | X-H torsion
[ 16638 3415 3414 3413 ] final  -36.56 input   -0.00 | X-H torsion
[ 16646 9102 9101 9100 ] final  -23.91 input    0.00 | X-H torsion

> <Gold.Protein.ActiveResidues>
 ARG45   SER53   PHE54   LEU82   LYS83   GLN84   GLU86   HIS87   GLU127  PHE129 
 SER130  HIS131  LEU132  ARG133  ARG134  ILE135  GLY136  ARG137  PHE138  SER139 
 HIS142  ARG165  ASP166  LEU167  LYS168  PRO169  GLU170  ASN171  ASP184  GLY186 
 PHE187  TRP196  TPO197  LEU198  CYS199  GLY200  THR201  PRO202  GLU203  TYR204 
 LEU205  ILE209  ILE210  TYR215  VAL226  LEU227  TYR229  GLU230  MET231  ALA233 
 GLY234  TYR235  PRO236  PRO237  PHE238  PHE239  ALA240  ASP241  GLN242  PRO243 
 ILE244  GLN245  ILE246  TYR247  LYS249  ARG256  PHE257  PRO258  SER259  HIS260 
 PRO313  PHE314  ILE315  LYS317  LYS319  SER325  ASN326  ASP328  ASP329  GLU331 
 GLU332  GLU333  GLU334 

> <Gold.Protein.RotatedAtoms>
   24.0459   22.8400   36.5254 H   0  0  0  0  0  0  0  0  0  0  0  0  # atno 3443 bound_to 3412
   24.7969   21.3897   39.1072 H   0  0  0  0  0  0  0  0  0  0  0  0  # atno 3504 bound_to 3478
   23.8623   20.2697   45.0136 H   0  0  0  0  0  0  0  0  0  0  0  0  # atno 3659 bound_to 3632
   35.9399   -0.2790   42.1308 H   0  0  0  0  0  0  0  0  0  0  0  0  # atno 5626 bound_to 5608
   29.5897   -1.7655   41.4466 H   0  0  0  0  0  0  0  0  0  0  0  0  # atno 5728 bound_to 5706
   31.0121   -3.2705   39.0262 H   0  0  0  0  0  0  0  0  0  0  0  0  # atno 5773 bound_to 5761
   33.4746   -1.9915   35.9764 H   0  0  0  0  0  0  0  0  0  0  0  0  # atno 5777 bound_to 5766
   30.0102   -7.1106   37.2283 H   0  0  0  0  0  0  0  0  0  0  0  0  # atno 5929 bound_to 5907
   31.6829   -7.0154   35.3970 H   0  0  0  0  0  0  0  0  0  0  0  0  # atno 6001 bound_to 5979
   32.1231  -10.4565   35.5125 H   0  0  0  0  0  0  0  0  0  0  0  0  # atno 6064 bound_to 6048
   29.3367  -10.2945   36.3470 H   0  0  0  0  0  0  0  0  0  0  0  0  # atno 6109 bound_to 6101
   27.5759  -11.7702   37.5815 H   0  0  0  0  0  0  0  0  0  0  0  0  # atno 6151 bound_to 6129
    9.5393   25.0001   36.0732 H   0  0  0  0  0  0  0  0  0  0  0  0  # atno 6282 bound_to 6255
   18.9910    6.0427   47.0068 H   0  0  0  0  0  0  0  0  0  0  0  0  # atno 7636 bound_to 7620
   21.3402    1.9247   44.7664 H   0  0  0  0  0  0  0  0  0  0  0  0  # atno 7732 bound_to 7714
   23.0434    7.0317   40.6626 H   0  0  0  0  0  0  0  0  0  0  0  0  # atno 7742 bound_to 7722
   21.7137    6.0779   40.9240 H   0  0  0  0  0  0  0  0  0  0  0  0  # atno 7743 bound_to 7722
   23.0005    6.0094   41.9668 H   0  0  0  0  0  0  0  0  0  0  0  0  # atno 7744 bound_to 7722
   26.4055    0.2946   40.7673 H   0  0  0  0  0  0  0  0  0  0  0  0  # atno 7840 bound_to 7822
   27.7266    2.9504   42.3732 H   0  0  0  0  0  0  0  0  0  0  0  0  # atno 7882 bound_to 7866
   22.6293   12.2983   46.8658 H   0  0  0  0  0  0  0  0  0  0  0  0  # atno 8641 bound_to 8619
   10.8085   14.5193   46.1858 H   0  0  0  0  0  0  0  0  0  0  0  0  # atno 9190 bound_to 9168
   11.6697   18.4974   47.5394 H   0  0  0  0  0  0  0  0  0  0  0  0  # atno 9196 bound_to 9176
   14.9308   17.6136   47.7538 H   0  0  0  0  0  0  0  0  0  0  0  0  # atno 9198 bound_to 9178
   10.7938   14.2179   42.7293 H   0  0  0  0  0  0  0  0  0  0  0  0  # atno 9241 bound_to 9225
   13.6523   12.7717   41.9134 H   0  0  0  0  0  0  0  0  0  0  0  0  # atno 9292 bound_to 9280
   16.5749   10.2060   40.1774 H   0  0  0  0  0  0  0  0  0  0  0  0  # atno 9319 bound_to 9311
   17.9555    6.2095   40.5940 H   0  0  0  0  0  0  0  0  0  0  0  0  # atno 9349 bound_to 9335
   20.9009    6.0673   37.8151 H   0  0  0  0  0  0  0  0  0  0  0  0  # atno 9355 bound_to 9341
   16.5165    2.9897   37.4496 H   0  0  0  0  0  0  0  0  0  0  0  0  # atno 9439 bound_to 9421
   16.6191    2.1550   39.0772 H   0  0  0  0  0  0  0  0  0  0  0  0  # atno 9493 bound_to 9469
   20.0080   -3.2148   41.1125 H   0  0  0  0  0  0  0  0  0  0  0  0  # atno 9501 bound_to 9480
   14.7785    3.3091   41.2012 H   0  0  0  0  0  0  0  0  0  0  0  0  # atno 9544 bound_to 9528
   12.4886   12.0662   45.3986 H   0  0  0  0  0  0  0  0  0  0  0  0  # atno 10029 bound_to 10008
   13.2037  -10.8431   37.4721 H   0  0  0  0  0  0  0  0  0  0  0  0  # atno 10728 bound_to 10707
   18.4651   -6.8516   41.1492 H   0  0  0  0  0  0  0  0  0  0  0  0  # atno 10774 bound_to 10756
   22.0284   -6.9039   41.7998 H   0  0  0  0  0  0  0  0  0  0  0  0  # atno 10816 bound_to 10800
   22.4125  -11.5750   38.3831 H   0  0  0  0  0  0  0  0  0  0  0  0  # atno 10915 bound_to 10907
   20.9099   -9.9091   35.9372 H   0  0  0  0  0  0  0  0  0  0  0  0  # atno 10960 bound_to 10936
   17.2736  -14.0257   34.8041 H   0  0  0  0  0  0  0  0  0  0  0  0  # atno 10968 bound_to 10947
   13.6792   -4.2674   37.2746 H   0  0  0  0  0  0  0  0  0  0  0  0  # atno 11104 bound_to 11082
   13.7605   -3.5160   34.1362 H   0  0  0  0  0  0  0  0  0  0  0  0  # atno 11164 bound_to 11142
   15.2493   -2.8082   29.8701 H   0  0  0  0  0  0  0  0  0  0  0  0  # atno 11206 bound_to 11196
   14.0840   -0.3544   27.5696 H   0  0  0  0  0  0  0  0  0  0  0  0  # atno 11245 bound_to 11229
   13.7398    1.8267   26.0218 H   0  0  0  0  0  0  0  0  0  0  0  0  # atno 11284 bound_to 11266
   11.1146    4.4599   29.3124 H   0  0  0  0  0  0  0  0  0  0  0  0  # atno 11374 bound_to 11358
    9.7203    3.3292   28.7962 H   0  0  0  0  0  0  0  0  0  0  0  0  # atno 11434 bound_to 11416
   11.1330    1.7744   30.7861 H   0  0  0  0  0  0  0  0  0  0  0  0  # atno 11482 bound_to 11466
   13.2744    7.7265   35.3420 H   0  0  0  0  0  0  0  0  0  0  0  0  # atno 11559 bound_to 11538
    9.0178  -10.5587   36.7972 H   0  0  0  0  0  0  0  0  0  0  0  0  # atno 11995 bound_to 11973
   10.4085  -13.8171   38.8887 H   0  0  0  0  0  0  0  0  0  0  0  0  # atno 12067 bound_to 12045
   15.4438  -18.1380   37.9060 H   0  0  0  0  0  0  0  0  0  0  0  0  # atno 12157 bound_to 12142
   26.0807   15.7213   35.2205 H   0  0  0  0  0  0  0  0  0  0  0  0  # atno 15083 bound_to 15054
   27.0441   14.4525   34.7628 H   0  0  0  0  0  0  0  0  0  0  0  0  # atno 15084 bound_to 15054
   26.9205   15.7915   33.7939 H   0  0  0  0  0  0  0  0  0  0  0  0  # atno 15085 bound_to 15054
   32.7995   11.2357   31.3468 H   0  0  0  0  0  0  0  0  0  0  0  0  # atno 15194 bound_to 15161
   31.6925   12.2136   30.5941 H   0  0  0  0  0  0  0  0  0  0  0  0  # atno 15195 bound_to 15161
   31.2908   10.6534   30.9855 H   0  0  0  0  0  0  0  0  0  0  0  0  # atno 15196 bound_to 15161
   26.4810   11.8170   26.1400 H   0  0  0  0  0  0  0  0  0  0  0  0  # atno 15326 bound_to 15310
    8.7745  -11.6144   26.1692 H   0  0  0  0  0  0  0  0  0  0  0  0  # atno 15542 bound_to 15533
    9.3680  -14.9322   27.5813 H   0  0  0  0  0  0  0  0  0  0  0  0  # atno 15588 bound_to 15579
    8.8595  -18.0076   29.1416 H   0  0  0  0  0  0  0  0  0  0  0  0  # atno 15633 bound_to 15624
   11.4457  -14.8572   27.0137 LP  0  0  0  0  0  0  0  0  0  0  0  0  # atno 16458 bound_to 15536
   11.0603  -14.8811   28.7022 LP  0  0  0  0  0  0  0  0  0  0  0  0  # atno 16459 bound_to 15536
   16.0540  -13.3133   33.9963 LP  0  0  0  0  0  0  0  0  0  0  0  0  # atno 16460 bound_to 10947
   16.1416  -13.1912   35.6224 LP  0  0  0  0  0  0  0  0  0  0  0  0  # atno 16461 bound_to 10947
   14.5498  -11.7235   37.2251 LP  0  0  0  0  0  0  0  0  0  0  0  0  # atno 16466 bound_to 10707
   14.3757  -10.2715   36.4985 LP  0  0  0  0  0  0  0  0  0  0  0  0  # atno 16467 bound_to 10707
   21.2721  -13.6774   36.5725 LP  0  0  0  0  0  0  0  0  0  0  0  0  # atno 16468 bound_to 10881
   21.5843  -12.2688   35.6142 LP  0  0  0  0  0  0  0  0  0  0  0  0  # atno 16469 bound_to 10881
   22.3337   -7.8118   34.5973 LP  0  0  0  0  0  0  0  0  0  0  0  0  # atno 16470 bound_to 10910
   23.6197   -8.9720   34.6094 LP  0  0  0  0  0  0  0  0  0  0  0  0  # atno 16471 bound_to 10910
   21.5566   -8.7304   37.0512 LP  0  0  0  0  0  0  0  0  0  0  0  0  # atno 16472 bound_to 10936
   15.1256   -6.5867   35.4621 LP  0  0  0  0  0  0  0  0  0  0  0  0  # atno 16473 bound_to 10997
   16.7947   -6.9767   35.2134 LP  0  0  0  0  0  0  0  0  0  0  0  0  # atno 16474 bound_to 10997
   12.1977  -11.6688   38.6485 LP  0  0  0  0  0  0  0  0  0  0  0  0  # atno 16475 bound_to 11976
   11.9157  -11.3891   36.9626 LP  0  0  0  0  0  0  0  0  0  0  0  0  # atno 16476 bound_to 11976
   11.8512  -16.7527   37.9523 LP  0  0  0  0  0  0  0  0  0  0  0  0  # atno 16477 bound_to 12048
   12.6528  -16.3658   36.4665 LP  0  0  0  0  0  0  0  0  0  0  0  0  # atno 16478 bound_to 12048
   18.9655   -7.8681   38.4584 LP  0  0  0  0  0  0  0  0  0  0  0  0  # atno 16480 bound_to 10939
   18.3349   -9.0289   37.3383 LP  0  0  0  0  0  0  0  0  0  0  0  0  # atno 16481 bound_to 10939
   11.6970   -7.2431   36.9637 LP  0  0  0  0  0  0  0  0  0  0  0  0  # atno 16483 bound_to 11039
   11.7503   -6.3695   35.4690 LP  0  0  0  0  0  0  0  0  0  0  0  0  # atno 16484 bound_to 11039
   11.0513  -14.0007   37.2751 LP  0  0  0  0  0  0  0  0  0  0  0  0  # atno 16485 bound_to 12045
    8.2317  -12.3451   27.6614 LP  0  0  0  0  0  0  0  0  0  0  0  0  # atno 16490 bound_to 15533
    7.6942  -14.6732   28.0349 LP  0  0  0  0  0  0  0  0  0  0  0  0  # atno 16491 bound_to 15579
    8.9817  -16.9462   26.8406 LP  0  0  0  0  0  0  0  0  0  0  0  0  # atno 16492 bound_to 15582
    8.7207  -18.6114   27.2393 LP  0  0  0  0  0  0  0  0  0  0  0  0  # atno 16493 bound_to 15582
   10.2249  -17.7463   30.2047 LP  0  0  0  0  0  0  0  0  0  0  0  0  # atno 16494 bound_to 15624
   21.0506  -10.6743   37.7508 LP  0  0  0  0  0  0  0  0  0  0  0  0  # atno 16495 bound_to 10907
   25.7906   -9.9455   37.4015 LP  0  0  0  0  0  0  0  0  0  0  0  0  # atno 16496 bound_to 6104
   25.0363  -10.7998   36.0973 LP  0  0  0  0  0  0  0  0  0  0  0  0  # atno 16497 bound_to 6104
   26.6994  -13.1574   36.9818 LP  0  0  0  0  0  0  0  0  0  0  0  0  # atno 16498 bound_to 6129
   30.3467   -9.2114   33.2637 LP  0  0  0  0  0  0  0  0  0  0  0  0  # atno 16499 bound_to 5910
   28.7317   -8.9795   33.8451 LP  0  0  0  0  0  0  0  0  0  0  0  0  # atno 16500 bound_to 5910
   29.8024  -11.9131   35.8938 LP  0  0  0  0  0  0  0  0  0  0  0  0  # atno 16501 bound_to 6101
   29.0239   -9.6162   37.6860 LP  0  0  0  0  0  0  0  0  0  0  0  0  # atno 16502 bound_to 5850
   28.2628   -8.9456   36.2820 LP  0  0  0  0  0  0  0  0  0  0  0  0  # atno 16503 bound_to 5850
   28.5495   -6.1537   37.1981 LP  0  0  0  0  0  0  0  0  0  0  0  0  # atno 16504 bound_to 5907
   29.4654  -13.9217   37.2116 LP  0  0  0  0  0  0  0  0  0  0  0  0  # atno 16505 bound_to 6051
   29.3063  -13.8187   35.4900 LP  0  0  0  0  0  0  0  0  0  0  0  0  # atno 16506 bound_to 6051
   31.4843  -11.6562   33.8719 LP  0  0  0  0  0  0  0  0  0  0  0  0  # atno 16507 bound_to 5982
   33.1552  -11.7143   34.3245 LP  0  0  0  0  0  0  0  0  0  0  0  0  # atno 16508 bound_to 5982
   30.4116   -8.2095   35.2455 LP  0  0  0  0  0  0  0  0  0  0  0  0  # atno 16509 bound_to 5979
   31.5845   -9.6736   36.9805 LP  0  0  0  0  0  0  0  0  0  0  0  0  # atno 16510 bound_to 6048
   13.1764   -4.8914   30.6205 LP  0  0  0  0  0  0  0  0  0  0  0  0  # atno 16511 bound_to 11145
   12.0739   -3.5857   30.3381 LP  0  0  0  0  0  0  0  0  0  0  0  0  # atno 16512 bound_to 11145
   14.0195   -1.9567   30.7900 LP  0  0  0  0  0  0  0  0  0  0  0  0  # atno 16513 bound_to 11196
   16.3760    0.0180   28.1152 LP  0  0  0  0  0  0  0  0  0  0  0  0  # atno 16514 bound_to 11199
   15.5036   -0.2613   29.5852 LP  0  0  0  0  0  0  0  0  0  0  0  0  # atno 16515 bound_to 11199
   14.2214   -1.5769   26.3204 LP  0  0  0  0  0  0  0  0  0  0  0  0  # atno 16516 bound_to 11229
   13.0359   -4.4183   32.8329 LP  0  0  0  0  0  0  0  0  0  0  0  0  # atno 16525 bound_to 11142
   13.9972   -1.4741   34.9428 LP  0  0  0  0  0  0  0  0  0  0  0  0  # atno 16530 bound_to 11085
   15.3778   -2.5121   34.8142 LP  0  0  0  0  0  0  0  0  0  0  0  0  # atno 16531 bound_to 11085
   13.8021   -5.6439   36.2004 LP  0  0  0  0  0  0  0  0  0  0  0  0  # atno 16533 bound_to 11082
   16.8763    2.2050   25.6053 LP  0  0  0  0  0  0  0  0  0  0  0  0  # atno 16538 bound_to 11232
   16.1753    3.3628   26.6860 LP  0  0  0  0  0  0  0  0  0  0  0  0  # atno 16539 bound_to 11232
   14.4989    1.5448   27.5797 LP  0  0  0  0  0  0  0  0  0  0  0  0  # atno 16542 bound_to 11266
   15.3710    2.8613   36.1405 LP  0  0  0  0  0  0  0  0  0  0  0  0  # atno 16548 bound_to 9421
   11.9065    3.0534   30.0072 LP  0  0  0  0  0  0  0  0  0  0  0  0  # atno 16549 bound_to 11269
   12.4066    1.9196   28.7972 LP  0  0  0  0  0  0  0  0  0  0  0  0  # atno 16550 bound_to 11269
   10.3854    3.5943   32.0235 LP  0  0  0  0  0  0  0  0  0  0  0  0  # atno 16552 bound_to 11318
   11.7150    4.2638   32.9090 LP  0  0  0  0  0  0  0  0  0  0  0  0  # atno 16553 bound_to 11318
    9.6546    0.8609   31.0038 LP  0  0  0  0  0  0  0  0  0  0  0  0  # atno 16554 bound_to 11466
   11.4598    5.6005   30.5782 LP  0  0  0  0  0  0  0  0  0  0  0  0  # atno 16555 bound_to 11358
   12.3996    8.9539   34.7293 LP  0  0  0  0  0  0  0  0  0  0  0  0  # atno 16556 bound_to 11538
   13.2007    7.9402   33.7307 LP  0  0  0  0  0  0  0  0  0  0  0  0  # atno 16557 bound_to 11538
   16.6137    8.4840   38.2749 LP  0  0  0  0  0  0  0  0  0  0  0  0  # atno 16558 bound_to 9314
   18.1840    9.2150   38.2788 LP  0  0  0  0  0  0  0  0  0  0  0  0  # atno 16559 bound_to 9314
   18.1398    7.7164   39.7294 LP  0  0  0  0  0  0  0  0  0  0  0  0  # atno 16560 bound_to 9335
   15.8864    5.2288   39.8278 LP  0  0  0  0  0  0  0  0  0  0  0  0  # atno 16561 bound_to 9338
   16.4549    3.7240   39.1856 LP  0  0  0  0  0  0  0  0  0  0  0  0  # atno 16562 bound_to 9338
   21.3745    5.1567   39.0783 LP  0  0  0  0  0  0  0  0  0  0  0  0  # atno 16563 bound_to 9341
   20.5320    6.5326   39.3305 LP  0  0  0  0  0  0  0  0  0  0  0  0  # atno 16564 bound_to 9341
   13.5724    2.1053   37.8026 LP  0  0  0  0  0  0  0  0  0  0  0  0  # atno 16565 bound_to 9380
   13.2957    3.7850   38.1222 LP  0  0  0  0  0  0  0  0  0  0  0  0  # atno 16566 bound_to 9380
   14.9700    1.5734   39.0009 LP  0  0  0  0  0  0  0  0  0  0  0  0  # atno 16567 bound_to 9469
   29.1661   -4.5515   38.0557 LP  0  0  0  0  0  0  0  0  0  0  0  0  # atno 16570 bound_to 5709
   29.8923   -3.8104   36.6689 LP  0  0  0  0  0  0  0  0  0  0  0  0  # atno 16571 bound_to 5709
   25.7503    1.3655   41.9810 LP  0  0  0  0  0  0  0  0  0  0  0  0  # atno 16574 bound_to 7822
   28.9052    4.5392   42.4949 LP  0  0  0  0  0  0  0  0  0  0  0  0  # atno 16575 bound_to 7825
   29.5625    3.4221   41.3460 LP  0  0  0  0  0  0  0  0  0  0  0  0  # atno 16576 bound_to 7825
   30.9877   -2.5604   40.7682 LP  0  0  0  0  0  0  0  0  0  0  0  0  # atno 16579 bound_to 5706
   31.4350   -1.7159   38.3458 LP  0  0  0  0  0  0  0  0  0  0  0  0  # atno 16580 bound_to 5761
   35.0226   -2.4819   36.0775 LP  0  0  0  0  0  0  0  0  0  0  0  0  # atno 16581 bound_to 5766
   34.5246   -1.1643   36.9038 LP  0  0  0  0  0  0  0  0  0  0  0  0  # atno 16582 bound_to 5766
   28.4263   -0.6629   42.5129 LP  0  0  0  0  0  0  0  0  0  0  0  0  # atno 16583 bound_to 7781
   28.3507    1.0155   42.9339 LP  0  0  0  0  0  0  0  0  0  0  0  0  # atno 16584 bound_to 7781
   26.1510    2.5030   42.9933 LP  0  0  0  0  0  0  0  0  0  0  0  0  # atno 16585 bound_to 7866
   13.8711   -0.2189   39.3893 LP  0  0  0  0  0  0  0  0  0  0  0  0  # atno 16593 bound_to 9424
   15.3871   -1.0459   39.2555 LP  0  0  0  0  0  0  0  0  0  0  0  0  # atno 16594 bound_to 9424
   20.7407   -2.6103   42.4338 LP  0  0  0  0  0  0  0  0  0  0  0  0  # atno 16595 bound_to 9480
   21.3402   -2.2948   40.9480 LP  0  0  0  0  0  0  0  0  0  0  0  0  # atno 16596 bound_to 9480
   19.7503    1.7939   43.5309 LP  0  0  0  0  0  0  0  0  0  0  0  0  # atno 16597 bound_to 7659
   20.0851    3.4932   43.5149 LP  0  0  0  0  0  0  0  0  0  0  0  0  # atno 16598 bound_to 7659
   24.5357    1.7934   44.6977 LP  0  0  0  0  0  0  0  0  0  0  0  0  # atno 16599 bound_to 7717
   25.7346    1.5118   43.4798 LP  0  0  0  0  0  0  0  0  0  0  0  0  # atno 16600 bound_to 7717
   23.0664    2.0937   44.9999 LP  0  0  0  0  0  0  0  0  0  0  0  0  # atno 16601 bound_to 7714
   19.1036   -5.1944   42.2900 LP  0  0  0  0  0  0  0  0  0  0  0  0  # atno 16602 bound_to 10532
   17.5433   -5.6058   41.6606 LP  0  0  0  0  0  0  0  0  0  0  0  0  # atno 16603 bound_to 10532
   17.2579   10.6357   41.7268 LP  0  0  0  0  0  0  0  0  0  0  0  0  # atno 16604 bound_to 9311
   27.6661   11.2129   25.2022 LP  0  0  0  0  0  0  0  0  0  0  0  0  # atno 16607 bound_to 15310
   27.6809   10.9479   26.8135 LP  0  0  0  0  0  0  0  0  0  0  0  0  # atno 16608 bound_to 15310
   17.3949    8.7872   45.1511 LP  0  0  0  0  0  0  0  0  0  0  0  0  # atno 16611 bound_to 7554
   18.4481    7.6414   44.3910 LP  0  0  0  0  0  0  0  0  0  0  0  0  # atno 16612 bound_to 7554
   22.3704    5.8008   44.2041 LP  0  0  0  0  0  0  0  0  0  0  0  0  # atno 16613 bound_to 7623
   22.2328    4.0978   44.4882 LP  0  0  0  0  0  0  0  0  0  0  0  0  # atno 16614 bound_to 7623
   13.4896   11.0467   42.0343 LP  0  0  0  0  0  0  0  0  0  0  0  0  # atno 16615 bound_to 9280
   14.9233    9.6034   43.1218 LP  0  0  0  0  0  0  0  0  0  0  0  0  # atno 16616 bound_to 9283
   15.3931    8.3928   41.9756 LP  0  0  0  0  0  0  0  0  0  0  0  0  # atno 16617 bound_to 9283
   15.0360   13.6742   40.4588 LP  0  0  0  0  0  0  0  0  0  0  0  0  # atno 16618 bound_to 9228
   13.6187   14.6694   40.4852 LP  0  0  0  0  0  0  0  0  0  0  0  0  # atno 16619 bound_to 9228
   19.2477    7.7534   46.8170 LP  0  0  0  0  0  0  0  0  0  0  0  0  # atno 16620 bound_to 7620
   12.3738   14.8425   42.3268 LP  0  0  0  0  0  0  0  0  0  0  0  0  # atno 16628 bound_to 9225
   13.5374    2.4482   40.3223 LP  0  0  0  0  0  0  0  0  0  0  0  0  # atno 16635 bound_to 9528
   23.1244   20.3043   36.4960 LP  0  0  0  0  0  0  0  0  0  0  0  0  # atno 16636 bound_to 3357
   24.1713   20.0199   37.8461 LP  0  0  0  0  0  0  0  0  0  0  0  0  # atno 16637 bound_to 3357
   21.4615   21.7296   40.1717 LP  0  0  0  0  0  0  0  0  0  0  0  0  # atno 16638 bound_to 3415
   22.4090   20.2905   40.3486 LP  0  0  0  0  0  0  0  0  0  0  0  0  # atno 16639 bound_to 3415
   25.2024   22.6677   37.8257 LP  0  0  0  0  0  0  0  0  0  0  0  0  # atno 16640 bound_to 3412
   24.1249   22.5267   40.2561 LP  0  0  0  0  0  0  0  0  0  0  0  0  # atno 16641 bound_to 3478
    8.0696   14.0647   43.9972 LP  0  0  0  0  0  0  0  0  0  0  0  0  # atno 16646 bound_to 9102
    9.4063   14.9052   43.2852 LP  0  0  0  0  0  0  0  0  0  0  0  0  # atno 16647 bound_to 9102
    9.7839   15.7564   45.5042 LP  0  0  0  0  0  0  0  0  0  0  0  0  # atno 16648 bound_to 9168
   14.9565   16.9645   46.2619 LP  0  0  0  0  0  0  0  0  0  0  0  0  # atno 16649 bound_to 9178
   14.8255   16.0000   47.5731 LP  0  0  0  0  0  0  0  0  0  0  0  0  # atno 16650 bound_to 9178
   10.3918   23.7510   35.4728 LP  0  0  0  0  0  0  0  0  0  0  0  0  # atno 16654 bound_to 6255
   10.8190   24.4252   36.8974 LP  0  0  0  0  0  0  0  0  0  0  0  0  # atno 16655 bound_to 6255
   13.1497   19.0760   47.1872 LP  0  0  0  0  0  0  0  0  0  0  0  0  # atno 16656 bound_to 9176
   12.8612   18.3961   48.6436 LP  0  0  0  0  0  0  0  0  0  0  0  0  # atno 16657 bound_to 9176

> <Gold.Score>
     Fitness  S(hb_ext) S(vdw_ext)  S(hb_int)    S(int)      intcor
     31.71       6.65      19.25       0.00      -1.42      -0.76

> <Gold.Goldscore.Fitness>
31.7064

> <Gold.Goldscore.Internal.Vdw>
-1.7268

> <Gold.Goldscore.Internal.Torsion>
-0.4499

> <Gold.Goldscore.External.Vdw>
19.2527

> <Gold.Goldscore.Internal.HBond>
0.0000

> <Gold.Goldscore.External.HBond>
6.6542

> <Gold.Goldscore.Internal.Correction>
-0.7565

> <Gold.Goldscore.Hbonds>
donor molecule, donor type, donor heavy atom, donor atom, acceptor molecule, acceptor atom, score
      P1  H  5975  6022       L1    11  0.88
      P1  H  5795  5829       L1    11  0.70

> <Gold.Goldscore.Internal.Vdw.Weighted>
-1.7268

> <Gold.Goldscore.Internal.Torsion.Weighted>
-0.4499

> <Gold.Goldscore.External.Vdw.Weighted>
26.4724

> <Gold.Goldscore.Internal.HBond.Weighted>
0.0000

> <Gold.Goldscore.External.HBond.Weighted>
6.6542

> <Gold.Goldscore.Internal.Correction.Weighted>
-0.7565

> <Gold.Rescore>
     Score     S(PLP)   S(hbond)     S(cho)   S(metal)  DE(clash)   DE(tors)     intcor
     40.74     -39.25       1.00       0.00       0.00       1.26       0.12       ----

> <Gold.PLP.Fitness>
40.7449

> <Gold.PLP.PLP>
-39.2517

> <Gold.PLP.part.hbond>
-1.0000

> <Gold.PLP.part.metal>
0.0000

> <Gold.PLP.part.buried>
-3.2214

> <Gold.PLP.part.nonpolar>
-35.5319

> <Gold.PLP.part.repulsive>
0.0864

> <Gold.PLP.ligand.clash>
1.2586

> <Gold.PLP.ligand.torsion>
0.1241

> <Gold.PLP.Chemscore.Hbond>
1.0000

> <Gold.PLP.Chemscore.CHOScore>
0.0000

> <Gold.PLP.Chemscore.Metal>
0.0000

> <Gold.Chemscore.Hbonds>
donor molecule, donor type, donor heavy atom, donor atom, acceptor molecule, acceptor atom, score
      P1  H  5975  6022       L1    11  1.00

> <Gold.PLP.Chemscore.Internal.Correction>
   9.000000E+99

