#       Name:                CT1002167954
#       Creating user name   hitesit
#       Creation time:       Sun Apr 16 22:54:24 2023


#       File generated by GOLD software.
#

@<TRIPOS>MOLECULE
CT1002167954|ligand_prepared|mol2|1|dock7
    29    30     1
SMALL
NO_CHARGES


@<TRIPOS>ATOM
      1 C1          17.9806   3.5144  29.4355 C.3            1 RES1               0.0000
      2 C2          18.1532   4.0370  27.9947 C.ar           1 RES1               0.0000
      3 C3          16.8300   2.5131  29.3931 C.2            1 RES1               0.0000
      4 C4          19.3210   2.9054  29.8319 C.2            1 RES1               0.0000
      5 C5          17.6344   4.6172  30.4629 C.3            1 RES1               0.0000
      6 C6          18.5377   3.1770  26.9703 C.ar           1 RES1               0.0000
      7 C7          17.9295   5.3734  27.6747 C.ar           1 RES1               0.0000
      8 N8          17.1412   1.1886  29.4870 N.am           1 RES1               0.0000
      9 O9          15.6708   2.8779  29.2398 O.2            1 RES1               0.0000
     10 N10         19.3721   1.5538  30.0521 N.am           1 RES1               0.0000
     11 O11         20.3369   3.5811  29.9393 O.2            1 RES1               0.0000
     12 C12         17.5902   4.1238  31.9005 C.3            1 RES1               0.0000
     13 C13         18.6900   3.6358  25.6724 C.ar           1 RES1               0.0000
     14 C14         18.0827   5.8302  26.3760 C.ar           1 RES1               0.0000
     15 C15         18.3498   0.6633  29.8677 C.2            1 RES1               0.0000
     16 C16         18.4623   4.9624  25.3743 C.ar           1 RES1               0.0000
     17 O17         18.4879  -0.5452  30.0339 O.2            1 RES1               0.0000
     18 H18         18.3809   5.4174  30.3869 H              1 RES1               0.0000
     19 H19         16.6573   5.0447  30.2062 H              1 RES1               0.0000
     20 H20         18.7237   2.1302  27.1863 H              1 RES1               0.0000
     21 H21         17.6312   6.0744  28.4468 H              1 RES1               0.0000
     22 H22         16.4075   0.5276  29.2523 H              1 RES1               0.0000
     23 H23         20.2540   1.1767  30.3845 H              1 RES1               0.0000
     24 H24         17.3432   4.9369  32.5799 H              1 RES1               0.0000
     25 H25         16.8403   3.3443  32.0180 H              1 RES1               0.0000
     26 H26         18.5537   3.7148  32.1977 H              1 RES1               0.0000
     27 H27         18.9902   2.9490  24.8878 H              1 RES1               0.0000
     28 H28         17.9030   6.8752  26.1461 H              1 RES1               0.0000
     29 H29         18.5813   5.3214  24.3573 H              1 RES1               0.0000
@<TRIPOS>BOND
    1    1    2 1     
    2    1    3 1     
    3    1    4 1     
    4    1    5 1     
    5    2    6 ar    
    6    2    7 ar    
    7    3    8 1     
    8    3    9 2     
    9    4   10 1     
   10    4   11 2     
   11    5   12 1     
   12    5   18 1     
   13    5   19 1     
   14    6   13 ar    
   15    6   20 1     
   16    7   14 ar    
   17    7   21 1     
   18    8   15 1     
   19    8   22 1     
   20   10   15 1     
   21   10   23 1     
   22   12   24 1     
   23   12   25 1     
   24   12   26 1     
   25   13   16 ar    
   26   13   27 1     
   27   14   16 ar    
   28   14   28 1     
   29   15   17 2     
   30   16   29 1     
@<TRIPOS>SUBSTRUCTURE
      1 RES1           1
@<TRIPOS>SET
DONOR_HYDROGENS      STATIC     ATOMS    <user>   **** ""
2 22 23
ATOM$RED        STATIC     ATOMS    COLORGROUP SYSTEM
2 22 23
@<TRIPOS>COMMENT
> <Gold.Version>
2022.3.0

> <Gold.Id.Protein>
unknown|3mvj_clean|pdb

> <Gold.Protein.RotatedTorsions>
[ 10968 10947 10946 10944 ] final -114.97 input   60.01 | X-H torsion
[ 10728 10707 10706 10704 ] final  -61.71 input   59.96 | X-H torsion
[ 10960 10936 10937 10938 ] final  -36.56 input   23.31 | X-H torsion
[ 12067 12045 12046 12047 ] final -143.69 input   63.71 | X-H torsion
[ 15542 15533 15534 15535 ] final   58.65 input   83.29 | X-H torsion
[ 15588 15579 15580 15581 ] final   94.23 input  107.67 | X-H torsion
[ 15633 15624 15625 15626 ] final  -91.83 input   84.82 | X-H torsion
[ 10915 10907 10908 10909 ] final   52.35 input  -87.38 | X-H torsion
[ 6151 6129 6130 6131 ] final   80.32 input   27.76 | X-H torsion
[ 6109 6101 6102 6103 ] final  179.54 input  -93.79 | X-H torsion
[ 5929 5907 5908 5909 ] final   69.11 input  119.25 | X-H torsion
[ 6001 5979 5980 5981 ] final    1.62 input  112.51 | X-H torsion
[ 6064 6048 6049 6050 ] final -160.12 input  108.26 | X-H torsion
[ 11206 11196 11197 11198 ] final   57.40 input   -0.63 | X-H torsion
[ 11245 11229 11230 11231 ] final  -86.50 input  120.69 | X-H torsion
[ 11164 11142 11143 11144 ] final   81.66 input   33.88 | X-H torsion
[ 11104 11082 11083 11084 ] final  108.36 input   45.00 | X-H torsion
[ 11284 11266 11267 11268 ] final -157.80 input   49.58 | X-H torsion
[ 9439 9421 9422 9423 ] final  149.51 input  116.39 | X-H torsion
[ 11482 11466 11467 11468 ] final   82.58 input  126.08 | X-H torsion
[ 11374 11358 11359 11360 ] final  -86.10 input   98.08 | X-H torsion
[ 11559 11538 11537 11535 ] final  -86.21 input   60.01 | X-H torsion
[ 9349 9335 9336 9337 ] final  133.32 input   84.14 | X-H torsion
[ 9355 9341 9339 9336 ] final    2.38 input   60.02 | X-H torsion
[ 9493 9469 9470 9471 ] final -172.30 input   75.21 | X-H torsion
[ 7840 7822 7823 7824 ] final  145.26 input  121.36 | X-H torsion
[ 7742 7722 7721 7720 ] final   24.74 input   60.01 | X-H torsion
[ 5728 5706 5707 5708 ] final  107.83 input  119.20 | X-H torsion
[ 5773 5761 5762 5763 ] final  -31.82 input  120.20 | X-H torsion
[ 5777 5766 5765 5762 ] final   57.01 input   59.99 | X-H torsion
[ 7882 7866 7867 7868 ] final   45.90 input   81.17 | X-H torsion
[ 9501 9480 9479 9477 ] final   26.10 input   60.03 | X-H torsion
[ 7732 7714 7715 7716 ] final  146.66 input  -10.67 | X-H torsion
[ 15083 15054 15053 15052 ] final   63.06 input   60.01 | X-H torsion
[ 9319 9311 9312 9313 ] final   -8.86 input  -66.31 | X-H torsion
[ 15194 15161 15160 15159 ] final   54.19 input   59.99 | X-H torsion
[ 15326 15310 15309 15306 ] final -153.91 input   59.99 | X-H torsion
[ 9292 9280 9281 9282 ] final  -75.93 input   22.77 | X-H torsion
[ 7636 7620 7621 7622 ] final -113.63 input   34.37 | X-H torsion
[ 9241 9225 9226 9227 ] final   32.57 input   96.07 | X-H torsion
[ 9544 9528 9529 9530 ] final   86.69 input   99.68 | X-H torsion
[ 3443 3412 3413 3414 ] final  -29.46 input -120.58 | X-H torsion
[ 3504 3478 3479 3480 ] final   78.89 input   70.69 | X-H torsion
[ 9190 9168 9169 9170 ] final   46.39 input  115.65 | X-H torsion
[ 9198 9178 9175 9174 ] final -144.24 input   59.98 | X-H torsion
[ 6282 6255 6254 6251 ] final    9.00 input   60.00 | X-H torsion
[ 9196 9176 9175 9174 ] final   17.45 input   60.01 | X-H torsion
[ 12157 12142 12143 12144 ] final  -74.57 input  108.55 | X-H torsion
[ 11995 11973 11974 11975 ] final  -22.04 input   68.31 | X-H torsion
[ 11434 11416 11417 11418 ] final  -69.55 input  102.35 | X-H torsion
[ 5626 5608 5609 5610 ] final    6.31 input  119.09 | X-H torsion
[ 10774 10756 10757 10758 ] final  -29.98 input  129.22 | X-H torsion
[ 10816 10800 10801 10802 ] final  122.99 input  128.85 | X-H torsion
[ 8641 8619 8620 8621 ] final  167.31 input   87.35 | X-H torsion
[ 3659 3632 3633 3634 ] final  -14.08 input  116.97 | X-H torsion
[ 10029 10008 10007 10005 ] final  -77.81 input   60.01 | X-H torsion
[ 16458 15536 15535 15534 ] final -121.09 input    0.00 | X-H torsion
[ 16468 10881 10880 10879 ] final -129.61 input    0.00 | X-H torsion
[ 16470 10910 10909 10908 ] final  127.69 input    0.00 | X-H torsion
[ 16473 10997 10996 10995 ] final  -14.30 input    0.00 | X-H torsion
[ 16475 11976 11975 11974 ] final  101.15 input    0.00 | X-H torsion
[ 16477 12048 12047 12046 ] final   71.44 input    0.00 | X-H torsion
[ 16480 10939 10938 10937 ] final  -94.59 input   -0.00 | X-H torsion
[ 16483 11039 11038 11037 ] final  -72.12 input    0.00 | X-H torsion
[ 16492 15582 15581 15580 ] final  134.61 input    0.00 | X-H torsion
[ 16496 6104 6103 6102 ] final  164.08 input    0.00 | X-H torsion
[ 16499 5910 5909 5908 ] final  -37.01 input   -0.00 | X-H torsion
[ 16502 5850 5849 5848 ] final  166.85 input    0.00 | X-H torsion
[ 16505 6051 6050 6049 ] final -177.68 input    0.00 | X-H torsion
[ 16507 5982 5981 5980 ] final  -69.37 input    0.00 | X-H torsion
[ 16511 11145 11144 11143 ] final  -61.03 input    0.00 | X-H torsion
[ 16514 11199 11198 11197 ] final -141.12 input    0.00 | X-H torsion
[ 16530 11085 11084 11083 ] final -129.87 input   -0.00 | X-H torsion
[ 16538 11232 11231 11230 ] final   -0.50 input    0.00 | X-H torsion
[ 16549 11269 11268 11267 ] final  -25.82 input   -0.00 | X-H torsion
[ 16552 11318 11317 11316 ] final    3.47 input    0.00 | X-H torsion
[ 16558 9314 9313 9312 ] final  147.28 input    0.00 | X-H torsion
[ 16561 9338 9337 9336 ] final  175.31 input    0.00 | X-H torsion
[ 16565 9380 9379 9378 ] final  -89.07 input    0.00 | X-H torsion
[ 16570 5709 5708 5707 ] final  -41.29 input    0.00 | X-H torsion
[ 16575 7825 7824 7823 ] final   28.97 input    0.00 | X-H torsion
[ 16583 7781 7780 7779 ] final   14.91 input   -0.00 | X-H torsion
[ 16593 9424 9423 9422 ] final    3.36 input   -0.00 | X-H torsion
[ 16597 7659 7658 7657 ] final  152.78 input   -0.00 | X-H torsion
[ 16599 7717 7716 7715 ] final -101.74 input    0.00 | X-H torsion
[ 16602 10532 10531 10530 ] final  -38.48 input    0.00 | X-H torsion
[ 16611 7554 7553 7552 ] final  -65.28 input    0.00 | X-H torsion
[ 16613 7623 7622 7621 ] final  148.44 input   -0.00 | X-H torsion
[ 16616 9283 9282 9281 ] final   98.12 input    0.00 | X-H torsion
[ 16618 9228 9227 9226 ] final   19.28 input   -0.00 | X-H torsion
[ 16636 3357 3356 3355 ] final  -52.92 input   -0.00 | X-H torsion
[ 16638 3415 3414 3413 ] final  -19.24 input   -0.00 | X-H torsion
[ 16646 9102 9101 9100 ] final  128.45 input    0.00 | X-H torsion

> <Gold.Protein.ActiveResidues>
 ARG45   SER53   PHE54   LEU82   LYS83   GLN84   GLU86   HIS87   GLU127  PHE129 
 SER130  HIS131  LEU132  ARG133  ARG134  ILE135  GLY136  ARG137  PHE138  SER139 
 HIS142  ARG165  ASP166  LEU167  LYS168  PRO169  GLU170  ASN171  ASP184  GLY186 
 PHE187  TRP196  TPO197  LEU198  CYS199  GLY200  THR201  PRO202  GLU203  TYR204 
 LEU205  ILE209  ILE210  TYR215  VAL226  LEU227  TYR229  GLU230  MET231  ALA233 
 GLY234  TYR235  PRO236  PRO237  PHE238  PHE239  ALA240  ASP241  GLN242  PRO243 
 ILE244  GLN245  ILE246  TYR247  LYS249  ARG256  PHE257  PRO258  SER259  HIS260 
 PRO313  PHE314  ILE315  LYS317  LYS319  SER325  ASN326  ASP328  ASP329  GLU331 
 GLU332  GLU333  GLU334 

> <Gold.Protein.RotatedAtoms>
   25.1676   22.4590   37.8276 H   0  0  0  0  0  0  0  0  0  0  0  0  # atno 3443 bound_to 3412
   25.3274   22.0750   39.5506 H   0  0  0  0  0  0  0  0  0  0  0  0  # atno 3504 bound_to 3478
   23.7598   20.3883   46.0052 H   0  0  0  0  0  0  0  0  0  0  0  0  # atno 3659 bound_to 3632
   35.5369   -1.9575   42.2309 H   0  0  0  0  0  0  0  0  0  0  0  0  # atno 5626 bound_to 5608
   30.4813   -1.3149   40.9835 H   0  0  0  0  0  0  0  0  0  0  0  0  # atno 5728 bound_to 5706
   30.7125   -3.2047   38.6628 H   0  0  0  0  0  0  0  0  0  0  0  0  # atno 5773 bound_to 5761
   33.6060   -1.3287   36.5075 H   0  0  0  0  0  0  0  0  0  0  0  0  # atno 5777 bound_to 5766
   30.0695   -6.2635   37.1127 H   0  0  0  0  0  0  0  0  0  0  0  0  # atno 5929 bound_to 5907
   30.5986   -8.2739   35.7402 H   0  0  0  0  0  0  0  0  0  0  0  0  # atno 6001 bound_to 5979
   32.6906  -10.2549   36.4592 H   0  0  0  0  0  0  0  0  0  0  0  0  # atno 6064 bound_to 6048
   29.8228  -11.1981   35.2841 H   0  0  0  0  0  0  0  0  0  0  0  0  # atno 6109 bound_to 6101
   26.9012  -13.3099   37.1267 H   0  0  0  0  0  0  0  0  0  0  0  0  # atno 6151 bound_to 6129
    9.7269   24.2985   35.3762 H   0  0  0  0  0  0  0  0  0  0  0  0  # atno 6282 bound_to 6255
   18.4193    6.9290   46.3966 H   0  0  0  0  0  0  0  0  0  0  0  0  # atno 7636 bound_to 7620
   21.6024    2.5122   44.4842 H   0  0  0  0  0  0  0  0  0  0  0  0  # atno 7732 bound_to 7714
   22.2609    5.7177   41.8008 H   0  0  0  0  0  0  0  0  0  0  0  0  # atno 7742 bound_to 7722
   23.4505    6.7636   41.3137 H   0  0  0  0  0  0  0  0  0  0  0  0  # atno 7743 bound_to 7722
   22.0479    6.6385   40.4390 H   0  0  0  0  0  0  0  0  0  0  0  0  # atno 7744 bound_to 7722
   25.6104    0.9412   40.6382 H   0  0  0  0  0  0  0  0  0  0  0  0  # atno 7840 bound_to 7822
   26.6144    2.0608   43.1992 H   0  0  0  0  0  0  0  0  0  0  0  0  # atno 7882 bound_to 7866
   22.6935   13.0733   45.9096 H   0  0  0  0  0  0  0  0  0  0  0  0  # atno 8641 bound_to 8619
   10.7086   14.4086   46.0890 H   0  0  0  0  0  0  0  0  0  0  0  0  # atno 9190 bound_to 9168
   12.0337   18.8122   47.0294 H   0  0  0  0  0  0  0  0  0  0  0  0  # atno 9196 bound_to 9176
   14.8287   16.3313   47.9656 H   0  0  0  0  0  0  0  0  0  0  0  0  # atno 9198 bound_to 9178
   12.2957   14.9309   42.1781 H   0  0  0  0  0  0  0  0  0  0  0  0  # atno 9241 bound_to 9225
   13.2952   11.5428   41.2460 H   0  0  0  0  0  0  0  0  0  0  0  0  # atno 9292 bound_to 9280
   16.8961   10.3592   40.0802 H   0  0  0  0  0  0  0  0  0  0  0  0  # atno 9319 bound_to 9311
   18.8194    6.6496   40.4444 H   0  0  0  0  0  0  0  0  0  0  0  0  # atno 9349 bound_to 9335
   20.4542    6.7215   38.7010 H   0  0  0  0  0  0  0  0  0  0  0  0  # atno 9355 bound_to 9341
   16.4531    2.6791   36.1226 H   0  0  0  0  0  0  0  0  0  0  0  0  # atno 9439 bound_to 9421
   16.4239    1.2456   39.0038 H   0  0  0  0  0  0  0  0  0  0  0  0  # atno 9493 bound_to 9469
   21.2201   -2.3873   40.7917 H   0  0  0  0  0  0  0  0  0  0  0  0  # atno 9501 bound_to 9480
   13.7443    2.9500   39.9746 H   0  0  0  0  0  0  0  0  0  0  0  0  # atno 9544 bound_to 9528
   13.1084   11.1062   45.5483 H   0  0  0  0  0  0  0  0  0  0  0  0  # atno 10029 bound_to 10008
   14.0553  -10.1338   36.6004 H   0  0  0  0  0  0  0  0  0  0  0  0  # atno 10728 bound_to 10707
   19.1341   -8.4148   41.6428 H   0  0  0  0  0  0  0  0  0  0  0  0  # atno 10774 bound_to 10756
   21.4575   -7.3654   42.4947 H   0  0  0  0  0  0  0  0  0  0  0  0  # atno 10816 bound_to 10800
   21.1001  -11.2502   37.4357 H   0  0  0  0  0  0  0  0  0  0  0  0  # atno 10915 bound_to 10907
   21.1588   -8.8800   37.2626 H   0  0  0  0  0  0  0  0  0  0  0  0  # atno 10960 bound_to 10936
   17.0044  -13.7656   35.5482 H   0  0  0  0  0  0  0  0  0  0  0  0  # atno 10968 bound_to 10947
   13.5139   -4.3567   37.3346 H   0  0  0  0  0  0  0  0  0  0  0  0  # atno 11104 bound_to 11082
   13.7018   -4.7471   33.2257 H   0  0  0  0  0  0  0  0  0  0  0  0  # atno 11164 bound_to 11142
   14.6178   -1.4986   30.5643 H   0  0  0  0  0  0  0  0  0  0  0  0  # atno 11206 bound_to 11196
   14.8798   -1.0882   27.4443 H   0  0  0  0  0  0  0  0  0  0  0  0  # atno 11245 bound_to 11229
   14.6467    2.0108   26.1611 H   0  0  0  0  0  0  0  0  0  0  0  0  # atno 11284 bound_to 11266
   11.4955    4.8613   30.7669 H   0  0  0  0  0  0  0  0  0  0  0  0  # atno 11374 bound_to 11358
    9.0032    3.5109   30.2956 H   0  0  0  0  0  0  0  0  0  0  0  0  # atno 11434 bound_to 11416
   10.6879    2.1373   31.0189 H   0  0  0  0  0  0  0  0  0  0  0  0  # atno 11482 bound_to 11466
   12.6435    8.5743   35.4028 H   0  0  0  0  0  0  0  0  0  0  0  0  # atno 11559 bound_to 11538
    9.6677  -10.7812   38.3457 H   0  0  0  0  0  0  0  0  0  0  0  0  # atno 11995 bound_to 11973
   10.8414  -13.0603   38.2856 H   0  0  0  0  0  0  0  0  0  0  0  0  # atno 12067 bound_to 12045
   14.8976  -18.0344   37.8474 H   0  0  0  0  0  0  0  0  0  0  0  0  # atno 12157 bound_to 12142
   26.5791   16.1151   34.0671 H   0  0  0  0  0  0  0  0  0  0  0  0  # atno 15083 bound_to 15054
   26.2159   15.2349   35.4239 H   0  0  0  0  0  0  0  0  0  0  0  0  # atno 15084 bound_to 15054
   27.2499   14.6160   34.2860 H   0  0  0  0  0  0  0  0  0  0  0  0  # atno 15085 bound_to 15054
   31.0393   11.1047   30.7352 H   0  0  0  0  0  0  0  0  0  0  0  0  # atno 15194 bound_to 15161
   32.5104   10.7448   31.4095 H   0  0  0  0  0  0  0  0  0  0  0  0  # atno 15195 bound_to 15161
   32.2324   12.2536   30.7813 H   0  0  0  0  0  0  0  0  0  0  0  0  # atno 15196 bound_to 15161
   27.9361   10.8337   26.4941 H   0  0  0  0  0  0  0  0  0  0  0  0  # atno 15326 bound_to 15310
    9.2763  -11.8327   27.3196 H   0  0  0  0  0  0  0  0  0  0  0  0  # atno 15542 bound_to 15533
    7.6401  -14.9985   27.8102 H   0  0  0  0  0  0  0  0  0  0  0  0  # atno 15588 bound_to 15579
    9.2756  -17.7005   28.8552 H   0  0  0  0  0  0  0  0  0  0  0  0  # atno 15633 bound_to 15624
   11.1410  -15.7220   27.7574 LP  0  0  0  0  0  0  0  0  0  0  0  0  # atno 16458 bound_to 15536
   11.3650  -14.0163   27.9586 LP  0  0  0  0  0  0  0  0  0  0  0  0  # atno 16459 bound_to 15536
   16.7499  -13.7788   33.9412 LP  0  0  0  0  0  0  0  0  0  0  0  0  # atno 16460 bound_to 10947
   15.7169  -12.9876   34.9280 LP  0  0  0  0  0  0  0  0  0  0  0  0  # atno 16461 bound_to 10947
   13.2980  -11.1691   37.6017 LP  0  0  0  0  0  0  0  0  0  0  0  0  # atno 16466 bound_to 10707
   14.7699  -11.5401   36.9998 LP  0  0  0  0  0  0  0  0  0  0  0  0  # atno 16467 bound_to 10707
   22.2832  -13.0172   36.2238 LP  0  0  0  0  0  0  0  0  0  0  0  0  # atno 16468 bound_to 10881
   20.5732  -12.9290   35.9629 LP  0  0  0  0  0  0  0  0  0  0  0  0  # atno 16469 bound_to 10881
   22.3039   -8.5675   34.0871 LP  0  0  0  0  0  0  0  0  0  0  0  0  # atno 16470 bound_to 10910
   23.6496   -8.2163   35.1195 LP  0  0  0  0  0  0  0  0  0  0  0  0  # atno 16471 bound_to 10910
   21.3124   -9.7401   35.7508 LP  0  0  0  0  0  0  0  0  0  0  0  0  # atno 16472 bound_to 10936
   16.6916   -6.4253   35.0412 LP  0  0  0  0  0  0  0  0  0  0  0  0  # atno 16473 bound_to 10997
   15.2287   -7.1381   35.6344 LP  0  0  0  0  0  0  0  0  0  0  0  0  # atno 16474 bound_to 10997
   11.8818  -11.3886   38.6421 LP  0  0  0  0  0  0  0  0  0  0  0  0  # atno 16475 bound_to 11976
   12.2316  -11.6693   36.9691 LP  0  0  0  0  0  0  0  0  0  0  0  0  # atno 16476 bound_to 11976
   11.9829  -15.9627   36.6422 LP  0  0  0  0  0  0  0  0  0  0  0  0  # atno 16477 bound_to 12048
   12.5211  -17.1558   37.7766 LP  0  0  0  0  0  0  0  0  0  0  0  0  # atno 16478 bound_to 12048
   17.9967   -8.7470   37.4147 LP  0  0  0  0  0  0  0  0  0  0  0  0  # atno 16480 bound_to 10939
   19.3036   -8.1500   38.3820 LP  0  0  0  0  0  0  0  0  0  0  0  0  # atno 16481 bound_to 10939
   12.2185   -7.3519   35.7609 LP  0  0  0  0  0  0  0  0  0  0  0  0  # atno 16483 bound_to 11039
   11.2289   -6.2607   36.6718 LP  0  0  0  0  0  0  0  0  0  0  0  0  # atno 16484 bound_to 11039
   10.6271  -14.7422   37.8660 LP  0  0  0  0  0  0  0  0  0  0  0  0  # atno 16485 bound_to 12045
    7.7417  -12.1320   26.5383 LP  0  0  0  0  0  0  0  0  0  0  0  0  # atno 16490 bound_to 15533
    9.3498  -14.6097   27.8155 LP  0  0  0  0  0  0  0  0  0  0  0  0  # atno 16491 bound_to 15579
    9.6528  -18.0948   26.9532 LP  0  0  0  0  0  0  0  0  0  0  0  0  # atno 16492 bound_to 15582
    8.0496  -17.4628   27.1267 LP  0  0  0  0  0  0  0  0  0  0  0  0  # atno 16493 bound_to 15582
    9.8220  -18.0436   30.4820 LP  0  0  0  0  0  0  0  0  0  0  0  0  # atno 16494 bound_to 15624
   22.3181  -10.9880   38.6659 LP  0  0  0  0  0  0  0  0  0  0  0  0  # atno 16495 bound_to 10907
   24.9945  -10.8407   37.3456 LP  0  0  0  0  0  0  0  0  0  0  0  0  # atno 16496 bound_to 6104
   25.8324   -9.9047   36.1532 LP  0  0  0  0  0  0  0  0  0  0  0  0  # atno 16497 bound_to 6104
   27.3596  -11.6510   37.4269 LP  0  0  0  0  0  0  0  0  0  0  0  0  # atno 16498 bound_to 6129
   28.7789   -9.1268   33.9680 LP  0  0  0  0  0  0  0  0  0  0  0  0  # atno 16499 bound_to 5910
   30.2994   -9.0641   33.1407 LP  0  0  0  0  0  0  0  0  0  0  0  0  # atno 16500 bound_to 5910
   29.3216  -11.0194   36.9451 LP  0  0  0  0  0  0  0  0  0  0  0  0  # atno 16501 bound_to 6101
   28.4920   -8.9641   36.1923 LP  0  0  0  0  0  0  0  0  0  0  0  0  # atno 16502 bound_to 5850
   28.7947   -9.5977   37.7756 LP  0  0  0  0  0  0  0  0  0  0  0  0  # atno 16503 bound_to 5850
   28.4913   -6.9842   37.3115 LP  0  0  0  0  0  0  0  0  0  0  0  0  # atno 16504 bound_to 5907
   28.6432  -13.6328   35.9739 LP  0  0  0  0  0  0  0  0  0  0  0  0  # atno 16505 bound_to 6051
   30.1285  -14.1076   36.7277 LP  0  0  0  0  0  0  0  0  0  0  0  0  # atno 16506 bound_to 6051
   31.6557  -11.4153   33.6123 LP  0  0  0  0  0  0  0  0  0  0  0  0  # atno 16507 bound_to 5982
   32.9839  -11.9552   34.5841 LP  0  0  0  0  0  0  0  0  0  0  0  0  # atno 16508 bound_to 5982
   31.4597   -6.9930   34.9137 LP  0  0  0  0  0  0  0  0  0  0  0  0  # atno 16509 bound_to 5979
   31.0323   -9.8697   36.0596 LP  0  0  0  0  0  0  0  0  0  0  0  0  # atno 16510 bound_to 6048
   13.1732   -4.8913   30.6328 LP  0  0  0  0  0  0  0  0  0  0  0  0  # atno 16511 bound_to 11145
   12.0772   -3.5858   30.3258 LP  0  0  0  0  0  0  0  0  0  0  0  0  # atno 16512 bound_to 11145
   14.6191   -3.2002   30.1309 LP  0  0  0  0  0  0  0  0  0  0  0  0  # atno 16513 bound_to 11196
   15.7856    0.6215   28.4332 LP  0  0  0  0  0  0  0  0  0  0  0  0  # atno 16514 bound_to 11199
   16.0941   -0.8648   29.2671 LP  0  0  0  0  0  0  0  0  0  0  0  0  # atno 16515 bound_to 11199
   13.4585   -0.8735   26.4405 LP  0  0  0  0  0  0  0  0  0  0  0  0  # atno 16516 bound_to 11229
   13.0941   -3.1957   33.7370 LP  0  0  0  0  0  0  0  0  0  0  0  0  # atno 16525 bound_to 11142
   14.4069   -1.5209   34.2090 LP  0  0  0  0  0  0  0  0  0  0  0  0  # atno 16530 bound_to 11085
   14.9682   -2.4654   35.5480 LP  0  0  0  0  0  0  0  0  0  0  0  0  # atno 16531 bound_to 11085
   13.9622   -5.5574   36.1424 LP  0  0  0  0  0  0  0  0  0  0  0  0  # atno 16533 bound_to 11082
   16.9478    2.1377   25.7529 LP  0  0  0  0  0  0  0  0  0  0  0  0  # atno 16538 bound_to 11232
   16.1037    3.4301   26.5384 LP  0  0  0  0  0  0  0  0  0  0  0  0  # atno 16539 bound_to 11232
   13.6380    1.3701   27.4475 LP  0  0  0  0  0  0  0  0  0  0  0  0  # atno 16542 bound_to 11266
   15.4337    3.1679   37.4508 LP  0  0  0  0  0  0  0  0  0  0  0  0  # atno 16548 bound_to 9421
   11.8621    2.2987   28.6097 LP  0  0  0  0  0  0  0  0  0  0  0  0  # atno 16549 bound_to 11269
   12.4510    2.6743   30.1947 LP  0  0  0  0  0  0  0  0  0  0  0  0  # atno 16550 bound_to 11269
   11.8574    3.9239   32.7799 LP  0  0  0  0  0  0  0  0  0  0  0  0  # atno 16552 bound_to 11318
   10.2430    3.9342   32.1526 LP  0  0  0  0  0  0  0  0  0  0  0  0  # atno 16553 bound_to 11318
   10.0840    0.5108   30.7793 LP  0  0  0  0  0  0  0  0  0  0  0  0  # atno 16554 bound_to 11466
   11.0762    5.1963   29.1134 LP  0  0  0  0  0  0  0  0  0  0  0  0  # atno 16555 bound_to 11358
   12.7157    8.5919   33.7775 LP  0  0  0  0  0  0  0  0  0  0  0  0  # atno 16556 bound_to 11538
   13.5200    7.4483   34.6213 LP  0  0  0  0  0  0  0  0  0  0  0  0  # atno 16557 bound_to 11538
   17.9569    8.3571   37.8341 LP  0  0  0  0  0  0  0  0  0  0  0  0  # atno 16558 bound_to 9314
   16.8407    9.3419   38.7196 LP  0  0  0  0  0  0  0  0  0  0  0  0  # atno 16559 bound_to 9314
   17.2950    7.2860   39.8756 LP  0  0  0  0  0  0  0  0  0  0  0  0  # atno 16560 bound_to 9335
   15.4898    4.3244   38.9935 LP  0  0  0  0  0  0  0  0  0  0  0  0  # atno 16561 bound_to 9338
   16.8514    4.6284   40.0200 LP  0  0  0  0  0  0  0  0  0  0  0  0  # atno 16562 bound_to 9338
   21.2313    5.5085   37.9436 LP  0  0  0  0  0  0  0  0  0  0  0  0  # atno 16563 bound_to 9341
   21.1250    5.5221   39.5731 LP  0  0  0  0  0  0  0  0  0  0  0  0  # atno 16564 bound_to 9341
   13.8194    3.1388   38.7134 LP  0  0  0  0  0  0  0  0  0  0  0  0  # atno 16565 bound_to 9380
   13.0487    2.7515   37.2114 LP  0  0  0  0  0  0  0  0  0  0  0  0  # atno 16566 bound_to 9380
   15.1590    2.4535   39.0718 LP  0  0  0  0  0  0  0  0  0  0  0  0  # atno 16567 bound_to 9469
   29.0428   -4.4504   38.0263 LP  0  0  0  0  0  0  0  0  0  0  0  0  # atno 16570 bound_to 5709
   30.0156   -3.9115   36.6983 LP  0  0  0  0  0  0  0  0  0  0  0  0  # atno 16571 bound_to 5709
   26.5301    0.7313   42.1076 LP  0  0  0  0  0  0  0  0  0  0  0  0  # atno 16574 bound_to 7822
   29.0980    4.0988   41.0734 LP  0  0  0  0  0  0  0  0  0  0  0  0  # atno 16575 bound_to 7825
   29.3696    3.8625   42.7676 LP  0  0  0  0  0  0  0  0  0  0  0  0  # atno 16576 bound_to 7825
   30.1107   -3.0035   41.2236 LP  0  0  0  0  0  0  0  0  0  0  0  0  # atno 16579 bound_to 5706
   31.7260   -1.7799   38.6986 LP  0  0  0  0  0  0  0  0  0  0  0  0  # atno 16580 bound_to 5761
   34.2366   -2.6171   35.7400 LP  0  0  0  0  0  0  0  0  0  0  0  0  # atno 16581 bound_to 5766
   35.1781   -1.6970   36.7062 LP  0  0  0  0  0  0  0  0  0  0  0  0  # atno 16582 bound_to 5766
   28.2386   -0.6277   43.0084 LP  0  0  0  0  0  0  0  0  0  0  0  0  # atno 16583 bound_to 7781
   28.5384    0.9802   42.4384 LP  0  0  0  0  0  0  0  0  0  0  0  0  # atno 16584 bound_to 7781
   27.2237    3.3610   42.1967 LP  0  0  0  0  0  0  0  0  0  0  0  0  # atno 16585 bound_to 7866
   14.6120   -0.9475   38.5159 LP  0  0  0  0  0  0  0  0  0  0  0  0  # atno 16593 bound_to 9424
   14.6462   -0.3173   40.1289 LP  0  0  0  0  0  0  0  0  0  0  0  0  # atno 16594 bound_to 9424
   19.9434   -3.2484   41.3177 LP  0  0  0  0  0  0  0  0  0  0  0  0  # atno 16595 bound_to 9480
   20.9168   -2.4900   42.3872 LP  0  0  0  0  0  0  0  0  0  0  0  0  # atno 16596 bound_to 9480
   20.5080    2.5939   42.8912 LP  0  0  0  0  0  0  0  0  0  0  0  0  # atno 16597 bound_to 7659
   19.3274    2.6932   44.1546 LP  0  0  0  0  0  0  0  0  0  0  0  0  # atno 16598 bound_to 7659
   25.3803    2.0507   43.3598 LP  0  0  0  0  0  0  0  0  0  0  0  0  # atno 16599 bound_to 7717
   24.8900    1.2545   44.8177 LP  0  0  0  0  0  0  0  0  0  0  0  0  # atno 16600 bound_to 7717
   22.8122    1.5240   45.2734 LP  0  0  0  0  0  0  0  0  0  0  0  0  # atno 16601 bound_to 7714
   17.6010   -5.8725   41.9049 LP  0  0  0  0  0  0  0  0  0  0  0  0  # atno 16602 bound_to 10532
   19.0459   -4.9278   42.0457 LP  0  0  0  0  0  0  0  0  0  0  0  0  # atno 16603 bound_to 10532
   16.9437   10.4859   41.8218 LP  0  0  0  0  0  0  0  0  0  0  0  0  # atno 16604 bound_to 9311
   26.5617   11.7042   26.5411 LP  0  0  0  0  0  0  0  0  0  0  0  0  # atno 16607 bound_to 15310
   27.3201   11.4467   25.1180 LP  0  0  0  0  0  0  0  0  0  0  0  0  # atno 16608 bound_to 15310
   17.1898    7.7510   44.7726 LP  0  0  0  0  0  0  0  0  0  0  0  0  # atno 16611 bound_to 7554
   18.6532    8.6775   44.7695 LP  0  0  0  0  0  0  0  0  0  0  0  0  # atno 16612 bound_to 7554
   22.6034    4.3744   44.9193 LP  0  0  0  0  0  0  0  0  0  0  0  0  # atno 16613 bound_to 7623
   21.9999    5.5241   43.7730 LP  0  0  0  0  0  0  0  0  0  0  0  0  # atno 16614 bound_to 7623
   13.8515   12.2923   42.7107 LP  0  0  0  0  0  0  0  0  0  0  0  0  # atno 16615 bound_to 9280
   14.8102    8.6793   41.8226 LP  0  0  0  0  0  0  0  0  0  0  0  0  # atno 16616 bound_to 9283
   15.5062    9.3169   43.2748 LP  0  0  0  0  0  0  0  0  0  0  0  0  # atno 16617 bound_to 9283
   13.6516   14.7039   40.5732 LP  0  0  0  0  0  0  0  0  0  0  0  0  # atno 16618 bound_to 9228
   15.0031   13.6397   40.3707 LP  0  0  0  0  0  0  0  0  0  0  0  0  # atno 16619 bound_to 9228
   19.8198    6.8665   47.4277 LP  0  0  0  0  0  0  0  0  0  0  0  0  # atno 16620 bound_to 7620
   10.8990   14.1424   42.8681 LP  0  0  0  0  0  0  0  0  0  0  0  0  # atno 16628 bound_to 9225
   14.5470    2.7988   41.5196 LP  0  0  0  0  0  0  0  0  0  0  0  0  # atno 16635 bound_to 9528
   23.4164   20.1051   36.3385 LP  0  0  0  0  0  0  0  0  0  0  0  0  # atno 16636 bound_to 3357
   23.8793   20.2191   38.0036 LP  0  0  0  0  0  0  0  0  0  0  0  0  # atno 16637 bound_to 3357
   21.4158   21.6234   39.9378 LP  0  0  0  0  0  0  0  0  0  0  0  0  # atno 16638 bound_to 3415
   22.4547   20.3966   40.5825 LP  0  0  0  0  0  0  0  0  0  0  0  0  # atno 16639 bound_to 3415
   24.1118   23.0381   36.5596 LP  0  0  0  0  0  0  0  0  0  0  0  0  # atno 16640 bound_to 3412
   23.6117   21.8639   39.8272 LP  0  0  0  0  0  0  0  0  0  0  0  0  # atno 16641 bound_to 3478
    9.1145   15.1964   43.3219 LP  0  0  0  0  0  0  0  0  0  0  0  0  # atno 16646 bound_to 9102
    8.3613   13.7735   43.9606 LP  0  0  0  0  0  0  0  0  0  0  0  0  # atno 16647 bound_to 9102
    9.8823   15.8655   45.5996 LP  0  0  0  0  0  0  0  0  0  0  0  0  # atno 16648 bound_to 9168
   14.9688   17.7985   47.2760 LP  0  0  0  0  0  0  0  0  0  0  0  0  # atno 16649 bound_to 9178
   14.9162   16.4575   46.3456 LP  0  0  0  0  0  0  0  0  0  0  0  0  # atno 16650 bound_to 9178
   10.9811   23.8190   36.2952 LP  0  0  0  0  0  0  0  0  0  0  0  0  # atno 16654 bound_to 6255
   10.0407   25.0640   36.7773 LP  0  0  0  0  0  0  0  0  0  0  0  0  # atno 16655 bound_to 6255
   13.4641   18.9175   47.7990 LP  0  0  0  0  0  0  0  0  0  0  0  0  # atno 16656 bound_to 9176
   12.1805   18.2377   48.5452 LP  0  0  0  0  0  0  0  0  0  0  0  0  # atno 16657 bound_to 9176

> <Gold.Score>
     Fitness  S(hb_ext) S(vdw_ext)  S(hb_int)    S(int)      intcor
     27.22       1.55      18.82       0.00      -0.21      -0.76

> <Gold.Goldscore.Fitness>
27.2219

> <Gold.Goldscore.Internal.Vdw>
-0.5580

> <Gold.Goldscore.Internal.Torsion>
-0.4105

> <Gold.Goldscore.External.Vdw>
18.8219

> <Gold.Goldscore.Internal.HBond>
0.0000

> <Gold.Goldscore.External.HBond>
1.5538

> <Gold.Goldscore.Internal.Correction>
-0.7565

> <Gold.Goldscore.Hbonds>
donor molecule, donor type, donor heavy atom, donor atom, acceptor molecule, acceptor atom, score
      L1  H     8    22       P1 11199  0.78

> <Gold.Goldscore.Internal.Vdw.Weighted>
-0.5580

> <Gold.Goldscore.Internal.Torsion.Weighted>
-0.4105

> <Gold.Goldscore.External.Vdw.Weighted>
25.8801

> <Gold.Goldscore.Internal.HBond.Weighted>
0.0000

> <Gold.Goldscore.External.HBond.Weighted>
1.5538

> <Gold.Goldscore.Internal.Correction.Weighted>
-0.7565

> <Gold.Rescore>
     Score     S(PLP)   S(hbond)     S(cho)   S(metal)  DE(clash)   DE(tors)     intcor
     24.10     -21.66       0.99       0.00       0.00       0.00       0.27       ----

> <Gold.PLP.Fitness>
24.0974

> <Gold.PLP.PLP>
-21.6586

> <Gold.PLP.part.hbond>
-1.2712

> <Gold.PLP.part.metal>
0.0000

> <Gold.PLP.part.buried>
-3.2121

> <Gold.PLP.part.nonpolar>
-18.1016

> <Gold.PLP.part.repulsive>
1.0074

> <Gold.PLP.ligand.clash>
0.0000

> <Gold.PLP.ligand.torsion>
0.2675

> <Gold.PLP.Chemscore.Hbond>
0.9913

> <Gold.PLP.Chemscore.CHOScore>
0.0000

> <Gold.PLP.Chemscore.Metal>
0.0000

> <Gold.Chemscore.Hbonds>
donor molecule, donor type, donor heavy atom, donor atom, acceptor molecule, acceptor atom, score
      L1  H     8    22       P1 11199  0.44

> <Gold.PLP.Chemscore.Internal.Correction>
   9.000000E+99

