#       Name:                CT1002167954
#       Creating user name   hitesit
#       Creation time:       Sun Apr 16 22:54:18 2023


#       File generated by GOLD software.
#

@<TRIPOS>MOLECULE
CT1002167954|ligand_prepared|mol2|1|dock5
    29    30     1
SMALL
NO_CHARGES


@<TRIPOS>ATOM
      1 C1          11.1941  -8.2741  33.2761 C.3            1 RES1               0.0000
      2 C2          11.1578  -9.2024  32.0449 C.ar           1 RES1               0.0000
      3 C3          11.0921  -9.1806  34.4993 C.2            1 RES1               0.0000
      4 C4          12.5023  -7.4963  33.1855 C.2            1 RES1               0.0000
      5 C5          10.0335  -7.2532  33.3232 C.3            1 RES1               0.0000
      6 C6          10.9508  -8.6819  30.7709 C.ar           1 RES1               0.0000
      7 C7          11.3321 -10.5784  32.1667 C.ar           1 RES1               0.0000
      8 N8          12.2214  -9.3727  35.2393 N.am           1 RES1               0.0000
      9 O9          10.0465  -9.7497  34.7874 O.2            1 RES1               0.0000
     10 N10         13.4499  -7.7192  34.1499 N.am           1 RES1               0.0000
     11 O11         12.7277  -6.7047  32.2784 O.2            1 RES1               0.0000
     12 C12          9.8366  -6.6113  34.6875 C.3            1 RES1               0.0000
     13 C13         10.9221  -9.5067  29.6586 C.ar           1 RES1               0.0000
     14 C14         11.3027 -11.4015  31.0531 C.ar           1 RES1               0.0000
     15 C15         13.3811  -8.6448  35.1553 C.2            1 RES1               0.0000
     16 C16         11.0984 -10.8668  29.7989 C.ar           1 RES1               0.0000
     17 O17         14.2976  -8.8247  35.9521 O.2            1 RES1               0.0000
     18 H18         10.2273  -6.4640  32.5863 H              1 RES1               0.0000
     19 H19          9.1048  -7.7607  33.0345 H              1 RES1               0.0000
     20 H20         10.8077  -7.6143  30.6413 H              1 RES1               0.0000
     21 H21         11.4932 -11.0212  33.1437 H              1 RES1               0.0000
     22 H22         12.2020 -10.1275  35.9177 H              1 RES1               0.0000
     23 H23         14.2839  -7.1416  34.1152 H              1 RES1               0.0000
     24 H24          9.0104  -5.9038  34.6653 H              1 RES1               0.0000
     25 H25          9.6169  -7.3653  35.4405 H              1 RES1               0.0000
     26 H26         10.7328  -6.0763  34.9950 H              1 RES1               0.0000
     27 H27         10.7596  -9.0812  28.6739 H              1 RES1               0.0000
     28 H28         11.4413 -12.4714  31.1682 H              1 RES1               0.0000
     29 H29         11.0762 -11.5127  28.9273 H              1 RES1               0.0000
@<TRIPOS>BOND
    1    1    2 1     
    2    1    3 1     
    3    1    4 1     
    4    1    5 1     
    5    2    6 ar    
    6    2    7 ar    
    7    3    8 1     
    8    3    9 2     
    9    4   10 1     
   10    4   11 2     
   11    5   12 1     
   12    5   18 1     
   13    5   19 1     
   14    6   13 ar    
   15    6   20 1     
   16    7   14 ar    
   17    7   21 1     
   18    8   15 1     
   19    8   22 1     
   20   10   15 1     
   21   10   23 1     
   22   12   24 1     
   23   12   25 1     
   24   12   26 1     
   25   13   16 ar    
   26   13   27 1     
   27   14   16 ar    
   28   14   28 1     
   29   15   17 2     
   30   16   29 1     
@<TRIPOS>SUBSTRUCTURE
      1 RES1           1
@<TRIPOS>SET
DONOR_HYDROGENS      STATIC     ATOMS    <user>   **** ""
2 22 23
ATOM$RED        STATIC     ATOMS    COLORGROUP SYSTEM
2 22 23
@<TRIPOS>COMMENT
> <Gold.Version>
2022.3.0

> <Gold.Id.Protein>
unknown|3mvj_clean|pdb

> <Gold.Protein.RotatedTorsions>
[ 10968 10947 10946 10944 ] final   96.93 input   60.01 | X-H torsion
[ 10728 10707 10706 10704 ] final   56.76 input   59.96 | X-H torsion
[ 10960 10936 10937 10938 ] final  -29.80 input   23.31 | X-H torsion
[ 12067 12045 12046 12047 ] final -127.10 input   63.71 | X-H torsion
[ 15542 15533 15534 15535 ] final  -42.95 input   83.29 | X-H torsion
[ 15588 15579 15580 15581 ] final  153.15 input  107.67 | X-H torsion
[ 15633 15624 15625 15626 ] final  -30.01 input   84.82 | X-H torsion
[ 10915 10907 10908 10909 ] final  -19.76 input  -87.38 | X-H torsion
[ 6151 6129 6130 6131 ] final  -42.41 input   27.76 | X-H torsion
[ 6109 6101 6102 6103 ] final -158.34 input  -93.79 | X-H torsion
[ 5929 5907 5908 5909 ] final  160.18 input  119.25 | X-H torsion
[ 6001 5979 5980 5981 ] final  112.66 input  112.51 | X-H torsion
[ 6064 6048 6049 6050 ] final -168.48 input  108.26 | X-H torsion
[ 11206 11196 11197 11198 ] final  174.04 input   -0.63 | X-H torsion
[ 11245 11229 11230 11231 ] final   23.78 input  120.69 | X-H torsion
[ 11164 11142 11143 11144 ] final  138.61 input   33.88 | X-H torsion
[ 11104 11082 11083 11084 ] final  -69.35 input   45.00 | X-H torsion
[ 11284 11266 11267 11268 ] final  -41.60 input   49.58 | X-H torsion
[ 9439 9421 9422 9423 ] final  171.48 input  116.39 | X-H torsion
[ 11482 11466 11467 11468 ] final -169.07 input  126.08 | X-H torsion
[ 11374 11358 11359 11360 ] final  105.28 input   98.08 | X-H torsion
[ 11559 11538 11537 11535 ] final   23.57 input   60.01 | X-H torsion
[ 9349 9335 9336 9337 ] final  154.48 input   84.14 | X-H torsion
[ 9355 9341 9339 9336 ] final   88.85 input   60.02 | X-H torsion
[ 9493 9469 9470 9471 ] final  177.91 input   75.21 | X-H torsion
[ 7840 7822 7823 7824 ] final  111.54 input  121.36 | X-H torsion
[ 7742 7722 7721 7720 ] final  -14.51 input   60.01 | X-H torsion
[ 5728 5706 5707 5708 ] final  105.11 input  119.20 | X-H torsion
[ 5773 5761 5762 5763 ] final  104.75 input  120.20 | X-H torsion
[ 5777 5766 5765 5762 ] final  -24.37 input   59.99 | X-H torsion
[ 7882 7866 7867 7868 ] final   22.11 input   81.17 | X-H torsion
[ 9501 9480 9479 9477 ] final  140.18 input   60.03 | X-H torsion
[ 7732 7714 7715 7716 ] final   72.28 input  -10.67 | X-H torsion
[ 15083 15054 15053 15052 ] final  178.14 input   60.01 | X-H torsion
[ 9319 9311 9312 9313 ] final   33.42 input  -66.31 | X-H torsion
[ 15194 15161 15160 15159 ] final  111.91 input   59.99 | X-H torsion
[ 15326 15310 15309 15306 ] final  -61.05 input   59.99 | X-H torsion
[ 9292 9280 9281 9282 ] final   71.89 input   22.77 | X-H torsion
[ 7636 7620 7621 7622 ] final   31.46 input   34.37 | X-H torsion
[ 9241 9225 9226 9227 ] final  167.68 input   96.07 | X-H torsion
[ 9544 9528 9529 9530 ] final  -22.78 input   99.68 | X-H torsion
[ 3443 3412 3413 3414 ] final  109.89 input -120.58 | X-H torsion
[ 3504 3478 3479 3480 ] final   77.59 input   70.69 | X-H torsion
[ 9190 9168 9169 9170 ] final   50.84 input  115.65 | X-H torsion
[ 9198 9178 9175 9174 ] final  125.98 input   59.98 | X-H torsion
[ 6282 6255 6254 6251 ] final -124.35 input   60.00 | X-H torsion
[ 9196 9176 9175 9174 ] final  -28.69 input   60.01 | X-H torsion
[ 12157 12142 12143 12144 ] final  122.55 input  108.55 | X-H torsion
[ 11995 11973 11974 11975 ] final   95.14 input   68.31 | X-H torsion
[ 11434 11416 11417 11418 ] final   47.55 input  102.35 | X-H torsion
[ 5626 5608 5609 5610 ] final -146.74 input  119.09 | X-H torsion
[ 10774 10756 10757 10758 ] final  -29.77 input  129.22 | X-H torsion
[ 10816 10800 10801 10802 ] final  -93.42 input  128.85 | X-H torsion
[ 8641 8619 8620 8621 ] final   -6.90 input   87.35 | X-H torsion
[ 3659 3632 3633 3634 ] final -137.59 input  116.97 | X-H torsion
[ 10029 10008 10007 10005 ] final  -13.16 input   60.01 | X-H torsion
[ 16458 15536 15535 15534 ] final   77.27 input    0.00 | X-H torsion
[ 16468 10881 10880 10879 ] final  -22.72 input    0.00 | X-H torsion
[ 16470 10910 10909 10908 ] final  -21.33 input    0.00 | X-H torsion
[ 16473 10997 10996 10995 ] final  123.54 input    0.00 | X-H torsion
[ 16475 11976 11975 11974 ] final   84.67 input    0.00 | X-H torsion
[ 16477 12048 12047 12046 ] final  -84.58 input    0.00 | X-H torsion
[ 16480 10939 10938 10937 ] final -142.18 input   -0.00 | X-H torsion
[ 16483 11039 11038 11037 ] final  116.55 input    0.00 | X-H torsion
[ 16492 15582 15581 15580 ] final -101.41 input    0.00 | X-H torsion
[ 16496 6104 6103 6102 ] final -116.90 input    0.00 | X-H torsion
[ 16499 5910 5909 5908 ] final -163.26 input   -0.00 | X-H torsion
[ 16502 5850 5849 5848 ] final -136.65 input    0.00 | X-H torsion
[ 16505 6051 6050 6049 ] final  -90.14 input    0.00 | X-H torsion
[ 16507 5982 5981 5980 ] final  -60.60 input    0.00 | X-H torsion
[ 16511 11145 11144 11143 ] final  156.23 input    0.00 | X-H torsion
[ 16514 11199 11198 11197 ] final  123.47 input    0.00 | X-H torsion
[ 16530 11085 11084 11083 ] final  -63.52 input   -0.00 | X-H torsion
[ 16538 11232 11231 11230 ] final  -97.31 input    0.00 | X-H torsion
[ 16549 11269 11268 11267 ] final -100.10 input   -0.00 | X-H torsion
[ 16552 11318 11317 11316 ] final  150.23 input    0.00 | X-H torsion
[ 16558 9314 9313 9312 ] final   95.34 input    0.00 | X-H torsion
[ 16561 9338 9337 9336 ] final -143.64 input    0.00 | X-H torsion
[ 16565 9380 9379 9378 ] final -166.18 input    0.00 | X-H torsion
[ 16570 5709 5708 5707 ] final -125.04 input    0.00 | X-H torsion
[ 16575 7825 7824 7823 ] final -175.75 input    0.00 | X-H torsion
[ 16583 7781 7780 7779 ] final  -35.41 input   -0.00 | X-H torsion
[ 16593 9424 9423 9422 ] final  -72.18 input   -0.00 | X-H torsion
[ 16597 7659 7658 7657 ] final  140.20 input   -0.00 | X-H torsion
[ 16599 7717 7716 7715 ] final  112.69 input    0.00 | X-H torsion
[ 16602 10532 10531 10530 ] final   -7.41 input    0.00 | X-H torsion
[ 16611 7554 7553 7552 ] final  138.98 input    0.00 | X-H torsion
[ 16613 7623 7622 7621 ] final  -93.03 input   -0.00 | X-H torsion
[ 16616 9283 9282 9281 ] final  -85.92 input    0.00 | X-H torsion
[ 16618 9228 9227 9226 ] final  162.09 input   -0.00 | X-H torsion
[ 16636 3357 3356 3355 ] final  124.94 input   -0.00 | X-H torsion
[ 16638 3415 3414 3413 ] final -157.75 input   -0.00 | X-H torsion
[ 16646 9102 9101 9100 ] final -122.83 input    0.00 | X-H torsion

> <Gold.Protein.ActiveResidues>
 ARG45   SER53   PHE54   LEU82   LYS83   GLN84   GLU86   HIS87   GLU127  PHE129 
 SER130  HIS131  LEU132  ARG133  ARG134  ILE135  GLY136  ARG137  PHE138  SER139 
 HIS142  ARG165  ASP166  LEU167  LYS168  PRO169  GLU170  ASN171  ASP184  GLY186 
 PHE187  TRP196  TPO197  LEU198  CYS199  GLY200  THR201  PRO202  GLU203  TYR204 
 LEU205  ILE209  ILE210  TYR215  VAL226  LEU227  TYR229  GLU230  MET231  ALA233 
 GLY234  TYR235  PRO236  PRO237  PHE238  PHE239  ALA240  ASP241  GLN242  PRO243 
 ILE244  GLN245  ILE246  TYR247  LYS249  ARG256  PHE257  PRO258  SER259  HIS260 
 PRO313  PHE314  ILE315  LYS317  LYS319  SER325  ASN326  ASP328  ASP329  GLU331 
 GLU332  GLU333  GLU334 

> <Gold.Protein.RotatedAtoms>
   24.0626   22.4328   36.5853 H   0  0  0  0  0  0  0  0  0  0  0  0  # atno 3443 bound_to 3412
   25.3274   22.0903   39.5638 H   0  0  0  0  0  0  0  0  0  0  0  0  # atno 3504 bound_to 3478
   22.3240   19.8416   45.7480 H   0  0  0  0  0  0  0  0  0  0  0  0  # atno 3659 bound_to 3632
   35.8228   -0.3803   42.8254 H   0  0  0  0  0  0  0  0  0  0  0  0  # atno 5626 bound_to 5608
   30.5174   -1.3264   40.9658 H   0  0  0  0  0  0  0  0  0  0  0  0  # atno 5728 bound_to 5706
   31.9087   -2.1884   39.1668 H   0  0  0  0  0  0  0  0  0  0  0  0  # atno 5773 bound_to 5761
   33.6948   -2.3189   35.8002 H   0  0  0  0  0  0  0  0  0  0  0  0  # atno 5777 bound_to 5766
   28.8847   -5.8394   37.1345 H   0  0  0  0  0  0  0  0  0  0  0  0  # atno 5929 bound_to 5907
   31.6486   -7.2546   35.8513 H   0  0  0  0  0  0  0  0  0  0  0  0  # atno 6001 bound_to 5979
   32.6657  -10.2004   36.5738 H   0  0  0  0  0  0  0  0  0  0  0  0  # atno 6064 bound_to 6048
   29.7475  -10.8703   35.2939 H   0  0  0  0  0  0  0  0  0  0  0  0  # atno 6109 bound_to 6101
   27.8357  -12.2511   37.7655 H   0  0  0  0  0  0  0  0  0  0  0  0  # atno 6151 bound_to 6129
   10.9969   23.9387   36.4772 H   0  0  0  0  0  0  0  0  0  0  0  0  # atno 6282 bound_to 6255
   19.6161    6.3854   47.4092 H   0  0  0  0  0  0  0  0  0  0  0  0  # atno 7636 bound_to 7620
   22.6550    2.7123   44.5611 H   0  0  0  0  0  0  0  0  0  0  0  0  # atno 7732 bound_to 7714
   21.8220    5.8197   41.3425 H   0  0  0  0  0  0  0  0  0  0  0  0  # atno 7742 bound_to 7722
   23.3331    6.3388   41.7820 H   0  0  0  0  0  0  0  0  0  0  0  0  # atno 7743 bound_to 7722
   22.6041    6.9609   40.4294 H   0  0  0  0  0  0  0  0  0  0  0  0  # atno 7744 bound_to 7722
   25.4101    1.2589   40.9852 H   0  0  0  0  0  0  0  0  0  0  0  0  # atno 7840 bound_to 7822
   26.9706    1.9747   43.1717 H   0  0  0  0  0  0  0  0  0  0  0  0  # atno 7882 bound_to 7866
   22.5894   13.1947   47.6679 H   0  0  0  0  0  0  0  0  0  0  0  0  # atno 8641 bound_to 8619
   10.7492   14.4477   46.1275 H   0  0  0  0  0  0  0  0  0  0  0  0  # atno 9190 bound_to 9168
   12.7258   19.0450   46.9540 H   0  0  0  0  0  0  0  0  0  0  0  0  # atno 9196 bound_to 9176
   14.9328   17.6279   47.7338 H   0  0  0  0  0  0  0  0  0  0  0  0  # atno 9198 bound_to 9178
   10.7355   14.4870   42.3211 H   0  0  0  0  0  0  0  0  0  0  0  0  # atno 9241 bound_to 9225
   13.7602   11.8277   42.8106 H   0  0  0  0  0  0  0  0  0  0  0  0  # atno 9292 bound_to 9280
   16.3700   10.1142   40.3428 H   0  0  0  0  0  0  0  0  0  0  0  0  # atno 9319 bound_to 9311
   18.9193    6.9205   40.2966 H   0  0  0  0  0  0  0  0  0  0  0  0  # atno 9349 bound_to 9335
   20.8442    5.9759   39.6694 H   0  0  0  0  0  0  0  0  0  0  0  0  # atno 9355 bound_to 9341
   16.1549    2.6944   35.9718 H   0  0  0  0  0  0  0  0  0  0  0  0  # atno 9439 bound_to 9421
   16.5190    1.3635   39.0138 H   0  0  0  0  0  0  0  0  0  0  0  0  # atno 9493 bound_to 9469
   20.9887   -2.4399   42.3447 H   0  0  0  0  0  0  0  0  0  0  0  0  # atno 9501 bound_to 9480
   13.8197    2.1798   41.1939 H   0  0  0  0  0  0  0  0  0  0  0  0  # atno 9544 bound_to 9528
   12.5559   11.9112   45.3250 H   0  0  0  0  0  0  0  0  0  0  0  0  # atno 10029 bound_to 10008
   14.7772  -11.5188   36.9869 H   0  0  0  0  0  0  0  0  0  0  0  0  # atno 10728 bound_to 10707
   19.1359   -8.4133   41.6452 H   0  0  0  0  0  0  0  0  0  0  0  0  # atno 10774 bound_to 10756
   22.0085   -7.4765   40.9298 H   0  0  0  0  0  0  0  0  0  0  0  0  # atno 10816 bound_to 10800
   21.2119  -10.3863   38.0189 H   0  0  0  0  0  0  0  0  0  0  0  0  # atno 10915 bound_to 10907
   21.0709   -8.9336   37.2771 H   0  0  0  0  0  0  0  0  0  0  0  0  # atno 10960 bound_to 10936
   16.3711  -13.5320   33.8795 H   0  0  0  0  0  0  0  0  0  0  0  0  # atno 10968 bound_to 10947
   13.9886   -5.5480   36.1028 H   0  0  0  0  0  0  0  0  0  0  0  0  # atno 11104 bound_to 11082
   14.0923   -4.3527   33.8479 H   0  0  0  0  0  0  0  0  0  0  0  0  # atno 11164 bound_to 11142
   13.8775   -2.8401   30.5484 H   0  0  0  0  0  0  0  0  0  0  0  0  # atno 11206 bound_to 11196
   13.6579   -0.2997   27.2386 H   0  0  0  0  0  0  0  0  0  0  0  0  # atno 11245 bound_to 11229
   14.5226    1.5932   27.6265 H   0  0  0  0  0  0  0  0  0  0  0  0  # atno 11284 bound_to 11266
   11.1379    5.3567   29.1555 H   0  0  0  0  0  0  0  0  0  0  0  0  # atno 11374 bound_to 11358
   10.3829    3.0357   29.9331 H   0  0  0  0  0  0  0  0  0  0  0  0  # atno 11434 bound_to 11416
   11.0436    0.8090   30.5735 H   0  0  0  0  0  0  0  0  0  0  0  0  # atno 11482 bound_to 11466
   13.4977    7.4628   34.7865 H   0  0  0  0  0  0  0  0  0  0  0  0  # atno 11559 bound_to 11538
    9.3921  -10.4787   36.8743 H   0  0  0  0  0  0  0  0  0  0  0  0  # atno 11995 bound_to 11973
   10.9424  -13.0530   38.0521 H   0  0  0  0  0  0  0  0  0  0  0  0  # atno 12067 bound_to 12045
   15.2314  -18.7688   36.2960 H   0  0  0  0  0  0  0  0  0  0  0  0  # atno 12157 bound_to 12142
   26.1853   15.3098   35.4101 H   0  0  0  0  0  0  0  0  0  0  0  0  # atno 15083 bound_to 15054
   27.2302   14.5743   34.3543 H   0  0  0  0  0  0  0  0  0  0  0  0  # atno 15084 bound_to 15054
   26.6300   16.0810   34.0127 H   0  0  0  0  0  0  0  0  0  0  0  0  # atno 15085 bound_to 15054
   31.5884   10.4907   31.1534 H   0  0  0  0  0  0  0  0  0  0  0  0  # atno 15194 bound_to 15161
   32.8214   11.5961   31.2300 H   0  0  0  0  0  0  0  0  0  0  0  0  # atno 15195 bound_to 15161
   31.3723   12.0159   30.5428 H   0  0  0  0  0  0  0  0  0  0  0  0  # atno 15196 bound_to 15161
   27.6749   11.2031   25.2149 H   0  0  0  0  0  0  0  0  0  0  0  0  # atno 15326 bound_to 15310
    8.0482  -12.3883   27.5684 H   0  0  0  0  0  0  0  0  0  0  0  0  # atno 15542 bound_to 15533
    7.9343  -14.3468   28.3241 H   0  0  0  0  0  0  0  0  0  0  0  0  # atno 15588 bound_to 15579
    8.7518  -18.1718   29.4365 H   0  0  0  0  0  0  0  0  0  0  0  0  # atno 15633 bound_to 15624
   11.2959  -14.0826   28.2179 LP  0  0  0  0  0  0  0  0  0  0  0  0  # atno 16458 bound_to 15536
   11.2101  -15.6557   27.4981 LP  0  0  0  0  0  0  0  0  0  0  0  0  # atno 16459 bound_to 15536
   15.8779  -13.0470   35.3523 LP  0  0  0  0  0  0  0  0  0  0  0  0  # atno 16460 bound_to 10947
   17.2266  -13.9546   35.1975 LP  0  0  0  0  0  0  0  0  0  0  0  0  # atno 16461 bound_to 10947
   14.0317  -10.1238   36.6045 LP  0  0  0  0  0  0  0  0  0  0  0  0  # atno 16466 bound_to 10707
   13.3092  -11.1907   37.6077 LP  0  0  0  0  0  0  0  0  0  0  0  0  # atno 16467 bound_to 10707
   21.0739  -13.6374   36.5213 LP  0  0  0  0  0  0  0  0  0  0  0  0  # atno 16468 bound_to 10881
   21.7826  -12.3088   35.6655 LP  0  0  0  0  0  0  0  0  0  0  0  0  # atno 16469 bound_to 10881
   23.7510   -8.6198   34.9173 LP  0  0  0  0  0  0  0  0  0  0  0  0  # atno 16470 bound_to 10910
   22.2025   -8.1640   34.2894 LP  0  0  0  0  0  0  0  0  0  0  0  0  # atno 16471 bound_to 10910
   21.3986   -9.6875   35.7366 LP  0  0  0  0  0  0  0  0  0  0  0  0  # atno 16472 bound_to 10936
   15.7033   -7.5403   35.6672 LP  0  0  0  0  0  0  0  0  0  0  0  0  # atno 16473 bound_to 10997
   16.2170   -6.0231   35.0083 LP  0  0  0  0  0  0  0  0  0  0  0  0  # atno 16474 bound_to 10997
   11.7121  -11.2363   38.5442 LP  0  0  0  0  0  0  0  0  0  0  0  0  # atno 16475 bound_to 11976
   12.4014  -11.8216   37.0670 LP  0  0  0  0  0  0  0  0  0  0  0  0  # atno 16476 bound_to 11976
   12.2231  -17.0311   37.9350 LP  0  0  0  0  0  0  0  0  0  0  0  0  # atno 16477 bound_to 12048
   12.2809  -16.0874   36.4838 LP  0  0  0  0  0  0  0  0  0  0  0  0  # atno 16478 bound_to 12048
   17.8375   -8.1734   37.7808 LP  0  0  0  0  0  0  0  0  0  0  0  0  # atno 16480 bound_to 10939
   19.4629   -8.7236   38.0159 LP  0  0  0  0  0  0  0  0  0  0  0  0  # atno 16481 bound_to 10939
   11.2270   -6.1874   36.5632 LP  0  0  0  0  0  0  0  0  0  0  0  0  # atno 16483 bound_to 11039
   12.2203   -7.4251   35.8695 LP  0  0  0  0  0  0  0  0  0  0  0  0  # atno 16484 bound_to 11039
   10.5281  -14.7493   38.0947 LP  0  0  0  0  0  0  0  0  0  0  0  0  # atno 16485 bound_to 12045
    8.9407  -11.5896   26.2953 LP  0  0  0  0  0  0  0  0  0  0  0  0  # atno 16490 bound_to 15533
    9.0679  -15.2341   27.3232 LP  0  0  0  0  0  0  0  0  0  0  0  0  # atno 16491 bound_to 15579
    8.1655  -18.2549   27.2705 LP  0  0  0  0  0  0  0  0  0  0  0  0  # atno 16492 bound_to 15582
    9.5368  -17.3026   26.8093 LP  0  0  0  0  0  0  0  0  0  0  0  0  # atno 16493 bound_to 15582
   10.3291  -17.5873   29.9192 LP  0  0  0  0  0  0  0  0  0  0  0  0  # atno 16494 bound_to 15624
   22.2101  -11.8224   38.1026 LP  0  0  0  0  0  0  0  0  0  0  0  0  # atno 16495 bound_to 10907
   25.7212  -10.0232   37.4796 LP  0  0  0  0  0  0  0  0  0  0  0  0  # atno 16496 bound_to 6104
   25.1057  -10.7221   36.0192 LP  0  0  0  0  0  0  0  0  0  0  0  0  # atno 16497 bound_to 6104
   26.4452  -12.6870   36.8018 LP  0  0  0  0  0  0  0  0  0  0  0  0  # atno 16498 bound_to 6129
   30.2273   -9.5980   33.7088 LP  0  0  0  0  0  0  0  0  0  0  0  0  # atno 16499 bound_to 5910
   28.8510   -8.5929   33.3999 LP  0  0  0  0  0  0  0  0  0  0  0  0  # atno 16500 bound_to 5910
   29.3961  -11.3436   36.9354 LP  0  0  0  0  0  0  0  0  0  0  0  0  # atno 16501 bound_to 6101
   29.2556   -9.1986   36.3770 LP  0  0  0  0  0  0  0  0  0  0  0  0  # atno 16502 bound_to 5850
   28.0311   -9.3632   37.5909 LP  0  0  0  0  0  0  0  0  0  0  0  0  # atno 16503 bound_to 5850
   29.6529   -7.4000   37.2901 LP  0  0  0  0  0  0  0  0  0  0  0  0  # atno 16504 bound_to 5907
   29.7213  -13.9468   35.5561 LP  0  0  0  0  0  0  0  0  0  0  0  0  # atno 16505 bound_to 6051
   29.0504  -13.7937   37.1455 LP  0  0  0  0  0  0  0  0  0  0  0  0  # atno 16506 bound_to 6051
   31.7460  -11.3450   33.5459 LP  0  0  0  0  0  0  0  0  0  0  0  0  # atno 16507 bound_to 5982
   32.8935  -12.0254   34.6506 LP  0  0  0  0  0  0  0  0  0  0  0  0  # atno 16508 bound_to 5982
   30.4448   -7.9782   34.8063 LP  0  0  0  0  0  0  0  0  0  0  0  0  # atno 16509 bound_to 5979
   31.0566   -9.9227   35.9481 LP  0  0  0  0  0  0  0  0  0  0  0  0  # atno 16510 bound_to 6048
   12.3250   -3.7240   29.8507 LP  0  0  0  0  0  0  0  0  0  0  0  0  # atno 16511 bound_to 11145
   12.9254   -4.7531   31.1078 LP  0  0  0  0  0  0  0  0  0  0  0  0  # atno 16512 bound_to 11145
   15.3220   -1.9264   30.1460 LP  0  0  0  0  0  0  0  0  0  0  0  0  # atno 16513 bound_to 11196
   16.5217   -0.4158   28.2801 LP  0  0  0  0  0  0  0  0  0  0  0  0  # atno 16514 bound_to 11199
   15.3580    0.1725   29.4202 LP  0  0  0  0  0  0  0  0  0  0  0  0  # atno 16515 bound_to 11199
   14.6298   -1.6294   26.6377 LP  0  0  0  0  0  0  0  0  0  0  0  0  # atno 16516 bound_to 11229
   12.7063   -3.5874   33.1191 LP  0  0  0  0  0  0  0  0  0  0  0  0  # atno 16525 bound_to 11142
   13.9902   -1.5128   35.0603 LP  0  0  0  0  0  0  0  0  0  0  0  0  # atno 16530 bound_to 11085
   15.3848   -2.4735   34.6968 LP  0  0  0  0  0  0  0  0  0  0  0  0  # atno 16531 bound_to 11085
   13.5026   -4.4039   37.3351 LP  0  0  0  0  0  0  0  0  0  0  0  0  # atno 16533 bound_to 11082
   16.7814    2.5984   26.9520 LP  0  0  0  0  0  0  0  0  0  0  0  0  # atno 16538 bound_to 11232
   16.2701    2.9694   25.3393 LP  0  0  0  0  0  0  0  0  0  0  0  0  # atno 16539 bound_to 11232
   13.7558    1.7665   26.0566 LP  0  0  0  0  0  0  0  0  0  0  0  0  # atno 16542 bound_to 11266
   15.7280    3.1528   37.5997 LP  0  0  0  0  0  0  0  0  0  0  0  0  # atno 16548 bound_to 9421
   11.4822    3.0138   29.2714 LP  0  0  0  0  0  0  0  0  0  0  0  0  # atno 16549 bound_to 11269
   12.8310    1.9592   29.5330 LP  0  0  0  0  0  0  0  0  0  0  0  0  # atno 16550 bound_to 11269
   10.2997    4.3569   32.4048 LP  0  0  0  0  0  0  0  0  0  0  0  0  # atno 16552 bound_to 11318
   11.8006    3.5013   32.5277 LP  0  0  0  0  0  0  0  0  0  0  0  0  # atno 16553 bound_to 11318
    9.7409    1.7922   31.2089 LP  0  0  0  0  0  0  0  0  0  0  0  0  # atno 16554 bound_to 11466
   11.4363    4.6974   30.7362 LP  0  0  0  0  0  0  0  0  0  0  0  0  # atno 16555 bound_to 11358
   12.5659    8.6898   35.3096 LP  0  0  0  0  0  0  0  0  0  0  0  0  # atno 16556 bound_to 11538
   12.8094    8.4700   33.7099 LP  0  0  0  0  0  0  0  0  0  0  0  0  # atno 16557 bound_to 11538
   18.2405    8.9939   38.1329 LP  0  0  0  0  0  0  0  0  0  0  0  0  # atno 16558 bound_to 9314
   16.5572    8.7051   38.4208 LP  0  0  0  0  0  0  0  0  0  0  0  0  # atno 16559 bound_to 9314
   17.1972    7.0211   40.0201 LP  0  0  0  0  0  0  0  0  0  0  0  0  # atno 16560 bound_to 9335
   15.8966    3.8758   38.9461 LP  0  0  0  0  0  0  0  0  0  0  0  0  # atno 16561 bound_to 9338
   16.4447    5.0769   40.0673 LP  0  0  0  0  0  0  0  0  0  0  0  0  # atno 16562 bound_to 9338
   20.5669    6.5889   38.1874 LP  0  0  0  0  0  0  0  0  0  0  0  0  # atno 16563 bound_to 9341
   21.3966    5.1924   38.3541 LP  0  0  0  0  0  0  0  0  0  0  0  0  # atno 16564 bound_to 9341
   13.7823    2.1891   38.2014 LP  0  0  0  0  0  0  0  0  0  0  0  0  # atno 16565 bound_to 9380
   13.0858    3.7012   37.7234 LP  0  0  0  0  0  0  0  0  0  0  0  0  # atno 16566 bound_to 9380
   15.0669    2.3394   39.0622 LP  0  0  0  0  0  0  0  0  0  0  0  0  # atno 16567 bound_to 9469
   30.0881   -4.7748   37.6538 LP  0  0  0  0  0  0  0  0  0  0  0  0  # atno 16570 bound_to 5709
   28.9703   -3.5871   37.0708 LP  0  0  0  0  0  0  0  0  0  0  0  0  # atno 16571 bound_to 5709
   26.7266    0.4198   41.7673 LP  0  0  0  0  0  0  0  0  0  0  0  0  # atno 16574 bound_to 7822
   29.1654    4.1719   42.7623 LP  0  0  0  0  0  0  0  0  0  0  0  0  # atno 16575 bound_to 7825
   29.3023    3.7894   41.0786 LP  0  0  0  0  0  0  0  0  0  0  0  0  # atno 16576 bound_to 7825
   30.0752   -2.9923   41.2410 LP  0  0  0  0  0  0  0  0  0  0  0  0  # atno 16579 bound_to 5706
   30.5644   -2.7668   38.2092 LP  0  0  0  0  0  0  0  0  0  0  0  0  # atno 16580 bound_to 5761
   35.2235   -2.2031   36.3448 LP  0  0  0  0  0  0  0  0  0  0  0  0  # atno 16581 bound_to 5766
   34.1016   -1.1132   36.8140 LP  0  0  0  0  0  0  0  0  0  0  0  0  # atno 16582 bound_to 5766
   28.0824   -0.0912   43.4881 LP  0  0  0  0  0  0  0  0  0  0  0  0  # atno 16583 bound_to 7781
   28.6946    0.4437   41.9587 LP  0  0  0  0  0  0  0  0  0  0  0  0  # atno 16584 bound_to 7781
   26.8801    3.4441   42.2231 LP  0  0  0  0  0  0  0  0  0  0  0  0  # atno 16585 bound_to 7866
   13.8670   -0.3714   39.0044 LP  0  0  0  0  0  0  0  0  0  0  0  0  # atno 16593 bound_to 9424
   15.3911   -0.8934   39.6404 LP  0  0  0  0  0  0  0  0  0  0  0  0  # atno 16594 bound_to 9424
   21.1642   -2.4338   40.7269 LP  0  0  0  0  0  0  0  0  0  0  0  0  # atno 16595 bound_to 9480
   19.9290   -3.2517   41.4140 LP  0  0  0  0  0  0  0  0  0  0  0  0  # atno 16596 bound_to 9480
   20.5198    2.7817   42.9160 LP  0  0  0  0  0  0  0  0  0  0  0  0  # atno 16597 bound_to 7659
   19.3156    2.5055   44.1298 LP  0  0  0  0  0  0  0  0  0  0  0  0  # atno 16598 bound_to 7659
   25.2754    0.9817   44.6182 LP  0  0  0  0  0  0  0  0  0  0  0  0  # atno 16599 bound_to 7717
   24.9949    2.3234   43.5593 LP  0  0  0  0  0  0  0  0  0  0  0  0  # atno 16600 bound_to 7717
   21.7916    1.3300   45.1989 LP  0  0  0  0  0  0  0  0  0  0  0  0  # atno 16601 bound_to 7714
   17.5519   -5.5246   41.6022 LP  0  0  0  0  0  0  0  0  0  0  0  0  # atno 16602 bound_to 10532
   19.0950   -5.2757   42.3485 LP  0  0  0  0  0  0  0  0  0  0  0  0  # atno 16603 bound_to 10532
   17.4583   10.7255   41.5650 LP  0  0  0  0  0  0  0  0  0  0  0  0  # atno 16604 bound_to 9311
   27.6683   10.9544   26.8233 LP  0  0  0  0  0  0  0  0  0  0  0  0  # atno 16607 bound_to 15310
   26.4765   11.8246   26.1240 LP  0  0  0  0  0  0  0  0  0  0  0  0  # atno 16608 bound_to 15310
   18.7589    8.3671   44.6116 LP  0  0  0  0  0  0  0  0  0  0  0  0  # atno 16611 bound_to 7554
   17.0841    8.0614   44.9306 LP  0  0  0  0  0  0  0  0  0  0  0  0  # atno 16612 bound_to 7554
   21.7824    4.6682   43.7126 LP  0  0  0  0  0  0  0  0  0  0  0  0  # atno 16613 bound_to 7623
   22.8208    5.2303   44.9797 LP  0  0  0  0  0  0  0  0  0  0  0  0  # atno 16614 bound_to 7623
   13.3803   12.0035   41.1248 LP  0  0  0  0  0  0  0  0  0  0  0  0  # atno 16615 bound_to 9280
   15.5528    9.2784   43.2668 LP  0  0  0  0  0  0  0  0  0  0  0  0  # atno 16616 bound_to 9283
   14.7636    8.7178   41.8306 LP  0  0  0  0  0  0  0  0  0  0  0  0  # atno 16617 bound_to 9283
   15.0619   13.9101   40.8487 LP  0  0  0  0  0  0  0  0  0  0  0  0  # atno 16618 bound_to 9228
   13.5928   14.4335   40.0952 LP  0  0  0  0  0  0  0  0  0  0  0  0  # atno 16619 bound_to 9228
   18.6221    7.4105   46.4143 LP  0  0  0  0  0  0  0  0  0  0  0  0  # atno 16620 bound_to 7620
   12.4310   14.5782   42.7276 LP  0  0  0  0  0  0  0  0  0  0  0  0  # atno 16628 bound_to 9225
   14.4734    3.5507   40.3293 LP  0  0  0  0  0  0  0  0  0  0  0  0  # atno 16635 bound_to 9528
   23.9060   20.2025   37.9967 LP  0  0  0  0  0  0  0  0  0  0  0  0  # atno 16636 bound_to 3357
   23.3897   20.1217   36.3454 LP  0  0  0  0  0  0  0  0  0  0  0  0  # atno 16637 bound_to 3357
   22.3736   20.8485   40.9894 LP  0  0  0  0  0  0  0  0  0  0  0  0  # atno 16638 bound_to 3415
   21.4969   21.1715   39.5310 LP  0  0  0  0  0  0  0  0  0  0  0  0  # atno 16639 bound_to 3415
   25.1862   23.0637   37.7675 LP  0  0  0  0  0  0  0  0  0  0  0  0  # atno 16640 bound_to 3412
   23.6117   21.8491   39.8144 LP  0  0  0  0  0  0  0  0  0  0  0  0  # atno 16641 bound_to 3478
    9.3003   13.8280   43.5945 LP  0  0  0  0  0  0  0  0  0  0  0  0  # atno 16646 bound_to 9102
    8.1756   15.1419   43.6879 LP  0  0  0  0  0  0  0  0  0  0  0  0  # atno 16647 bound_to 9102
    9.8423   15.8269   45.5616 LP  0  0  0  0  0  0  0  0  0  0  0  0  # atno 16648 bound_to 9168
   14.9549   16.9398   46.2594 LP  0  0  0  0  0  0  0  0  0  0  0  0  # atno 16649 bound_to 9178
   14.8252   16.0102   47.5957 LP  0  0  0  0  0  0  0  0  0  0  0  0  # atno 16650 bound_to 9178
    9.8787   25.1099   36.6368 LP  0  0  0  0  0  0  0  0  0  0  0  0  # atno 16654 bound_to 6255
    9.8636   24.1356   35.3264 LP  0  0  0  0  0  0  0  0  0  0  0  0  # atno 16655 bound_to 6255
   13.2487   18.5970   48.4289 LP  0  0  0  0  0  0  0  0  0  0  0  0  # atno 16656 bound_to 9176
   11.6993   18.3240   47.9912 LP  0  0  0  0  0  0  0  0  0  0  0  0  # atno 16657 bound_to 9176

> <Gold.Score>
     Fitness  S(hb_ext) S(vdw_ext)  S(hb_int)    S(int)      intcor
     34.82       1.15      25.86       0.00      -1.89      -0.76

> <Gold.Goldscore.Fitness>
34.8204

> <Gold.Goldscore.Internal.Vdw>
-1.8819

> <Gold.Goldscore.Internal.Torsion>
-0.7678

> <Gold.Goldscore.External.Vdw>
25.8635

> <Gold.Goldscore.Internal.HBond>
0.0000

> <Gold.Goldscore.External.HBond>
1.1493

> <Gold.Goldscore.Internal.Correction>
-0.7585

> <Gold.Goldscore.Hbonds>
donor molecule, donor type, donor heavy atom, donor atom, acceptor molecule, acceptor atom, score
      P1  H 11973 11995       L1     9  0.38
      L1  H     8    22       P1 11976  0.20

> <Gold.Goldscore.Internal.Vdw.Weighted>
-1.8819

> <Gold.Goldscore.Internal.Torsion.Weighted>
-0.7678

> <Gold.Goldscore.External.Vdw.Weighted>
35.5624

> <Gold.Goldscore.Internal.HBond.Weighted>
0.0000

> <Gold.Goldscore.External.HBond.Weighted>
1.1493

> <Gold.Goldscore.Internal.Correction.Weighted>
-0.7585

> <Gold.Rescore>
     Score     S(PLP)   S(hbond)     S(cho)   S(metal)  DE(clash)   DE(tors)     intcor
     16.41     -18.39       0.00       0.00       0.00       0.82       0.58       ----

> <Gold.PLP.Fitness>
16.4077

> <Gold.PLP.PLP>
-18.3853

> <Gold.PLP.part.hbond>
-2.0349

> <Gold.PLP.part.metal>
0.0000

> <Gold.PLP.part.buried>
11.5561

> <Gold.PLP.part.nonpolar>
-31.0071

> <Gold.PLP.part.repulsive>
1.4360

> <Gold.PLP.ligand.clash>
0.8185

> <Gold.PLP.ligand.torsion>
0.5796

> <Gold.PLP.Chemscore.Hbond>
0.0000

> <Gold.PLP.Chemscore.CHOScore>
0.0000

> <Gold.PLP.Chemscore.Metal>
0.0000

> <Gold.Chemscore.Hbonds>
donor molecule, donor type, donor heavy atom, donor atom, acceptor molecule, acceptor atom, score
      P1  H 11973 11995       L1     9  0.49

> <Gold.PLP.Chemscore.Internal.Correction>
   9.000000E+99

