#       Name:                CT1002167954
#       Creating user name   hitesit
#       Creation time:       Sun Apr 16 22:54:08 2023


#       File generated by GOLD software.
#

@<TRIPOS>MOLECULE
CT1002167954|ligand_prepared|mol2|1|dock1
    29    30     1
SMALL
NO_CHARGES


@<TRIPOS>ATOM
      1 C1          18.9761  14.4615  32.7767 C.3            1 RES1               0.0000
      2 C2          20.0789  14.1482  31.7450 C.ar           1 RES1               0.0000
      3 C3          19.4752  15.6531  33.5887 C.2            1 RES1               0.0000
      4 C4          17.7094  14.7413  31.9756 C.2            1 RES1               0.0000
      5 C5          18.6794  13.2951  33.7478 C.3            1 RES1               0.0000
      6 C6          20.9497  15.1445  31.3138 C.ar           1 RES1               0.0000
      7 C7          20.2392  12.8693  31.2182 C.ar           1 RES1               0.0000
      8 N8          18.8969  16.8654  33.3524 N.am           1 RES1               0.0000
      9 O9          20.3894  15.5385  34.3958 O.2            1 RES1               0.0000
     10 N10         17.1893  16.0083  32.0185 N.am           1 RES1               0.0000
     11 O11         17.1664  13.8803  31.2943 O.2            1 RES1               0.0000
     12 C12         17.8257  13.6931  34.9415 C.3            1 RES1               0.0000
     13 C13         21.9465  14.8716  30.3918 C.ar           1 RES1               0.0000
     14 C14         21.2366  12.5987  30.2960 C.ar           1 RES1               0.0000
     15 C15         17.7428  17.0909  32.6460 C.2            1 RES1               0.0000
     16 C16         22.0910  13.5987  29.8826 C.ar           1 RES1               0.0000
     17 O17         17.2442  18.2115  32.5938 O.2            1 RES1               0.0000
     18 H18         18.1654  12.4983  33.1960 H              1 RES1               0.0000
     19 H19         19.6308  12.8895  34.1137 H              1 RES1               0.0000
     20 H20         20.8497  16.1528  31.7016 H              1 RES1               0.0000
     21 H21         19.5780  12.0673  31.5282 H              1 RES1               0.0000
     22 H22         19.3659  17.6796  33.7364 H              1 RES1               0.0000
     23 H23         16.3077  16.1583  31.5382 H              1 RES1               0.0000
     24 H24         17.6475  12.8382  35.5904 H              1 RES1               0.0000
     25 H25         18.3183  14.4664  35.5273 H              1 RES1               0.0000
     26 H26         16.8616  14.0776  34.6151 H              1 RES1               0.0000
     27 H27         22.6154  15.6624  30.0686 H              1 RES1               0.0000
     28 H28         21.3463  11.5955  29.8975 H              1 RES1               0.0000
     29 H29         22.8722  13.3851  29.1606 H              1 RES1               0.0000
@<TRIPOS>BOND
    1    1    2 1     
    2    1    3 1     
    3    1    4 1     
    4    1    5 1     
    5    2    6 ar    
    6    2    7 ar    
    7    3    8 1     
    8    3    9 2     
    9    4   10 1     
   10    4   11 2     
   11    5   12 1     
   12    5   18 1     
   13    5   19 1     
   14    6   13 ar    
   15    6   20 1     
   16    7   14 ar    
   17    7   21 1     
   18    8   15 1     
   19    8   22 1     
   20   10   15 1     
   21   10   23 1     
   22   12   24 1     
   23   12   25 1     
   24   12   26 1     
   25   13   16 ar    
   26   13   27 1     
   27   14   16 ar    
   28   14   28 1     
   29   15   17 2     
   30   16   29 1     
@<TRIPOS>SUBSTRUCTURE
      1 RES1           1
@<TRIPOS>SET
DONOR_HYDROGENS      STATIC     ATOMS    <user>   **** ""
2 22 23
ATOM$RED        STATIC     ATOMS    COLORGROUP SYSTEM
2 22 23
@<TRIPOS>COMMENT
> <Gold.Version>
2022.3.0

> <Gold.Id.Protein>
unknown|3mvj_clean|pdb

> <Gold.Protein.RotatedTorsions>
[ 10968 10947 10946 10944 ] final  152.75 input   60.01 | X-H torsion
[ 10728 10707 10706 10704 ] final  100.77 input   59.96 | X-H torsion
[ 10960 10936 10937 10938 ] final  -83.53 input   23.31 | X-H torsion
[ 12067 12045 12046 12047 ] final -176.73 input   63.71 | X-H torsion
[ 15542 15533 15534 15535 ] final  -50.00 input   83.29 | X-H torsion
[ 15588 15579 15580 15581 ] final  -24.63 input  107.67 | X-H torsion
[ 15633 15624 15625 15626 ] final   32.62 input   84.82 | X-H torsion
[ 10915 10907 10908 10909 ] final  -21.52 input  -87.38 | X-H torsion
[ 6151 6129 6130 6131 ] final  158.61 input   27.76 | X-H torsion
[ 6109 6101 6102 6103 ] final   94.62 input  -93.79 | X-H torsion
[ 5929 5907 5908 5909 ] final  -20.19 input  119.25 | X-H torsion
[ 6001 5979 5980 5981 ] final  112.35 input  112.51 | X-H torsion
[ 6064 6048 6049 6050 ] final   90.01 input  108.26 | X-H torsion
[ 11206 11196 11197 11198 ] final  -70.94 input   -0.63 | X-H torsion
[ 11245 11229 11230 11231 ] final -131.13 input  120.69 | X-H torsion
[ 11164 11142 11143 11144 ] final  -90.85 input   33.88 | X-H torsion
[ 11104 11082 11083 11084 ] final -160.14 input   45.00 | X-H torsion
[ 11284 11266 11267 11268 ] final  -71.35 input   49.58 | X-H torsion
[ 9439 9421 9422 9423 ] final   53.26 input  116.39 | X-H torsion
[ 11482 11466 11467 11468 ] final  100.70 input  126.08 | X-H torsion
[ 11374 11358 11359 11360 ] final  155.67 input   98.08 | X-H torsion
[ 11559 11538 11537 11535 ] final   76.77 input   60.01 | X-H torsion
[ 9349 9335 9336 9337 ] final  -79.02 input   84.14 | X-H torsion
[ 9355 9341 9339 9336 ] final  110.54 input   60.02 | X-H torsion
[ 9493 9469 9470 9471 ] final  -65.39 input   75.21 | X-H torsion
[ 7840 7822 7823 7824 ] final   67.07 input  121.36 | X-H torsion
[ 7742 7722 7721 7720 ] final  102.36 input   60.01 | X-H torsion
[ 5728 5706 5707 5708 ] final   61.59 input  119.20 | X-H torsion
[ 5773 5761 5762 5763 ] final  -72.38 input  120.20 | X-H torsion
[ 5777 5766 5765 5762 ] final -155.71 input   59.99 | X-H torsion
[ 7882 7866 7867 7868 ] final  117.64 input   81.17 | X-H torsion
[ 9501 9480 9479 9477 ] final  -83.48 input   60.03 | X-H torsion
[ 7732 7714 7715 7716 ] final   18.88 input  -10.67 | X-H torsion
[ 15083 15054 15053 15052 ] final  107.79 input   60.01 | X-H torsion
[ 9319 9311 9312 9313 ] final  -74.76 input  -66.31 | X-H torsion
[ 15194 15161 15160 15159 ] final   89.23 input   59.99 | X-H torsion
[ 15326 15310 15309 15306 ] final   83.65 input   59.99 | X-H torsion
[ 9292 9280 9281 9282 ] final  147.80 input   22.77 | X-H torsion
[ 7636 7620 7621 7622 ] final   67.99 input   34.37 | X-H torsion
[ 9241 9225 9226 9227 ] final  -70.01 input   96.07 | X-H torsion
[ 9544 9528 9529 9530 ] final  130.46 input   99.68 | X-H torsion
[ 3443 3412 3413 3414 ] final -114.93 input -120.58 | X-H torsion
[ 3504 3478 3479 3480 ] final -133.26 input   70.69 | X-H torsion
[ 9190 9168 9169 9170 ] final   86.14 input  115.65 | X-H torsion
[ 9198 9178 9175 9174 ] final  -62.51 input   59.98 | X-H torsion
[ 6282 6255 6254 6251 ] final   78.22 input   60.00 | X-H torsion
[ 9196 9176 9175 9174 ] final  -35.40 input   60.01 | X-H torsion
[ 12157 12142 12143 12144 ] final   38.14 input  108.55 | X-H torsion
[ 11995 11973 11974 11975 ] final  -93.44 input   68.31 | X-H torsion
[ 11434 11416 11417 11418 ] final  165.49 input  102.35 | X-H torsion
[ 5626 5608 5609 5610 ] final   57.14 input  119.09 | X-H torsion
[ 10774 10756 10757 10758 ] final -138.17 input  129.22 | X-H torsion
[ 10816 10800 10801 10802 ] final  -89.23 input  128.85 | X-H torsion
[ 8641 8619 8620 8621 ] final   73.15 input   87.35 | X-H torsion
[ 3659 3632 3633 3634 ] final  -28.00 input  116.97 | X-H torsion
[ 10029 10008 10007 10005 ] final  -87.81 input   60.01 | X-H torsion
[ 16458 15536 15535 15534 ] final  -24.03 input    0.00 | X-H torsion
[ 16468 10881 10880 10879 ] final   73.03 input    0.00 | X-H torsion
[ 16470 10910 10909 10908 ] final -161.92 input    0.00 | X-H torsion
[ 16473 10997 10996 10995 ] final  -90.82 input    0.00 | X-H torsion
[ 16475 11976 11975 11974 ] final  -56.45 input    0.00 | X-H torsion
[ 16477 12048 12047 12046 ] final   92.48 input    0.00 | X-H torsion
[ 16480 10939 10938 10937 ] final  -52.41 input   -0.00 | X-H torsion
[ 16483 11039 11038 11037 ] final  102.38 input    0.00 | X-H torsion
[ 16492 15582 15581 15580 ] final -117.06 input    0.00 | X-H torsion
[ 16496 6104 6103 6102 ] final   -1.55 input    0.00 | X-H torsion
[ 16499 5910 5909 5908 ] final  -61.46 input   -0.00 | X-H torsion
[ 16502 5850 5849 5848 ] final  -90.36 input    0.00 | X-H torsion
[ 16505 6051 6050 6049 ] final  158.42 input    0.00 | X-H torsion
[ 16507 5982 5981 5980 ] final   14.87 input    0.00 | X-H torsion
[ 16511 11145 11144 11143 ] final  132.97 input    0.00 | X-H torsion
[ 16514 11199 11198 11197 ] final    1.99 input    0.00 | X-H torsion
[ 16530 11085 11084 11083 ] final  -75.02 input   -0.00 | X-H torsion
[ 16538 11232 11231 11230 ] final   97.92 input    0.00 | X-H torsion
[ 16549 11269 11268 11267 ] final   10.79 input   -0.00 | X-H torsion
[ 16552 11318 11317 11316 ] final  175.25 input    0.00 | X-H torsion
[ 16558 9314 9313 9312 ] final   20.78 input    0.00 | X-H torsion
[ 16561 9338 9337 9336 ] final  124.41 input    0.00 | X-H torsion
[ 16565 9380 9379 9378 ] final  -34.23 input    0.00 | X-H torsion
[ 16570 5709 5708 5707 ] final -136.84 input    0.00 | X-H torsion
[ 16575 7825 7824 7823 ] final  130.22 input    0.00 | X-H torsion
[ 16583 7781 7780 7779 ] final  171.08 input   -0.00 | X-H torsion
[ 16593 9424 9423 9422 ] final  -21.71 input   -0.00 | X-H torsion
[ 16597 7659 7658 7657 ] final   90.74 input   -0.00 | X-H torsion
[ 16599 7717 7716 7715 ] final   57.36 input    0.00 | X-H torsion
[ 16602 10532 10531 10530 ] final -106.44 input    0.00 | X-H torsion
[ 16611 7554 7553 7552 ] final   85.05 input    0.00 | X-H torsion
[ 16613 7623 7622 7621 ] final  -78.15 input   -0.00 | X-H torsion
[ 16616 9283 9282 9281 ] final   71.01 input    0.00 | X-H torsion
[ 16618 9228 9227 9226 ] final -101.95 input   -0.00 | X-H torsion
[ 16636 3357 3356 3355 ] final -128.72 input   -0.00 | X-H torsion
[ 16638 3415 3414 3413 ] final  -54.27 input   -0.00 | X-H torsion
[ 16646 9102 9101 9100 ] final   63.97 input    0.00 | X-H torsion

> <Gold.Protein.ActiveResidues>
 ARG45   SER53   PHE54   LEU82   LYS83   GLN84   GLU86   HIS87   GLU127  PHE129 
 SER130  HIS131  LEU132  ARG133  ARG134  ILE135  GLY136  ARG137  PHE138  SER139 
 HIS142  ARG165  ASP166  LEU167  LYS168  PRO169  GLU170  ASN171  ASP184  GLY186 
 PHE187  TRP196  TPO197  LEU198  CYS199  GLY200  THR201  PRO202  GLU203  TYR204 
 LEU205  ILE209  ILE210  TYR215  VAL226  LEU227  TYR229  GLU230  MET231  ALA233 
 GLY234  TYR235  PRO236  PRO237  PHE238  PHE239  ALA240  ASP241  GLN242  PRO243 
 ILE244  GLN245  ILE246  TYR247  LYS249  ARG256  PHE257  PRO258  SER259  HIS260 
 PRO313  PHE314  ILE315  LYS317  LYS319  SER325  ASN326  ASP328  ASP329  GLU331 
 GLU332  GLU333  GLU334 

> <Gold.Protein.RotatedAtoms>
   24.9066   23.5615   37.4224 H   0  0  0  0  0  0  0  0  0  0  0  0  # atno 3443 bound_to 3412
   23.7152   21.5060   39.5151 H   0  0  0  0  0  0  0  0  0  0  0  0  # atno 3504 bound_to 3478
   23.6101   20.3589   46.1555 H   0  0  0  0  0  0  0  0  0  0  0  0  # atno 3659 bound_to 3632
   35.7092   -1.5818   41.5999 H   0  0  0  0  0  0  0  0  0  0  0  0  # atno 5626 bound_to 5608
   30.9762   -1.7373   40.7502 H   0  0  0  0  0  0  0  0  0  0  0  0  # atno 5728 bound_to 5706
   30.5539   -2.8189   38.2109 H   0  0  0  0  0  0  0  0  0  0  0  0  # atno 5773 bound_to 5761
   35.2456   -2.0595   36.4606 H   0  0  0  0  0  0  0  0  0  0  0  0  # atno 5777 bound_to 5766
   29.6555   -7.4179   37.2921 H   0  0  0  0  0  0  0  0  0  0  0  0  # atno 5929 bound_to 5907
   31.6473   -7.2576   35.8549 H   0  0  0  0  0  0  0  0  0  0  0  0  # atno 6001 bound_to 5979
   31.4590   -9.6612   36.9451 H   0  0  0  0  0  0  0  0  0  0  0  0  # atno 6064 bound_to 6048
   29.7507  -11.9640   36.1839 H   0  0  0  0  0  0  0  0  0  0  0  0  # atno 6109 bound_to 6101
   26.4113  -12.3703   36.7795 H   0  0  0  0  0  0  0  0  0  0  0  0  # atno 6151 bound_to 6129
    9.5589   25.0266   36.1327 H   0  0  0  0  0  0  0  0  0  0  0  0  # atno 6282 bound_to 6255
   19.8042    6.8956   47.4481 H   0  0  0  0  0  0  0  0  0  0  0  0  # atno 7636 bound_to 7620
   23.0896    2.1642   44.9462 H   0  0  0  0  0  0  0  0  0  0  0  0  # atno 7732 bound_to 7714
   23.3070    6.3037   41.8095 H   0  0  0  0  0  0  0  0  0  0  0  0  # atno 7742 bound_to 7722
   22.6517    6.9763   40.4441 H   0  0  0  0  0  0  0  0  0  0  0  0  # atno 7743 bound_to 7722
   21.7997    5.8399   41.2990 H   0  0  0  0  0  0  0  0  0  0  0  0  # atno 7744 bound_to 7722
   25.4887    1.4485   41.6201 H   0  0  0  0  0  0  0  0  0  0  0  0  # atno 7840 bound_to 7822
   26.0531    2.8563   42.8207 H   0  0  0  0  0  0  0  0  0  0  0  0  # atno 7882 bound_to 7866
   22.6241   12.3108   46.9535 H   0  0  0  0  0  0  0  0  0  0  0  0  # atno 8641 bound_to 8619
   10.9563   14.8821   46.3563 H   0  0  0  0  0  0  0  0  0  0  0  0  # atno 9190 bound_to 9168
   12.8284   19.0607   46.9890 H   0  0  0  0  0  0  0  0  0  0  0  0  # atno 9196 bound_to 9176
   14.8624   16.0244   46.7802 H   0  0  0  0  0  0  0  0  0  0  0  0  # atno 9198 bound_to 9178
   11.9294   14.1237   43.2291 H   0  0  0  0  0  0  0  0  0  0  0  0  # atno 9241 bound_to 9225
   13.7329   12.7200   42.2379 H   0  0  0  0  0  0  0  0  0  0  0  0  # atno 9292 bound_to 9280
   17.6336   10.7502   40.5557 H   0  0  0  0  0  0  0  0  0  0  0  0  # atno 9319 bound_to 9311
   17.6230    7.6104   39.7201 H   0  0  0  0  0  0  0  0  0  0  0  0  # atno 9349 bound_to 9335
   21.0265    5.6758   39.6389 H   0  0  0  0  0  0  0  0  0  0  0  0  # atno 9355 bound_to 9341
   16.5786    2.9648   37.3918 H   0  0  0  0  0  0  0  0  0  0  0  0  # atno 9439 bound_to 9421
   15.0059    1.4241   39.0093 H   0  0  0  0  0  0  0  0  0  0  0  0  # atno 9493 bound_to 9469
   19.9916   -3.2233   41.1559 H   0  0  0  0  0  0  0  0  0  0  0  0  # atno 9501 bound_to 9480
   14.1962    3.4216   40.0640 H   0  0  0  0  0  0  0  0  0  0  0  0  # atno 9544 bound_to 9528
   13.1912   11.0352   45.6698 H   0  0  0  0  0  0  0  0  0  0  0  0  # atno 10029 bound_to 10008
   14.2830  -11.7827   37.4090 H   0  0  0  0  0  0  0  0  0  0  0  0  # atno 10728 bound_to 10707
   18.2532   -7.7667   40.7152 H   0  0  0  0  0  0  0  0  0  0  0  0  # atno 10774 bound_to 10756
   21.9835   -7.5304   40.9059 H   0  0  0  0  0  0  0  0  0  0  0  0  # atno 10816 bound_to 10800
   21.2273  -10.3750   38.0385 H   0  0  0  0  0  0  0  0  0  0  0  0  # atno 10915 bound_to 10907
   21.7323   -8.7038   36.8973 H   0  0  0  0  0  0  0  0  0  0  0  0  # atno 10960 bound_to 10936
   17.0639  -13.9526   34.2127 H   0  0  0  0  0  0  0  0  0  0  0  0  # atno 10968 bound_to 10947
   13.0178   -5.4506   36.9098 H   0  0  0  0  0  0  0  0  0  0  0  0  # atno 11104 bound_to 11082
   13.0002   -3.2127   33.6716 H   0  0  0  0  0  0  0  0  0  0  0  0  # atno 11164 bound_to 11142
   15.2370   -2.8263   29.8710 H   0  0  0  0  0  0  0  0  0  0  0  0  # atno 11206 bound_to 11196
   14.8656   -1.5216   26.9210 H   0  0  0  0  0  0  0  0  0  0  0  0  # atno 11245 bound_to 11229
   14.8571    1.7484   27.3476 H   0  0  0  0  0  0  0  0  0  0  0  0  # atno 11284 bound_to 11266
   11.2986    5.8524   29.6769 H   0  0  0  0  0  0  0  0  0  0  0  0  # atno 11374 bound_to 11358
    9.4586    3.4225   28.8030 H   0  0  0  0  0  0  0  0  0  0  0  0  # atno 11434 bound_to 11416
   10.9202    2.0187   30.9151 H   0  0  0  0  0  0  0  0  0  0  0  0  # atno 11482 bound_to 11466
   13.3929    7.6594   33.9785 H   0  0  0  0  0  0  0  0  0  0  0  0  # atno 11559 bound_to 11538
    8.6629  -11.0616   38.3953 H   0  0  0  0  0  0  0  0  0  0  0  0  # atno 11995 bound_to 11973
   10.6223  -13.2791   38.6804 H   0  0  0  0  0  0  0  0  0  0  0  0  # atno 12067 bound_to 12045
   16.0536  -18.6061   37.1378 H   0  0  0  0  0  0  0  0  0  0  0  0  # atno 12157 bound_to 12142
   26.1889   16.1371   34.6815 H   0  0  0  0  0  0  0  0  0  0  0  0  # atno 15083 bound_to 15054
   26.6237   14.6507   35.2722 H   0  0  0  0  0  0  0  0  0  0  0  0  # atno 15084 bound_to 15054
   27.2324   15.1778   33.8236 H   0  0  0  0  0  0  0  0  0  0  0  0  # atno 15085 bound_to 15054
   31.2921   10.6522   30.9867 H   0  0  0  0  0  0  0  0  0  0  0  0  # atno 15194 bound_to 15161
   32.8004   11.2387   31.3463 H   0  0  0  0  0  0  0  0  0  0  0  0  # atno 15195 bound_to 15161
   31.6895   12.2119   30.5931 H   0  0  0  0  0  0  0  0  0  0  0  0  # atno 15196 bound_to 15161
   26.5510   11.7147   26.5034 H   0  0  0  0  0  0  0  0  0  0  0  0  # atno 15326 bound_to 15310
    7.9659  -12.3944   27.4976 H   0  0  0  0  0  0  0  0  0  0  0  0  # atno 15542 bound_to 15533
    9.0702  -15.2955   27.3170 H   0  0  0  0  0  0  0  0  0  0  0  0  # atno 15588 bound_to 15579
    9.0876  -18.3376   30.2815 H   0  0  0  0  0  0  0  0  0  0  0  0  # atno 15633 bound_to 15624
   11.4664  -14.6923   27.0375 LP  0  0  0  0  0  0  0  0  0  0  0  0  # atno 16458 bound_to 15536
   11.0396  -15.0460   28.6784 LP  0  0  0  0  0  0  0  0  0  0  0  0  # atno 16459 bound_to 15536
   15.7368  -13.0502   34.4810 LP  0  0  0  0  0  0  0  0  0  0  0  0  # atno 16460 bound_to 10947
   16.6700  -13.5278   35.7332 LP  0  0  0  0  0  0  0  0  0  0  0  0  # atno 16461 bound_to 10947
   14.6247  -10.4883   36.4839 LP  0  0  0  0  0  0  0  0  0  0  0  0  # atno 16466 bound_to 10707
   13.2139  -10.5605   37.3032 LP  0  0  0  0  0  0  0  0  0  0  0  0  # atno 16467 bound_to 10707
   20.6817  -12.6600   35.7856 LP  0  0  0  0  0  0  0  0  0  0  0  0  # atno 16468 bound_to 10881
   22.1747  -13.2862   36.4012 LP  0  0  0  0  0  0  0  0  0  0  0  0  # atno 16469 bound_to 10881
   22.3896   -7.7583   34.6655 LP  0  0  0  0  0  0  0  0  0  0  0  0  # atno 16470 bound_to 10910
   23.5638   -9.0255   34.5412 LP  0  0  0  0  0  0  0  0  0  0  0  0  # atno 16471 bound_to 10910
   20.7497   -9.9130   36.1092 LP  0  0  0  0  0  0  0  0  0  0  0  0  # atno 16472 bound_to 10936
   15.7171   -5.9823   35.1099 LP  0  0  0  0  0  0  0  0  0  0  0  0  # atno 16473 bound_to 10997
   16.2032   -7.5811   35.5657 LP  0  0  0  0  0  0  0  0  0  0  0  0  # atno 16474 bound_to 10997
   11.9806  -11.4464   36.9469 LP  0  0  0  0  0  0  0  0  0  0  0  0  # atno 16475 bound_to 11976
   12.1328  -11.6115   38.6643 LP  0  0  0  0  0  0  0  0  0  0  0  0  # atno 16476 bound_to 11976
   12.2435  -16.0671   36.4968 LP  0  0  0  0  0  0  0  0  0  0  0  0  # atno 16477 bound_to 12048
   12.2605  -17.0514   37.9219 LP  0  0  0  0  0  0  0  0  0  0  0  0  # atno 16478 bound_to 12048
   18.5043   -9.1030   37.3503 LP  0  0  0  0  0  0  0  0  0  0  0  0  # atno 16480 bound_to 10939
   18.7961   -7.7941   38.4464 LP  0  0  0  0  0  0  0  0  0  0  0  0  # atno 16481 bound_to 10939
   11.2359   -6.3137   36.7354 LP  0  0  0  0  0  0  0  0  0  0  0  0  # atno 16483 bound_to 11039
   12.2114   -7.2989   35.6973 LP  0  0  0  0  0  0  0  0  0  0  0  0  # atno 16484 bound_to 11039
   10.8417  -14.5278   37.4791 LP  0  0  0  0  0  0  0  0  0  0  0  0  # atno 16485 bound_to 12045
    9.0211  -11.5836   26.3644 LP  0  0  0  0  0  0  0  0  0  0  0  0  # atno 16490 bound_to 15533
    7.9796  -14.3251   28.2881 LP  0  0  0  0  0  0  0  0  0  0  0  0  # atno 16491 bound_to 15579
    8.3270  -18.4266   27.2757 LP  0  0  0  0  0  0  0  0  0  0  0  0  # atno 16492 bound_to 15582
    9.3753  -17.1309   26.8042 LP  0  0  0  0  0  0  0  0  0  0  0  0  # atno 16493 bound_to 15582
   10.0041  -17.4268   29.1011 LP  0  0  0  0  0  0  0  0  0  0  0  0  # atno 16494 bound_to 15624
   22.1952  -11.8333   38.0837 LP  0  0  0  0  0  0  0  0  0  0  0  0  # atno 16495 bound_to 10907
   25.7213  -10.0302   36.0159 LP  0  0  0  0  0  0  0  0  0  0  0  0  # atno 16496 bound_to 6104
   25.1056  -10.7152   37.4828 LP  0  0  0  0  0  0  0  0  0  0  0  0  # atno 16497 bound_to 6104
   27.8389  -12.5702   37.7665 LP  0  0  0  0  0  0  0  0  0  0  0  0  # atno 16498 bound_to 6129
   28.9696   -9.3914   34.1358 LP  0  0  0  0  0  0  0  0  0  0  0  0  # atno 16499 bound_to 5910
   30.1087   -8.7994   32.9729 LP  0  0  0  0  0  0  0  0  0  0  0  0  # atno 16500 bound_to 5910
   29.3928  -10.2619   36.0552 LP  0  0  0  0  0  0  0  0  0  0  0  0  # atno 16501 bound_to 6101
   29.4905   -9.4593   36.9604 LP  0  0  0  0  0  0  0  0  0  0  0  0  # atno 16502 bound_to 5850
   27.7962   -9.1025   37.0076 LP  0  0  0  0  0  0  0  0  0  0  0  0  # atno 16503 bound_to 5850
   28.8973   -5.8525   37.1355 LP  0  0  0  0  0  0  0  0  0  0  0  0  # atno 16504 bound_to 5907
   28.5579  -13.6180   36.3219 LP  0  0  0  0  0  0  0  0  0  0  0  0  # atno 16505 bound_to 6051
   30.2138  -14.1224   36.3797 LP  0  0  0  0  0  0  0  0  0  0  0  0  # atno 16506 bound_to 6051
   32.7925  -11.1790   33.5783 LP  0  0  0  0  0  0  0  0  0  0  0  0  # atno 16507 bound_to 5982
   31.8471  -12.1915   34.6181 LP  0  0  0  0  0  0  0  0  0  0  0  0  # atno 16508 bound_to 5982
   30.4460   -7.9754   34.8028 LP  0  0  0  0  0  0  0  0  0  0  0  0  # atno 16509 bound_to 5979
   32.2305  -10.4473   35.5869 LP  0  0  0  0  0  0  0  0  0  0  0  0  # atno 16510 bound_to 6048
   12.1478   -3.6071   30.1279 LP  0  0  0  0  0  0  0  0  0  0  0  0  # atno 16511 bound_to 11145
   13.1025   -4.8699   30.8306 LP  0  0  0  0  0  0  0  0  0  0  0  0  # atno 16512 bound_to 11145
   14.0312   -1.9395   30.7891 LP  0  0  0  0  0  0  0  0  0  0  0  0  # atno 16513 bound_to 11196
   15.7212   -0.5810   29.5511 LP  0  0  0  0  0  0  0  0  0  0  0  0  # atno 16514 bound_to 11199
   16.1585    0.3377   28.1493 LP  0  0  0  0  0  0  0  0  0  0  0  0  # atno 16515 bound_to 11199
   13.4721   -0.4580   26.9421 LP  0  0  0  0  0  0  0  0  0  0  0  0  # atno 16516 bound_to 11229
   13.7909   -4.7194   33.2942 LP  0  0  0  0  0  0  0  0  0  0  0  0  # atno 16525 bound_to 11142
   14.0040   -1.4616   34.8950 LP  0  0  0  0  0  0  0  0  0  0  0  0  # atno 16530 bound_to 11085
   15.3710   -2.5247   34.8620 LP  0  0  0  0  0  0  0  0  0  0  0  0  # atno 16531 bound_to 11085
   14.4425   -4.4981   36.5536 LP  0  0  0  0  0  0  0  0  0  0  0  0  # atno 16533 bound_to 11082
   16.1594    3.1396   25.4462 LP  0  0  0  0  0  0  0  0  0  0  0  0  # atno 16538 bound_to 11232
   16.8921    2.4282   26.8451 LP  0  0  0  0  0  0  0  0  0  0  0  0  # atno 16539 bound_to 11232
   13.4383    1.6192   26.3214 LP  0  0  0  0  0  0  0  0  0  0  0  0  # atno 16542 bound_to 11266
   15.3097    2.8858   36.1977 LP  0  0  0  0  0  0  0  0  0  0  0  0  # atno 16548 bound_to 9421
   12.2887    1.9775   28.7141 LP  0  0  0  0  0  0  0  0  0  0  0  0  # atno 16549 bound_to 11269
   12.0244    2.9955   30.0903 LP  0  0  0  0  0  0  0  0  0  0  0  0  # atno 16550 bound_to 11269
   10.2316    4.0447   32.2082 LP  0  0  0  0  0  0  0  0  0  0  0  0  # atno 16552 bound_to 11318
   11.8688    3.8135   32.7243 LP  0  0  0  0  0  0  0  0  0  0  0  0  # atno 16553 bound_to 11318
    9.8598    0.6252   30.8794 LP  0  0  0  0  0  0  0  0  0  0  0  0  # atno 16554 bound_to 11466
   11.2745    4.1982   30.2111 LP  0  0  0  0  0  0  0  0  0  0  0  0  # atno 16555 bound_to 11358
   13.0448    8.0285   35.5245 LP  0  0  0  0  0  0  0  0  0  0  0  0  # atno 16556 bound_to 11538
   12.4361    8.9333   34.3090 LP  0  0  0  0  0  0  0  0  0  0  0  0  # atno 16557 bound_to 11538
   17.5750    9.5998   38.6719 LP  0  0  0  0  0  0  0  0  0  0  0  0  # atno 16558 bound_to 9314
   17.2227    8.0992   37.8818 LP  0  0  0  0  0  0  0  0  0  0  0  0  # atno 16559 bound_to 9314
   18.4649    6.3465   40.5839 LP  0  0  0  0  0  0  0  0  0  0  0  0  # atno 16560 bound_to 9335
   15.4585    4.9546   39.3881 LP  0  0  0  0  0  0  0  0  0  0  0  0  # atno 16561 bound_to 9338
   16.8828    3.9981   39.6254 LP  0  0  0  0  0  0  0  0  0  0  0  0  # atno 16562 bound_to 9338
   20.4754    6.7090   38.5085 LP  0  0  0  0  0  0  0  0  0  0  0  0  # atno 16563 bound_to 9341
   21.3046    5.3744   38.0638 LP  0  0  0  0  0  0  0  0  0  0  0  0  # atno 16564 bound_to 9341
   13.4360    3.7270   38.3349 LP  0  0  0  0  0  0  0  0  0  0  0  0  # atno 16565 bound_to 9380
   13.4321    2.1633   37.5899 LP  0  0  0  0  0  0  0  0  0  0  0  0  # atno 16566 bound_to 9380
   16.5312    2.2808   39.0665 LP  0  0  0  0  0  0  0  0  0  0  0  0  # atno 16567 bound_to 9469
   30.1889   -4.7201   37.5175 LP  0  0  0  0  0  0  0  0  0  0  0  0  # atno 16570 bound_to 5709
   28.8695   -3.6418   37.2071 LP  0  0  0  0  0  0  0  0  0  0  0  0  # atno 16571 bound_to 5709
   26.6495    0.2338   41.1446 LP  0  0  0  0  0  0  0  0  0  0  0  0  # atno 16574 bound_to 7822
   28.8106    4.6579   42.2554 LP  0  0  0  0  0  0  0  0  0  0  0  0  # atno 16575 bound_to 7825
   29.6571    3.3034   41.5855 LP  0  0  0  0  0  0  0  0  0  0  0  0  # atno 16576 bound_to 7825
   29.6240   -2.5881   41.4531 LP  0  0  0  0  0  0  0  0  0  0  0  0  # atno 16579 bound_to 5706
   31.8800   -2.1545   39.1375 LP  0  0  0  0  0  0  0  0  0  0  0  0  # atno 16580 bound_to 5761
   33.9320   -1.1416   36.7418 LP  0  0  0  0  0  0  0  0  0  0  0  0  # atno 16581 bound_to 5766
   33.8305   -2.4361   35.7516 LP  0  0  0  0  0  0  0  0  0  0  0  0  # atno 16582 bound_to 5766
   28.6360    0.7826   42.1568 LP  0  0  0  0  0  0  0  0  0  0  0  0  # atno 16583 bound_to 7781
   28.1409   -0.4301   43.2901 LP  0  0  0  0  0  0  0  0  0  0  0  0  # atno 16584 bound_to 7781
   27.7651    2.5937   42.5616 LP  0  0  0  0  0  0  0  0  0  0  0  0  # atno 16585 bound_to 7866
   14.2820   -0.7692   38.5408 LP  0  0  0  0  0  0  0  0  0  0  0  0  # atno 16593 bound_to 9424
   14.9762   -0.4956   40.1039 LP  0  0  0  0  0  0  0  0  0  0  0  0  # atno 16594 bound_to 9424
   20.7794   -2.5835   42.4279 LP  0  0  0  0  0  0  0  0  0  0  0  0  # atno 16595 bound_to 9480
   21.3179   -2.3130   40.9102 LP  0  0  0  0  0  0  0  0  0  0  0  0  # atno 16596 bound_to 9480
   20.2998    3.3770   43.2657 LP  0  0  0  0  0  0  0  0  0  0  0  0  # atno 16597 bound_to 7659
   19.5356    1.9102   43.7801 LP  0  0  0  0  0  0  0  0  0  0  0  0  # atno 16598 bound_to 7659
   24.6900    1.4968   44.8151 LP  0  0  0  0  0  0  0  0  0  0  0  0  # atno 16599 bound_to 7717
   25.5803    1.8083   43.3624 LP  0  0  0  0  0  0  0  0  0  0  0  0  # atno 16600 bound_to 7717
   21.3702    1.8614   44.8255 LP  0  0  0  0  0  0  0  0  0  0  0  0  # atno 16601 bound_to 7714
   18.3267   -6.0806   42.5110 LP  0  0  0  0  0  0  0  0  0  0  0  0  # atno 16602 bound_to 10532
   18.3201   -4.7196   41.4397 LP  0  0  0  0  0  0  0  0  0  0  0  0  # atno 16603 bound_to 10532
   16.2223   10.1034   41.3568 LP  0  0  0  0  0  0  0  0  0  0  0  0  # atno 16604 bound_to 9311
   27.3542   11.4251   25.1178 LP  0  0  0  0  0  0  0  0  0  0  0  0  # atno 16607 bound_to 15310
   27.9223   10.8387   26.5320 LP  0  0  0  0  0  0  0  0  0  0  0  0  # atno 16608 bound_to 15310
   18.3521    8.9415   44.9602 LP  0  0  0  0  0  0  0  0  0  0  0  0  # atno 16611 bound_to 7554
   17.4909    7.4871   44.5819 LP  0  0  0  0  0  0  0  0  0  0  0  0  # atno 16612 bound_to 7554
   21.7841    4.8849   43.6547 LP  0  0  0  0  0  0  0  0  0  0  0  0  # atno 16613 bound_to 7623
   22.8191    5.0136   45.0376 LP  0  0  0  0  0  0  0  0  0  0  0  0  # atno 16614 bound_to 7623
   13.4080   11.0991   41.7053 LP  0  0  0  0  0  0  0  0  0  0  0  0  # atno 16615 bound_to 9280
   14.5411    8.9585   41.9424 LP  0  0  0  0  0  0  0  0  0  0  0  0  # atno 16616 bound_to 9283
   15.7753    9.0377   43.1550 LP  0  0  0  0  0  0  0  0  0  0  0  0  # atno 16617 bound_to 9283
   14.4001   13.6665   39.7724 LP  0  0  0  0  0  0  0  0  0  0  0  0  # atno 16618 bound_to 9228
   14.2545   14.6771   41.1715 LP  0  0  0  0  0  0  0  0  0  0  0  0  # atno 16619 bound_to 9228
   18.4338    6.8999   46.3754 LP  0  0  0  0  0  0  0  0  0  0  0  0  # atno 16620 bound_to 7620
   11.2587   14.9349   41.8360 LP  0  0  0  0  0  0  0  0  0  0  0  0  # atno 16628 bound_to 9225
   14.1059    2.3384   41.4324 LP  0  0  0  0  0  0  0  0  0  0  0  0  # atno 16635 bound_to 9528
   22.8897   20.5789   37.1321 LP  0  0  0  0  0  0  0  0  0  0  0  0  # atno 16636 bound_to 3357
   24.4060   19.7453   37.2100 LP  0  0  0  0  0  0  0  0  0  0  0  0  # atno 16637 bound_to 3357
   21.5526   21.7705   40.4189 LP  0  0  0  0  0  0  0  0  0  0  0  0  # atno 16638 bound_to 3415
   22.3179   20.2495   40.1015 LP  0  0  0  0  0  0  0  0  0  0  0  0  # atno 16639 bound_to 3415
   24.3656   21.9661   36.9535 LP  0  0  0  0  0  0  0  0  0  0  0  0  # atno 16640 bound_to 3412
   25.1711   22.4143   39.8615 LP  0  0  0  0  0  0  0  0  0  0  0  0  # atno 16641 bound_to 3478
    8.2492   15.1999   43.6458 LP  0  0  0  0  0  0  0  0  0  0  0  0  # atno 16646 bound_to 9102
    9.2266   13.7700   43.6367 LP  0  0  0  0  0  0  0  0  0  0  0  0  # atno 16647 bound_to 9102
    9.6382   15.3988   45.3362 LP  0  0  0  0  0  0  0  0  0  0  0  0  # atno 16648 bound_to 9168
   14.8652   16.9216   48.1377 LP  0  0  0  0  0  0  0  0  0  0  0  0  # atno 16649 bound_to 9178
   14.9858   17.6437   46.6780 LP  0  0  0  0  0  0  0  0  0  0  0  0  # atno 16650 bound_to 9178
   10.3376   23.7770   35.4400 LP  0  0  0  0  0  0  0  0  0  0  0  0  # atno 16654 bound_to 6255
   10.8534   24.3725   36.8703 LP  0  0  0  0  0  0  0  0  0  0  0  0  # atno 16655 bound_to 6255
   13.1747   18.5485   48.4947 LP  0  0  0  0  0  0  0  0  0  0  0  0  # atno 16656 bound_to 9176
   11.6700   18.3568   47.8901 LP  0  0  0  0  0  0  0  0  0  0  0  0  # atno 16657 bound_to 9176

> <Gold.Score>
     Fitness  S(hb_ext) S(vdw_ext)  S(hb_int)    S(int)      intcor
     32.51       6.03      19.88       0.00      -0.86      -0.77

> <Gold.Goldscore.Fitness>
32.5068

> <Gold.Goldscore.Internal.Vdw>
-1.0052

> <Gold.Goldscore.Internal.Torsion>
-0.6195

> <Gold.Goldscore.External.Vdw>
19.8822

> <Gold.Goldscore.Internal.HBond>
0.0000

> <Gold.Goldscore.External.HBond>
6.0282

> <Gold.Goldscore.Internal.Correction>
-0.7653

> <Gold.Goldscore.Hbonds>
donor molecule, donor type, donor heavy atom, donor atom, acceptor molecule, acceptor atom, score
      P1  H  5975  6022       L1    11  0.96
      P1  H  5795  5829       L1    11  0.13

> <Gold.Goldscore.Internal.Vdw.Weighted>
-1.0052

> <Gold.Goldscore.Internal.Torsion.Weighted>
-0.6195

> <Gold.Goldscore.External.Vdw.Weighted>
27.3380

> <Gold.Goldscore.Internal.HBond.Weighted>
0.0000

> <Gold.Goldscore.External.HBond.Weighted>
6.0282

> <Gold.Goldscore.Internal.Correction.Weighted>
-0.7653

> <Gold.Rescore>
     Score     S(PLP)   S(hbond)     S(cho)   S(metal)  DE(clash)   DE(tors)     intcor
     37.31     -32.37       2.41       0.00       0.00       0.00       1.14       ----

> <Gold.PLP.Fitness>
37.3093

> <Gold.PLP.PLP>
-32.3704

> <Gold.PLP.part.hbond>
-3.0000

> <Gold.PLP.part.metal>
0.0000

> <Gold.PLP.part.buried>
-2.2951

> <Gold.PLP.part.nonpolar>
-27.2017

> <Gold.PLP.part.repulsive>
0.1019

> <Gold.PLP.ligand.clash>
0.0000

> <Gold.PLP.ligand.torsion>
1.1405

> <Gold.PLP.Chemscore.Hbond>
2.4066

> <Gold.PLP.Chemscore.CHOScore>
0.0000

> <Gold.PLP.Chemscore.Metal>
0.0000

> <Gold.Chemscore.Hbonds>
donor molecule, donor type, donor heavy atom, donor atom, acceptor molecule, acceptor atom, score
      P1  H  5975  6022       L1    11  1.00
      P1  H  5795  5829       L1    11  0.06

> <Gold.PLP.Chemscore.Internal.Correction>
   9.000000E+99

