#       Name:                CT1002167954
#       Creating user name   hitesit
#       Creation time:       Sun Apr 16 22:54:16 2023


#       File generated by GOLD software.
#

@<TRIPOS>MOLECULE
CT1002167954|ligand_prepared|mol2|1|dock4
    29    30     1
SMALL
NO_CHARGES


@<TRIPOS>ATOM
      1 C1          19.3235  11.4198  37.2656 C.3            1 RES1               0.0000
      2 C2          17.8533  11.2065  36.8509 C.ar           1 RES1               0.0000
      3 C3          19.3673  11.2653  38.7830 C.2            1 RES1               0.0000
      4 C4          20.1359  10.3739  36.5101 C.2            1 RES1               0.0000
      5 C5          19.8804  12.8147  36.8976 C.3            1 RES1               0.0000
      6 C6          16.8858  12.1593  37.1555 C.ar           1 RES1               0.0000
      7 C7          17.4507  10.0654  36.1622 C.ar           1 RES1               0.0000
      8 N8          19.9173  10.1233  39.2862 N.am           1 RES1               0.0000
      9 O9          18.8908  12.1147  39.5258 O.2            1 RES1               0.0000
     10 N10         20.7621   9.3974  37.2395 N.am           1 RES1               0.0000
     11 O11         20.2257  10.3770  35.2885 O.2            1 RES1               0.0000
     12 C12         21.3791  12.9532  37.1141 C.3            1 RES1               0.0000
     13 C13         15.5641  11.9793  36.7825 C.ar           1 RES1               0.0000
     14 C14         16.1284   9.8873  35.7904 C.ar           1 RES1               0.0000
     15 C15         20.6644   9.2067  38.5909 C.2            1 RES1               0.0000
     16 C16         15.1846  10.8436  36.0994 C.ar           1 RES1               0.0000
     17 O17         21.2134   8.2726  39.1680 O.2            1 RES1               0.0000
     18 H18         19.6557  13.0177  35.8432 H              1 RES1               0.0000
     19 H19         19.3650  13.5714  37.5019 H              1 RES1               0.0000
     20 H20         17.1653  13.0583  37.6947 H              1 RES1               0.0000
     21 H21         18.1757   9.2992  35.9094 H              1 RES1               0.0000
     22 H22         19.7584   9.9332  40.2706 H              1 RES1               0.0000
     23 H23         21.3562   8.7529  36.7276 H              1 RES1               0.0000
     24 H24         21.7179  13.9503  36.8407 H              1 RES1               0.0000
     25 H25         21.6355  12.7825  38.1576 H              1 RES1               0.0000
     26 H26         21.9245  12.2321  36.5088 H              1 RES1               0.0000
     27 H27         14.8250  12.7343  37.0293 H              1 RES1               0.0000
     28 H28         15.8341   8.9915  35.2534 H              1 RES1               0.0000
     29 H29         14.1493  10.7030  35.8070 H              1 RES1               0.0000
@<TRIPOS>BOND
    1    1    2 1     
    2    1    3 1     
    3    1    4 1     
    4    1    5 1     
    5    2    6 ar    
    6    2    7 ar    
    7    3    8 1     
    8    3    9 2     
    9    4   10 1     
   10    4   11 2     
   11    5   12 1     
   12    5   18 1     
   13    5   19 1     
   14    6   13 ar    
   15    6   20 1     
   16    7   14 ar    
   17    7   21 1     
   18    8   15 1     
   19    8   22 1     
   20   10   15 1     
   21   10   23 1     
   22   12   24 1     
   23   12   25 1     
   24   12   26 1     
   25   13   16 ar    
   26   13   27 1     
   27   14   16 ar    
   28   14   28 1     
   29   15   17 2     
   30   16   29 1     
@<TRIPOS>SUBSTRUCTURE
      1 RES1           1
@<TRIPOS>SET
DONOR_HYDROGENS      STATIC     ATOMS    <user>   **** ""
2 22 23
ATOM$RED        STATIC     ATOMS    COLORGROUP SYSTEM
2 22 23
@<TRIPOS>COMMENT
> <Gold.Version>
2022.3.0

> <Gold.Id.Protein>
unknown|3mvj_clean|pdb

> <Gold.Protein.RotatedTorsions>
[ 10968 10947 10946 10944 ] final -104.21 input   60.01 | X-H torsion
[ 10728 10707 10706 10704 ] final -177.09 input   59.96 | X-H torsion
[ 10960 10936 10937 10938 ] final   68.81 input   23.31 | X-H torsion
[ 12067 12045 12046 12047 ] final    0.94 input   63.71 | X-H torsion
[ 15542 15533 15534 15535 ] final  138.76 input   83.29 | X-H torsion
[ 15588 15579 15580 15581 ] final   37.99 input  107.67 | X-H torsion
[ 15633 15624 15625 15626 ] final -101.58 input   84.82 | X-H torsion
[ 10915 10907 10908 10909 ] final  -60.13 input  -87.38 | X-H torsion
[ 6151 6129 6130 6131 ] final    4.55 input   27.76 | X-H torsion
[ 6109 6101 6102 6103 ] final   41.67 input  -93.79 | X-H torsion
[ 5929 5907 5908 5909 ] final -171.08 input  119.25 | X-H torsion
[ 6001 5979 5980 5981 ] final -106.33 input  112.51 | X-H torsion
[ 6064 6048 6049 6050 ] final   99.02 input  108.26 | X-H torsion
[ 11206 11196 11197 11198 ] final  106.80 input   -0.63 | X-H torsion
[ 11245 11229 11230 11231 ] final  102.82 input  120.69 | X-H torsion
[ 11164 11142 11143 11144 ] final   75.20 input   33.88 | X-H torsion
[ 11104 11082 11083 11084 ] final -103.63 input   45.00 | X-H torsion
[ 11284 11266 11267 11268 ] final   23.38 input   49.58 | X-H torsion
[ 9439 9421 9422 9423 ] final   47.91 input  116.39 | X-H torsion
[ 11482 11466 11467 11468 ] final   57.63 input  126.08 | X-H torsion
[ 11374 11358 11359 11360 ] final    8.61 input   98.08 | X-H torsion
[ 11559 11538 11537 11535 ] final   89.16 input   60.01 | X-H torsion
[ 9349 9335 9336 9337 ] final   29.75 input   84.14 | X-H torsion
[ 9355 9341 9339 9336 ] final   -0.30 input   60.02 | X-H torsion
[ 9493 9469 9470 9471 ] final  -31.14 input   75.21 | X-H torsion
[ 7840 7822 7823 7824 ] final  107.79 input  121.36 | X-H torsion
[ 7742 7722 7721 7720 ] final  130.84 input   60.01 | X-H torsion
[ 5728 5706 5707 5708 ] final   70.05 input  119.20 | X-H torsion
[ 5773 5761 5762 5763 ] final  105.23 input  120.20 | X-H torsion
[ 5777 5766 5765 5762 ] final  167.33 input   59.99 | X-H torsion
[ 7882 7866 7867 7868 ] final  -33.70 input   81.17 | X-H torsion
[ 9501 9480 9479 9477 ] final   45.06 input   60.03 | X-H torsion
[ 7732 7714 7715 7716 ] final   44.65 input  -10.67 | X-H torsion
[ 15083 15054 15053 15052 ] final   -5.64 input   60.01 | X-H torsion
[ 9319 9311 9312 9313 ] final  -23.39 input  -66.31 | X-H torsion
[ 15194 15161 15160 15159 ] final   13.93 input   59.99 | X-H torsion
[ 15326 15310 15309 15306 ] final -139.36 input   59.99 | X-H torsion
[ 9292 9280 9281 9282 ] final  162.34 input   22.77 | X-H torsion
[ 7636 7620 7621 7622 ] final -141.41 input   34.37 | X-H torsion
[ 9241 9225 9226 9227 ] final   20.48 input   96.07 | X-H torsion
[ 9544 9528 9529 9530 ] final -132.06 input   99.68 | X-H torsion
[ 3443 3412 3413 3414 ] final -173.78 input -120.58 | X-H torsion
[ 3504 3478 3479 3480 ] final    7.61 input   70.69 | X-H torsion
[ 9190 9168 9169 9170 ] final   13.24 input  115.65 | X-H torsion
[ 9198 9178 9175 9174 ] final -177.50 input   59.98 | X-H torsion
[ 6282 6255 6254 6251 ] final   10.93 input   60.00 | X-H torsion
[ 9196 9176 9175 9174 ] final   61.30 input   60.01 | X-H torsion
[ 12157 12142 12143 12144 ] final  109.98 input  108.55 | X-H torsion
[ 11995 11973 11974 11975 ] final   85.24 input   68.31 | X-H torsion
[ 11434 11416 11417 11418 ] final  -11.50 input  102.35 | X-H torsion
[ 5626 5608 5609 5610 ] final -149.47 input  119.09 | X-H torsion
[ 10774 10756 10757 10758 ] final  147.43 input  129.22 | X-H torsion
[ 10816 10800 10801 10802 ] final  151.33 input  128.85 | X-H torsion
[ 8641 8619 8620 8621 ] final  116.84 input   87.35 | X-H torsion
[ 3659 3632 3633 3634 ] final  148.91 input  116.97 | X-H torsion
[ 10029 10008 10007 10005 ] final   40.21 input   60.01 | X-H torsion
[ 16458 15536 15535 15534 ] final  -39.48 input    0.00 | X-H torsion
[ 16468 10881 10880 10879 ] final   77.43 input    0.00 | X-H torsion
[ 16470 10910 10909 10908 ] final -152.02 input    0.00 | X-H torsion
[ 16473 10997 10996 10995 ] final  134.80 input    0.00 | X-H torsion
[ 16475 11976 11975 11974 ] final   44.91 input    0.00 | X-H torsion
[ 16477 12048 12047 12046 ] final  -83.13 input    0.00 | X-H torsion
[ 16480 10939 10938 10937 ] final  136.07 input   -0.00 | X-H torsion
[ 16483 11039 11038 11037 ] final -131.15 input    0.00 | X-H torsion
[ 16492 15582 15581 15580 ] final -124.15 input    0.00 | X-H torsion
[ 16496 6104 6103 6102 ] final   34.74 input    0.00 | X-H torsion
[ 16499 5910 5909 5908 ] final  145.44 input   -0.00 | X-H torsion
[ 16502 5850 5849 5848 ] final   90.35 input    0.00 | X-H torsion
[ 16505 6051 6050 6049 ] final  178.21 input    0.00 | X-H torsion
[ 16507 5982 5981 5980 ] final  -21.52 input    0.00 | X-H torsion
[ 16511 11145 11144 11143 ] final  -69.20 input    0.00 | X-H torsion
[ 16514 11199 11198 11197 ] final  -10.18 input    0.00 | X-H torsion
[ 16530 11085 11084 11083 ] final  163.57 input   -0.00 | X-H torsion
[ 16538 11232 11231 11230 ] final  -29.97 input    0.00 | X-H torsion
[ 16549 11269 11268 11267 ] final -138.32 input   -0.00 | X-H torsion
[ 16552 11318 11317 11316 ] final -138.39 input    0.00 | X-H torsion
[ 16558 9314 9313 9312 ] final  -27.28 input    0.00 | X-H torsion
[ 16561 9338 9337 9336 ] final   78.14 input    0.00 | X-H torsion
[ 16565 9380 9379 9378 ] final   18.98 input    0.00 | X-H torsion
[ 16570 5709 5708 5707 ] final  -85.07 input    0.00 | X-H torsion
[ 16575 7825 7824 7823 ] final  -58.39 input    0.00 | X-H torsion
[ 16583 7781 7780 7779 ] final  135.62 input   -0.00 | X-H torsion
[ 16593 9424 9423 9422 ] final   -8.07 input   -0.00 | X-H torsion
[ 16597 7659 7658 7657 ] final -176.72 input   -0.00 | X-H torsion
[ 16599 7717 7716 7715 ] final   32.87 input    0.00 | X-H torsion
[ 16602 10532 10531 10530 ] final -134.55 input    0.00 | X-H torsion
[ 16611 7554 7553 7552 ] final  -31.88 input    0.00 | X-H torsion
[ 16613 7623 7622 7621 ] final -169.76 input   -0.00 | X-H torsion
[ 16616 9283 9282 9281 ] final -159.93 input    0.00 | X-H torsion
[ 16618 9228 9227 9226 ] final   24.26 input   -0.00 | X-H torsion
[ 16636 3357 3356 3355 ] final  115.66 input   -0.00 | X-H torsion
[ 16638 3415 3414 3413 ] final -174.02 input   -0.00 | X-H torsion
[ 16646 9102 9101 9100 ] final   -2.40 input    0.00 | X-H torsion

> <Gold.Protein.ActiveResidues>
 ARG45   SER53   PHE54   LEU82   LYS83   GLN84   GLU86   HIS87   GLU127  PHE129 
 SER130  HIS131  LEU132  ARG133  ARG134  ILE135  GLY136  ARG137  PHE138  SER139 
 HIS142  ARG165  ASP166  LEU167  LYS168  PRO169  GLU170  ASN171  ASP184  GLY186 
 PHE187  TRP196  TPO197  LEU198  CYS199  GLY200  THR201  PRO202  GLU203  TYR204 
 LEU205  ILE209  ILE210  TYR215  VAL226  LEU227  TYR229  GLU230  MET231  ALA233 
 GLY234  TYR235  PRO236  PRO237  PHE238  PHE239  ALA240  ASP241  GLN242  PRO243 
 ILE244  GLN245  ILE246  TYR247  LYS249  ARG256  PHE257  PRO258  SER259  HIS260 
 PRO313  PHE314  ILE315  LYS317  LYS319  SER325  ASN326  ASP328  ASP329  GLU331 
 GLU332  GLU333  GLU334 

> <Gold.Protein.RotatedAtoms>
   24.3268   23.4786   36.7775 H   0  0  0  0  0  0  0  0  0  0  0  0  # atno 3443 bound_to 3412
   24.7468   22.6358   40.2016 H   0  0  0  0  0  0  0  0  0  0  0  0  # atno 3504 bound_to 3478
   22.6829   19.8131   44.7530 H   0  0  0  0  0  0  0  0  0  0  0  0  # atno 3659 bound_to 3632
   35.8323   -0.3593   42.7905 H   0  0  0  0  0  0  0  0  0  0  0  0  # atno 5626 bound_to 5608
   30.9107   -1.6290   40.7792 H   0  0  0  0  0  0  0  0  0  0  0  0  # atno 5728 bound_to 5706
   31.9090   -2.1823   39.1626 H   0  0  0  0  0  0  0  0  0  0  0  0  # atno 5773 bound_to 5761
   35.0982   -1.5775   36.7734 H   0  0  0  0  0  0  0  0  0  0  0  0  # atno 5777 bound_to 5766
   28.5527   -6.1186   37.1931 H   0  0  0  0  0  0  0  0  0  0  0  0  # atno 5929 bound_to 5907
   30.7278   -7.5784   34.4861 H   0  0  0  0  0  0  0  0  0  0  0  0  # atno 6001 bound_to 5979
   31.5820   -9.6749   37.0089 H   0  0  0  0  0  0  0  0  0  0  0  0  # atno 6064 bound_to 6048
   29.4976  -11.6109   36.8340 H   0  0  0  0  0  0  0  0  0  0  0  0  # atno 6109 bound_to 6101
   27.7422  -12.9460   37.7064 H   0  0  0  0  0  0  0  0  0  0  0  0  # atno 6151 bound_to 6129
    9.7091   24.3225   35.3859 H   0  0  0  0  0  0  0  0  0  0  0  0  # atno 6282 bound_to 6255
   18.5487    7.3256   46.4141 H   0  0  0  0  0  0  0  0  0  0  0  0  # atno 7636 bound_to 7620
   22.9582    2.4798   44.7458 H   0  0  0  0  0  0  0  0  0  0  0  0  # atno 7732 bound_to 7714
   23.4540    6.6248   41.4985 H   0  0  0  0  0  0  0  0  0  0  0  0  # atno 7742 bound_to 7722
   22.2287    6.7757   40.3931 H   0  0  0  0  0  0  0  0  0  0  0  0  # atno 7743 bound_to 7722
   22.0752    5.7191   41.6611 H   0  0  0  0  0  0  0  0  0  0  0  0  # atno 7744 bound_to 7722
   25.4011    1.2870   41.0348 H   0  0  0  0  0  0  0  0  0  0  0  0  # atno 7840 bound_to 7822
   27.6743    2.2603   42.8263 H   0  0  0  0  0  0  0  0  0  0  0  0  # atno 7882 bound_to 7866
   22.6638   12.4346   46.3088 H   0  0  0  0  0  0  0  0  0  0  0  0  # atno 8641 bound_to 8619
   10.3459   14.2679   45.7726 H   0  0  0  0  0  0  0  0  0  0  0  0  # atno 9190 bound_to 9168
   11.6700   18.4981   47.5378 H   0  0  0  0  0  0  0  0  0  0  0  0  # atno 9196 bound_to 9176
   14.8574   16.8397   48.1322 H   0  0  0  0  0  0  0  0  0  0  0  0  # atno 9198 bound_to 9178
   12.3857   14.8526   42.3202 H   0  0  0  0  0  0  0  0  0  0  0  0  # atno 9241 bound_to 9225
   13.6837   12.7683   42.0308 H   0  0  0  0  0  0  0  0  0  0  0  0  # atno 9292 bound_to 9280
   17.0955   10.4585   40.0959 H   0  0  0  0  0  0  0  0  0  0  0  0  # atno 9319 bound_to 9311
   17.4590    6.3741   40.4322 H   0  0  0  0  0  0  0  0  0  0  0  0  # atno 9349 bound_to 9335
   20.4576    6.7203   38.6573 H   0  0  0  0  0  0  0  0  0  0  0  0  # atno 9355 bound_to 9341
   16.5213    2.9878   37.4456 H   0  0  0  0  0  0  0  0  0  0  0  0  # atno 9439 bound_to 9421
   14.8948    1.9343   39.0490 H   0  0  0  0  0  0  0  0  0  0  0  0  # atno 9493 bound_to 9469
   21.3729   -2.2634   41.0292 H   0  0  0  0  0  0  0  0  0  0  0  0  # atno 9501 bound_to 9480
   14.7702    3.2630   41.2526 H   0  0  0  0  0  0  0  0  0  0  0  0  # atno 9544 bound_to 9528
   12.3985   12.5023   45.9025 H   0  0  0  0  0  0  0  0  0  0  0  0  # atno 10029 bound_to 10008
   13.2736  -11.1006   37.5795 H   0  0  0  0  0  0  0  0  0  0  0  0  # atno 10728 bound_to 10707
   18.4889   -6.8324   41.1816 H   0  0  0  0  0  0  0  0  0  0  0  0  # atno 10774 bound_to 10756
   21.7150   -7.0705   42.3207 H   0  0  0  0  0  0  0  0  0  0  0  0  # atno 10816 bound_to 10800
   21.6534  -10.3134   38.4402 H   0  0  0  0  0  0  0  0  0  0  0  0  # atno 10915 bound_to 10907
   20.5330   -9.8438   36.4594 H   0  0  0  0  0  0  0  0  0  0  0  0  # atno 10960 bound_to 10936
   16.8849  -13.6765   35.6407 H   0  0  0  0  0  0  0  0  0  0  0  0  # atno 10968 bound_to 10947
   13.5418   -5.7259   36.3112 H   0  0  0  0  0  0  0  0  0  0  0  0  # atno 11104 bound_to 11082
   13.6284   -4.7480   33.1599 H   0  0  0  0  0  0  0  0  0  0  0  0  # atno 11164 bound_to 11142
   13.9983   -1.8747   30.7662 H   0  0  0  0  0  0  0  0  0  0  0  0  # atno 11206 bound_to 11196
   13.5004   -0.9555   26.3207 H   0  0  0  0  0  0  0  0  0  0  0  0  # atno 11245 bound_to 11229
   13.5853    1.4029   27.4826 H   0  0  0  0  0  0  0  0  0  0  0  0  # atno 11284 bound_to 11266
   11.1962    4.1953   29.7229 H   0  0  0  0  0  0  0  0  0  0  0  0  # atno 11374 bound_to 11358
    9.7753    3.2235   30.5247 H   0  0  0  0  0  0  0  0  0  0  0  0  # atno 11434 bound_to 11416
   10.3239    2.1647   31.1419 H   0  0  0  0  0  0  0  0  0  0  0  0  # atno 11482 bound_to 11466
   13.3079    7.7834   33.8436 H   0  0  0  0  0  0  0  0  0  0  0  0  # atno 11559 bound_to 11538
    9.5268  -10.4615   36.9476 H   0  0  0  0  0  0  0  0  0  0  0  0  # atno 11995 bound_to 11973
   10.8600  -14.5163   37.4457 H   0  0  0  0  0  0  0  0  0  0  0  0  # atno 12067 bound_to 12045
   15.4182  -18.7942   36.3396 H   0  0  0  0  0  0  0  0  0  0  0  0  # atno 12157 bound_to 12142
   27.2009   15.2771   33.7897 H   0  0  0  0  0  0  0  0  0  0  0  0  # atno 15083 bound_to 15054
   26.1510   16.0969   34.7762 H   0  0  0  0  0  0  0  0  0  0  0  0  # atno 15084 bound_to 15054
   26.6933   14.5921   35.2105 H   0  0  0  0  0  0  0  0  0  0  0  0  # atno 15085 bound_to 15054
   31.1463   11.7299   30.5580 H   0  0  0  0  0  0  0  0  0  0  0  0  # atno 15194 bound_to 15161
   31.9269   10.4634   31.2894 H   0  0  0  0  0  0  0  0  0  0  0  0  # atno 15195 bound_to 15161
   32.7090   11.9100   31.0786 H   0  0  0  0  0  0  0  0  0  0  0  0  # atno 15196 bound_to 15161
   28.0241   10.8124   26.2750 H   0  0  0  0  0  0  0  0  0  0  0  0  # atno 15326 bound_to 15310
    8.9324  -11.5876   26.2625 H   0  0  0  0  0  0  0  0  0  0  0  0  # atno 15542 bound_to 15533
    8.1544  -15.4604   27.3263 H   0  0  0  0  0  0  0  0  0  0  0  0  # atno 15588 bound_to 15579
    9.4090  -17.6311   28.8389 H   0  0  0  0  0  0  0  0  0  0  0  0  # atno 15633 bound_to 15624
   11.4357  -14.9218   27.0131 LP  0  0  0  0  0  0  0  0  0  0  0  0  # atno 16458 bound_to 15536
   11.0703  -14.8165   28.7029 LP  0  0  0  0  0  0  0  0  0  0  0  0  # atno 16459 bound_to 15536
   16.8842  -13.8583   34.0238 LP  0  0  0  0  0  0  0  0  0  0  0  0  # atno 16460 bound_to 10947
   15.7029  -12.9978   34.7522 LP  0  0  0  0  0  0  0  0  0  0  0  0  # atno 16461 bound_to 10947
   14.7324  -11.5866   37.0468 LP  0  0  0  0  0  0  0  0  0  0  0  0  # atno 16466 bound_to 10707
   14.1227  -10.1491   36.5687 LP  0  0  0  0  0  0  0  0  0  0  0  0  # atno 16467 bound_to 10707
   20.7171  -12.6121   35.7559 LP  0  0  0  0  0  0  0  0  0  0  0  0  # atno 16468 bound_to 10881
   22.1394  -13.3341   36.4309 LP  0  0  0  0  0  0  0  0  0  0  0  0  # atno 16469 bound_to 10881
   22.4853   -7.6969   34.7626 LP  0  0  0  0  0  0  0  0  0  0  0  0  # atno 16470 bound_to 10910
   23.4682   -9.0870   34.4441 LP  0  0  0  0  0  0  0  0  0  0  0  0  # atno 16471 bound_to 10910
   21.9264   -8.7946   36.5388 LP  0  0  0  0  0  0  0  0  0  0  0  0  # atno 16472 bound_to 10936
   15.5509   -7.4658   35.6761 LP  0  0  0  0  0  0  0  0  0  0  0  0  # atno 16473 bound_to 10997
   16.3695   -6.0976   34.9995 LP  0  0  0  0  0  0  0  0  0  0  0  0  # atno 16474 bound_to 10997
   11.4408  -10.9876   38.0842 LP  0  0  0  0  0  0  0  0  0  0  0  0  # atno 16475 bound_to 11976
   12.6726  -12.0702   37.5270 LP  0  0  0  0  0  0  0  0  0  0  0  0  # atno 16476 bound_to 11976
   12.2048  -17.0207   37.9407 LP  0  0  0  0  0  0  0  0  0  0  0  0  # atno 16477 bound_to 12048
   12.2992  -16.0978   36.4781 LP  0  0  0  0  0  0  0  0  0  0  0  0  # atno 16478 bound_to 12048
   18.6748   -7.7603   38.4234 LP  0  0  0  0  0  0  0  0  0  0  0  0  # atno 16480 bound_to 10939
   18.6255   -9.1368   37.3733 LP  0  0  0  0  0  0  0  0  0  0  0  0  # atno 16481 bound_to 10939
   11.9355   -6.6352   35.3942 LP  0  0  0  0  0  0  0  0  0  0  0  0  # atno 16483 bound_to 11039
   11.5119   -6.9773   37.0385 LP  0  0  0  0  0  0  0  0  0  0  0  0  # atno 16484 bound_to 11039
   10.6088  -13.3156   38.6889 LP  0  0  0  0  0  0  0  0  0  0  0  0  # atno 16485 bound_to 12045
    8.0775  -12.3713   27.5703 LP  0  0  0  0  0  0  0  0  0  0  0  0  # atno 16490 bound_to 15533
    8.8570  -14.1671   28.2792 LP  0  0  0  0  0  0  0  0  0  0  0  0  # atno 16491 bound_to 15579
    8.4138  -18.4892   27.2723 LP  0  0  0  0  0  0  0  0  0  0  0  0  # atno 16492 bound_to 15582
    9.2886  -17.0683   26.8076 LP  0  0  0  0  0  0  0  0  0  0  0  0  # atno 16493 bound_to 15582
    9.6929  -18.1107   30.4978 LP  0  0  0  0  0  0  0  0  0  0  0  0  # atno 16494 bound_to 15624
   21.7837  -11.8928   37.6957 LP  0  0  0  0  0  0  0  0  0  0  0  0  # atno 16495 bound_to 10907
   25.3737  -10.4216   35.8857 LP  0  0  0  0  0  0  0  0  0  0  0  0  # atno 16496 bound_to 6104
   25.4532  -10.3238   37.6131 LP  0  0  0  0  0  0  0  0  0  0  0  0  # atno 16497 bound_to 6104
   26.5366  -12.0070   36.8596 LP  0  0  0  0  0  0  0  0  0  0  0  0  # atno 16498 bound_to 6129
   30.3113   -9.0918   33.1623 LP  0  0  0  0  0  0  0  0  0  0  0  0  # atno 16499 bound_to 5910
   28.7670   -9.0991   33.9464 LP  0  0  0  0  0  0  0  0  0  0  0  0  # atno 16500 bound_to 5910
   29.6431  -10.6111   35.4122 LP  0  0  0  0  0  0  0  0  0  0  0  0  # atno 16501 bound_to 6101
   27.7967   -9.0990   36.9975 LP  0  0  0  0  0  0  0  0  0  0  0  0  # atno 16502 bound_to 5850
   29.4900   -9.4628   36.9704 LP  0  0  0  0  0  0  0  0  0  0  0  0  # atno 16503 bound_to 5850
   29.9785   -7.1263   37.2326 LP  0  0  0  0  0  0  0  0  0  0  0  0  # atno 16504 bound_to 5907
   28.6187  -13.6272   36.0307 LP  0  0  0  0  0  0  0  0  0  0  0  0  # atno 16505 bound_to 6051
   30.1530  -14.1132   36.6709 LP  0  0  0  0  0  0  0  0  0  0  0  0  # atno 16506 bound_to 6051
   32.2759  -11.1470   33.4211 LP  0  0  0  0  0  0  0  0  0  0  0  0  # atno 16507 bound_to 5982
   32.3636  -12.2234   34.7753 LP  0  0  0  0  0  0  0  0  0  0  0  0  # atno 16508 bound_to 5982
   31.3348   -7.6652   36.1259 LP  0  0  0  0  0  0  0  0  0  0  0  0  # atno 16509 bound_to 5979
   32.1108  -10.4339   35.5248 LP  0  0  0  0  0  0  0  0  0  0  0  0  # atno 16510 bound_to 6048
   13.1995   -4.8859   30.5124 LP  0  0  0  0  0  0  0  0  0  0  0  0  # atno 16511 bound_to 11145
   12.0508   -3.5912   30.4461 LP  0  0  0  0  0  0  0  0  0  0  0  0  # atno 16512 bound_to 11145
   15.2073   -2.8430   29.9391 LP  0  0  0  0  0  0  0  0  0  0  0  0  # atno 16513 bound_to 11196
   15.6105   -0.4386   29.5858 LP  0  0  0  0  0  0  0  0  0  0  0  0  # atno 16514 bound_to 11199
   16.2692    0.1953   28.1146 LP  0  0  0  0  0  0  0  0  0  0  0  0  # atno 16515 bound_to 11199
   14.7808   -1.0007   27.5176 LP  0  0  0  0  0  0  0  0  0  0  0  0  # atno 16516 bound_to 11229
   13.1670   -3.1949   33.8024 LP  0  0  0  0  0  0  0  0  0  0  0  0  # atno 16525 bound_to 11142
   15.1616   -2.0967   34.1612 LP  0  0  0  0  0  0  0  0  0  0  0  0  # atno 16530 bound_to 11085
   14.2135   -1.8895   35.5959 LP  0  0  0  0  0  0  0  0  0  0  0  0  # atno 16531 bound_to 11085
   13.9352   -4.2316   37.1333 LP  0  0  0  0  0  0  0  0  0  0  0  0  # atno 16533 bound_to 11082
   17.0447    2.0914   26.1801 LP  0  0  0  0  0  0  0  0  0  0  0  0  # atno 16538 bound_to 11232
   16.0069    3.4764   26.1112 LP  0  0  0  0  0  0  0  0  0  0  0  0  # atno 16539 bound_to 11232
   14.6455    1.9471   26.1932 LP  0  0  0  0  0  0  0  0  0  0  0  0  # atno 16542 bound_to 11266
   15.3663    2.8631   36.1445 LP  0  0  0  0  0  0  0  0  0  0  0  0  # atno 16548 bound_to 9421
   11.6985    3.1133   29.7861 LP  0  0  0  0  0  0  0  0  0  0  0  0  # atno 16549 bound_to 11269
   12.6146    1.8597   29.0184 LP  0  0  0  0  0  0  0  0  0  0  0  0  # atno 16550 bound_to 11269
   10.5002    3.4560   31.9933 LP  0  0  0  0  0  0  0  0  0  0  0  0  # atno 16552 bound_to 11318
   11.6002    4.4021   32.9393 LP  0  0  0  0  0  0  0  0  0  0  0  0  # atno 16553 bound_to 11318
   10.4351    0.4843   30.6606 LP  0  0  0  0  0  0  0  0  0  0  0  0  # atno 16554 bound_to 11466
   11.3776    5.8669   30.1648 LP  0  0  0  0  0  0  0  0  0  0  0  0  # atno 16555 bound_to 11358
   13.1620    7.8745   35.4615 LP  0  0  0  0  0  0  0  0  0  0  0  0  # atno 16556 bound_to 11538
   12.4045    8.9623   34.5078 LP  0  0  0  0  0  0  0  0  0  0  0  0  # atno 16557 bound_to 11538
   16.9032    9.3937   38.7331 LP  0  0  0  0  0  0  0  0  0  0  0  0  # atno 16558 bound_to 9314
   17.8945    8.3054   37.8205 LP  0  0  0  0  0  0  0  0  0  0  0  0  # atno 16559 bound_to 9314
   18.6252    7.5554   39.8875 LP  0  0  0  0  0  0  0  0  0  0  0  0  # atno 16560 bound_to 9335
   15.8941    5.2294   39.8330 LP  0  0  0  0  0  0  0  0  0  0  0  0  # atno 16561 bound_to 9338
   16.4472    3.7233   39.1805 LP  0  0  0  0  0  0  0  0  0  0  0  0  # atno 16562 bound_to 9338
   21.2491    5.4763   37.9681 LP  0  0  0  0  0  0  0  0  0  0  0  0  # atno 16563 bound_to 9341
   21.1037    5.5555   39.5926 LP  0  0  0  0  0  0  0  0  0  0  0  0  # atno 16564 bound_to 9341
   13.0588    3.6647   37.6600 LP  0  0  0  0  0  0  0  0  0  0  0  0  # atno 16565 bound_to 9380
   13.8092    2.2256   38.2648 LP  0  0  0  0  0  0  0  0  0  0  0  0  # atno 16566 bound_to 9380
   16.6388    1.7870   39.0281 LP  0  0  0  0  0  0  0  0  0  0  0  0  # atno 16567 bound_to 9469
   29.6040   -4.7684   37.9942 LP  0  0  0  0  0  0  0  0  0  0  0  0  # atno 16570 bound_to 5709
   29.4544   -3.5935   36.7304 LP  0  0  0  0  0  0  0  0  0  0  0  0  # atno 16571 bound_to 5709
   26.7355    0.3922   41.7187 LP  0  0  0  0  0  0  0  0  0  0  0  0  # atno 16574 bound_to 7822
   29.6857    3.2728   41.7087 LP  0  0  0  0  0  0  0  0  0  0  0  0  # atno 16575 bound_to 7825
   28.7820    4.6884   42.1323 LP  0  0  0  0  0  0  0  0  0  0  0  0  # atno 16576 bound_to 7825
   29.6883   -2.6946   41.4246 LP  0  0  0  0  0  0  0  0  0  0  0  0  # atno 16579 bound_to 5706
   30.5641   -2.7727   38.2133 LP  0  0  0  0  0  0  0  0  0  0  0  0  # atno 16580 bound_to 5761
   33.5200   -1.4205   36.4107 LP  0  0  0  0  0  0  0  0  0  0  0  0  # atno 16581 bound_to 5766
   34.3910   -2.6429   35.7675 LP  0  0  0  0  0  0  0  0  0  0  0  0  # atno 16582 bound_to 5766
   28.7000    0.3121   41.9269 LP  0  0  0  0  0  0  0  0  0  0  0  0  # atno 16583 bound_to 7781
   28.0769    0.0404   43.5200 LP  0  0  0  0  0  0  0  0  0  0  0  0  # atno 16584 bound_to 7781
   26.2015    3.1686   42.5563 LP  0  0  0  0  0  0  0  0  0  0  0  0  # atno 16585 bound_to 7866
   14.4572   -0.8717   38.5080 LP  0  0  0  0  0  0  0  0  0  0  0  0  # atno 16593 bound_to 9424
   14.8009   -0.3930   40.1368 LP  0  0  0  0  0  0  0  0  0  0  0  0  # atno 16594 bound_to 9424
   20.0420   -3.1998   41.0273 LP  0  0  0  0  0  0  0  0  0  0  0  0  # atno 16595 bound_to 9480
   20.6644   -2.6635   42.4385 LP  0  0  0  0  0  0  0  0  0  0  0  0  # atno 16596 bound_to 9480
   20.3658    2.1660   42.9563 LP  0  0  0  0  0  0  0  0  0  0  0  0  # atno 16597 bound_to 7659
   19.4696    3.1212   44.0896 LP  0  0  0  0  0  0  0  0  0  0  0  0  # atno 16598 bound_to 7659
   24.5318    1.8043   44.6912 LP  0  0  0  0  0  0  0  0  0  0  0  0  # atno 16599 bound_to 7717
   25.7385    1.5009   43.4863 LP  0  0  0  0  0  0  0  0  0  0  0  0  # atno 16600 bound_to 7717
   21.4976    1.5554   45.0198 LP  0  0  0  0  0  0  0  0  0  0  0  0  # atno 16601 bound_to 7714
   18.6941   -5.8901   42.5857 LP  0  0  0  0  0  0  0  0  0  0  0  0  # atno 16602 bound_to 10532
   17.9528   -4.9102   41.3649 LP  0  0  0  0  0  0  0  0  0  0  0  0  # atno 16603 bound_to 10532
   16.7486   10.3887   41.8065 LP  0  0  0  0  0  0  0  0  0  0  0  0  # atno 16604 bound_to 9311
   26.6746   11.6030   26.7254 LP  0  0  0  0  0  0  0  0  0  0  0  0  # atno 16607 bound_to 15310
   27.1186   11.5694   25.1543 LP  0  0  0  0  0  0  0  0  0  0  0  0  # atno 16608 bound_to 15310
   17.0825    8.1886   44.9842 LP  0  0  0  0  0  0  0  0  0  0  0  0  # atno 16611 bound_to 7554
   18.7605    8.2399   44.5580 LP  0  0  0  0  0  0  0  0  0  0  0  0  # atno 16612 bound_to 7554
   22.2420    4.0992   44.5004 LP  0  0  0  0  0  0  0  0  0  0  0  0  # atno 16613 bound_to 7623
   22.3612    5.7994   44.1919 LP  0  0  0  0  0  0  0  0  0  0  0  0  # atno 16614 bound_to 7623
   13.4578   11.0501   41.9152 LP  0  0  0  0  0  0  0  0  0  0  0  0  # atno 16615 bound_to 9280
   15.8902    8.5397   42.6130 LP  0  0  0  0  0  0  0  0  0  0  0  0  # atno 16616 bound_to 9283
   14.4263    9.4565   42.4844 LP  0  0  0  0  0  0  0  0  0  0  0  0  # atno 16617 bound_to 9283
   13.6823   14.7252   40.6385 LP  0  0  0  0  0  0  0  0  0  0  0  0  # atno 16618 bound_to 9228
   14.9723   13.6184   40.3055 LP  0  0  0  0  0  0  0  0  0  0  0  0  # atno 16619 bound_to 9228
   19.6904    6.4696   47.4102 LP  0  0  0  0  0  0  0  0  0  0  0  0  # atno 16620 bound_to 7620
   10.8106   14.2193   42.7285 LP  0  0  0  0  0  0  0  0  0  0  0  0  # atno 16628 bound_to 9225
   13.5455    2.4932   40.2720 LP  0  0  0  0  0  0  0  0  0  0  0  0  # atno 16635 bound_to 9528
   24.0179   20.1300   37.9534 LP  0  0  0  0  0  0  0  0  0  0  0  0  # atno 16636 bound_to 3357
   23.2778   20.1941   36.3887 LP  0  0  0  0  0  0  0  0  0  0  0  0  # atno 16637 bound_to 3357
   22.4368   20.6467   40.8655 LP  0  0  0  0  0  0  0  0  0  0  0  0  # atno 16638 bound_to 3415
   21.4336   21.3733   39.6549 LP  0  0  0  0  0  0  0  0  0  0  0  0  # atno 16639 bound_to 3415
   24.9294   22.0468   37.5806 LP  0  0  0  0  0  0  0  0  0  0  0  0  # atno 16640 bound_to 3412
   24.1733   21.3214   39.1976 LP  0  0  0  0  0  0  0  0  0  0  0  0  # atno 16641 bound_to 3478
    7.9459   14.3619   43.9693 LP  0  0  0  0  0  0  0  0  0  0  0  0  # atno 16646 bound_to 9102
    9.5299   14.6080   43.3132 LP  0  0  0  0  0  0  0  0  0  0  0  0  # atno 16647 bound_to 9102
   10.2398   16.0041   45.9114 LP  0  0  0  0  0  0  0  0  0  0  0  0  # atno 16648 bound_to 9168
   14.9855   17.6862   46.7484 LP  0  0  0  0  0  0  0  0  0  0  0  0  # atno 16649 bound_to 9178
   14.8705   16.0578   46.7053 LP  0  0  0  0  0  0  0  0  0  0  0  0  # atno 16650 bound_to 9178
   10.9746   23.8045   36.2678 LP  0  0  0  0  0  0  0  0  0  0  0  0  # atno 16654 bound_to 6255
   10.0652   25.0543   36.7949 LP  0  0  0  0  0  0  0  0  0  0  0  0  # atno 16655 bound_to 6255
   13.1510   19.0759   47.1885 LP  0  0  0  0  0  0  0  0  0  0  0  0  # atno 16656 bound_to 9176
   12.8596   18.3954   48.6440 LP  0  0  0  0  0  0  0  0  0  0  0  0  # atno 16657 bound_to 9176

> <Gold.Score>
     Fitness  S(hb_ext) S(vdw_ext)  S(hb_int)    S(int)      intcor
     31.52       6.39      19.52       0.00      -1.71      -0.76

> <Gold.Goldscore.Fitness>
31.5216

> <Gold.Goldscore.Internal.Vdw>
-1.9818

> <Gold.Goldscore.Internal.Torsion>
-0.4831

> <Gold.Goldscore.External.Vdw>
19.5214

> <Gold.Goldscore.Internal.HBond>
0.0000

> <Gold.Goldscore.External.HBond>
6.3861

> <Gold.Goldscore.Internal.Correction>
-0.7585

> <Gold.Goldscore.Hbonds>
donor molecule, donor type, donor heavy atom, donor atom, acceptor molecule, acceptor atom, score
      P1  H  9341  9355       L1    17  0.19
      P1  H  7722  7743       L1    17  1.00

> <Gold.Goldscore.Internal.Vdw.Weighted>
-1.9818

> <Gold.Goldscore.Internal.Torsion.Weighted>
-0.4831

> <Gold.Goldscore.External.Vdw.Weighted>
26.8419

> <Gold.Goldscore.Internal.HBond.Weighted>
0.0000

> <Gold.Goldscore.External.HBond.Weighted>
6.3861

> <Gold.Goldscore.Internal.Correction.Weighted>
-0.7585

> <Gold.Rescore>
     Score     S(PLP)   S(hbond)     S(cho)   S(metal)  DE(clash)   DE(tors)     intcor
     25.54     -22.66       1.48       0.00       0.00       1.34       0.11       ----

> <Gold.PLP.Fitness>
25.5450

> <Gold.PLP.PLP>
-22.6628

> <Gold.PLP.part.hbond>
-2.7142

> <Gold.PLP.part.metal>
0.0000

> <Gold.PLP.part.buried>
1.0791

> <Gold.PLP.part.nonpolar>
-22.2325

> <Gold.PLP.part.repulsive>
0.2016

> <Gold.PLP.ligand.clash>
1.3446

> <Gold.PLP.ligand.torsion>
0.1123

> <Gold.PLP.Chemscore.Hbond>
1.4838

> <Gold.PLP.Chemscore.CHOScore>
0.0000

> <Gold.PLP.Chemscore.Metal>
0.0000

> <Gold.Chemscore.Hbonds>
donor molecule, donor type, donor heavy atom, donor atom, acceptor molecule, acceptor atom, score
      P1  H  9341  9355       L1    17  0.77
      P1  H  7722  7743       L1    17  0.80

> <Gold.PLP.Chemscore.Internal.Correction>
   9.000000E+99

