#       Name:                CT1002167954
#       Creating user name   hitesit
#       Creation time:       Sun Apr 16 22:51:09 2023


#       File generated by GOLD software.
#

@<TRIPOS>MOLECULE
CT1002167954|ligand_prepared|mol2|1|dock3
    29    30     1
SMALL
NO_CHARGES


@<TRIPOS>ATOM
      1 C1         123.0900 245.1855 357.7213 C.3            1 RES1               0.0000
      2 C2         123.3980 245.4647 356.2360 C.ar           1 RES1               0.0000
      3 C3         123.2838 243.6857 357.9244 C.2            1 RES1               0.0000
      4 C4         124.0520 246.0519 358.5266 C.2            1 RES1               0.0000
      5 C5         121.6483 245.5558 358.1407 C.3            1 RES1               0.0000
      6 C6         122.4287 245.2547 355.2597 C.ar           1 RES1               0.0000
      7 C7         124.6436 245.9343 355.8279 C.ar           1 RES1               0.0000
      8 N8         124.3965 243.2781 358.5995 N.am           1 RES1               0.0000
      9 O9         122.4928 242.8712 357.4649 O.2            1 RES1               0.0000
     10 N10        125.0006 245.4208 359.2880 N.am           1 RES1               0.0000
     11 O11        124.0078 247.2755 358.4958 O.2            1 RES1               0.0000
     12 C12        121.4043 245.4693 359.6391 C.3            1 RES1               0.0000
     13 C13        122.6941 245.5077 353.9241 C.ar           1 RES1               0.0000
     14 C14        124.9069 246.1864 354.4916 C.ar           1 RES1               0.0000
     15 C15        125.2361 244.0738 359.3369 C.2            1 RES1               0.0000
     16 C16        123.9330 245.9741 353.5392 C.ar           1 RES1               0.0000
     17 O17        126.1437 243.5852 360.0037 O.2            1 RES1               0.0000
     18 H18        121.4350 246.5786 357.8066 H              1 RES1               0.0000
     19 H19        120.9481 244.8833 357.6297 H              1 RES1               0.0000
     20 H20        121.4487 244.8857 355.5433 H              1 RES1               0.0000
     21 H21        125.4253 246.1075 356.5596 H              1 RES1               0.0000
     22 H22        124.6255 242.2904 358.5516 H              1 RES1               0.0000
     23 H23        125.5853 246.0097 359.8725 H              1 RES1               0.0000
     24 H24        120.3779 245.7390 359.8790 H              1 RES1               0.0000
     25 H25        121.5827 244.4590 360.0013 H              1 RES1               0.0000
     26 H26        122.0667 246.1442 360.1772 H              1 RES1               0.0000
     27 H27        121.9246 245.3377 353.1782 H              1 RES1               0.0000
     28 H28        125.8836 246.5528 354.1932 H              1 RES1               0.0000
     29 H29        124.1405 246.1726 352.4929 H              1 RES1               0.0000
@<TRIPOS>BOND
    1    1    2 1     
    2    1    3 1     
    3    1    4 1     
    4    1    5 1     
    5    2    6 ar    
    6    2    7 ar    
    7    3    8 1     
    8    3    9 2     
    9    4   10 1     
   10    4   11 2     
   11    5   12 1     
   12    5   18 1     
   13    5   19 1     
   14    6   13 ar    
   15    6   20 1     
   16    7   14 ar    
   17    7   21 1     
   18    8   15 1     
   19    8   22 1     
   20   10   15 1     
   21   10   23 1     
   22   12   24 1     
   23   12   25 1     
   24   12   26 1     
   25   13   16 ar    
   26   13   27 1     
   27   14   16 ar    
   28   14   28 1     
   29   15   17 2     
   30   16   29 1     
@<TRIPOS>SUBSTRUCTURE
      1 RES1           1
@<TRIPOS>SET
DONOR_HYDROGENS      STATIC     ATOMS    <user>   **** ""
2 22 23
ATOM$RED        STATIC     ATOMS    COLORGROUP SYSTEM
2 22 23
@<TRIPOS>COMMENT
> <Gold.Version>
2022.3.0

> <Gold.Id.Protein>
unknown|4uh6_clean|pdb

> <Gold.Protein.RotatedTorsions>
[ 9116 9086 9085 9083 ] final -147.63 input   60.02 | X-H torsion
[ 9012 8996 8995 8992 ] final  -74.11 input   59.99 | X-H torsion
[ 8362 8332 8331 8329 ] final -135.17 input   59.98 | X-H torsion
[ 5561 5545 5544 5541 ] final   56.97 input   59.99 | X-H torsion
[ 8516 8500 8499 8496 ] final  -92.97 input   60.00 | X-H torsion
[ 12904 12876 12875 12873 ] final   -4.91 input   59.99 | X-H torsion
[ 13458 13433 13432 13428 ] final -125.24 input   60.03 | X-H torsion
[ 9192 9171 9169 9166 ] final  170.94 input   60.01 | X-H torsion

> <Gold.Protein.ActiveResidues>
 TRP311  MET341  HIS342  TRP414  ARG419  CYS420  VAL421  GLY422  LEU429  LEU460 
 SER462  ALA463  ILE464  ASN481  SER482  GLN483  LEU484  ILE485  ARG486  ASP500 
 ALA502  ASN503  TRP566  TYR567  GLY568  LEU569  PRO570  ALA571  VAL572  SER573 
 ASN574  MET575  PRO588  PHE589  SER590  GLY591  TRP592  TYR593  MET594  GLY595 
 THR596  GLU597  ILE598  VAL600  ARG601  ASP602  TYR603  ASP605  ARG608  ILE653 
 VAL654  TRP683  PRO687  SER691  PHE696  HIS697  TYR711  HEM750  H4B760 

> <Gold.Protein.RotatedAtoms>
  126.8670  249.4187  362.7684 H   0  0  0  0  0  0  0  0  0  0  0  0  # atno 5561 bound_to 5545
  125.4167  243.5209  362.5461 H   0  0  0  0  0  0  0  0  0  0  0  0  # atno 8362 bound_to 8332
  123.8772  250.2125  366.8072 H   0  0  0  0  0  0  0  0  0  0  0  0  # atno 8516 bound_to 8500
  115.3859  246.0818  368.9847 H   0  0  0  0  0  0  0  0  0  0  0  0  # atno 9012 bound_to 8996
  123.2016  241.1018  361.4361 H   0  0  0  0  0  0  0  0  0  0  0  0  # atno 9116 bound_to 9086
  117.4594  240.2750  350.5237 H   0  0  0  0  0  0  0  0  0  0  0  0  # atno 9192 bound_to 9171
  120.5928  254.2349  355.2931 H   0  0  0  0  0  0  0  0  0  0  0  0  # atno 12904 bound_to 12876
  125.4284  250.5357  346.9330 H   0  0  0  0  0  0  0  0  0  0  0  0  # atno 13458 bound_to 13433
  122.3412  242.4757  361.5791 LP  0  0  0  0  0  0  0  0  0  0  0  0  # atno 13496 bound_to 9086
  122.9479  242.0363  360.1281 LP  0  0  0  0  0  0  0  0  0  0  0  0  # atno 13497 bound_to 9086
  115.9493  244.5573  369.0632 LP  0  0  0  0  0  0  0  0  0  0  0  0  # atno 13516 bound_to 8996
  114.6899  244.9163  368.0875 LP  0  0  0  0  0  0  0  0  0  0  0  0  # atno 13517 bound_to 8996
  125.3460  242.4609  361.3132 LP  0  0  0  0  0  0  0  0  0  0  0  0  # atno 13530 bound_to 8332
  126.7507  242.6958  362.1121 LP  0  0  0  0  0  0  0  0  0  0  0  0  # atno 13531 bound_to 8332
  128.2987  249.9584  363.3214 LP  0  0  0  0  0  0  0  0  0  0  0  0  # atno 13538 bound_to 5545
  127.9616  250.0181  361.7247 LP  0  0  0  0  0  0  0  0  0  0  0  0  # atno 13539 bound_to 5545
  124.6925  251.1566  367.8525 LP  0  0  0  0  0  0  0  0  0  0  0  0  # atno 13551 bound_to 8500
  124.2671  251.7354  366.3861 LP  0  0  0  0  0  0  0  0  0  0  0  0  # atno 13552 bound_to 8500
  121.1256  254.9488  353.9311 LP  0  0  0  0  0  0  0  0  0  0  0  0  # atno 13567 bound_to 12876
  119.5709  255.1299  354.3968 LP  0  0  0  0  0  0  0  0  0  0  0  0  # atno 13568 bound_to 12876
  124.5925  250.4330  345.5404 LP  0  0  0  0  0  0  0  0  0  0  0  0  # atno 13569 bound_to 13433
  124.1347  249.5530  346.8376 LP  0  0  0  0  0  0  0  0  0  0  0  0  # atno 13570 bound_to 13433

> <Gold.Score>
     Fitness  S(hb_ext) S(vdw_ext)  S(hb_int)    S(int)      intcor
     43.29       6.49      27.46       0.00      -0.95      -0.77

> <Gold.Goldscore.Fitness>
43.2876

> <Gold.Goldscore.Internal.Vdw>
-1.2501

> <Gold.Goldscore.Internal.Torsion>
-0.4717

> <Gold.Goldscore.External.Vdw>
27.4561

> <Gold.Goldscore.Internal.HBond>
0.0000

> <Gold.Goldscore.External.HBond>
6.4880

> <Gold.Goldscore.Internal.Correction>
-0.7693

> <Gold.Goldscore.Hbonds>
donor molecule, donor type, donor heavy atom, donor atom, acceptor molecule, acceptor atom, score
      P1  H  5679  5707       L1    17  0.82
      P1  H  5682  5711       L1    17  0.02
      L1  H     8    22       P1  9362  0.24

> <Gold.Goldscore.Internal.Vdw.Weighted>
-1.2501

> <Gold.Goldscore.Internal.Torsion.Weighted>
-0.4717

> <Gold.Goldscore.External.Vdw.Weighted>
37.7521

> <Gold.Goldscore.Internal.HBond.Weighted>
0.0000

> <Gold.Goldscore.External.HBond.Weighted>
6.4880

> <Gold.Goldscore.Internal.Correction.Weighted>
-0.7693

> <Gold.Rescore>
     Score     S(PLP)   S(hbond)     S(cho)   S(metal)  DE(clash)   DE(tors)     intcor
     24.94     -21.27       1.82       0.00       0.00       1.44       0.17       ----

> <Gold.PLP.Fitness>
24.9420

> <Gold.PLP.PLP>
-21.2723

> <Gold.PLP.part.hbond>
-4.5053

> <Gold.PLP.part.metal>
0.0000

> <Gold.PLP.part.buried>
0.1124

> <Gold.PLP.part.nonpolar>
-24.2792

> <Gold.PLP.part.repulsive>
6.0310

> <Gold.PLP.ligand.clash>
1.4442

> <Gold.PLP.ligand.torsion>
0.1694

> <Gold.PLP.Chemscore.Hbond>
1.8176

> <Gold.PLP.Chemscore.CHOScore>
0.0000

> <Gold.PLP.Chemscore.Metal>
0.0000

> <Gold.Chemscore.Hbonds>
donor molecule, donor type, donor heavy atom, donor atom, acceptor molecule, acceptor atom, score
      L1  H     8    22       P1  9362  0.56
      P1  H  5679  5707       L1    17  0.99

> <Gold.PLP.Chemscore.Internal.Correction>
   9.000000E+99

#       Name:                CT1002167954
#       Creating user name   hitesit
#       Creation time:       Sun Apr 16 22:51:08 2023


#       File generated by GOLD software.
#

@<TRIPOS>MOLECULE
CT1002167954|ligand_prepared|mol2|1|dock2
    29    30     1
SMALL
NO_CHARGES


@<TRIPOS>ATOM
      1 C1         123.2551 245.3229 357.6415 C.3            1 RES1               0.0000
      2 C2         123.7071 245.5948 356.1922 C.ar           1 RES1               0.0000
      3 C3         123.3806 243.8171 357.8541 C.2            1 RES1               0.0000
      4 C4         124.1669 246.1555 358.5360 C.2            1 RES1               0.0000
      5 C5         121.7938 245.7394 357.9289 C.3            1 RES1               0.0000
      6 C6         125.0387 245.8814 355.9071 C.ar           1 RES1               0.0000
      7 C7         122.8061 245.5599 355.1313 C.ar           1 RES1               0.0000
      8 N8         124.4128 243.3719 358.6263 N.am           1 RES1               0.0000
      9 O9         122.6091 243.0299 357.3200 O.2            1 RES1               0.0000
     10 N10        125.0205 245.4921 359.3779 N.am           1 RES1               0.0000
     11 O11        124.1655 247.3801 358.5073 O.2            1 RES1               0.0000
     12 C12        121.4051 245.6401 359.3956 C.3            1 RES1               0.0000
     13 C13        125.4552 246.1216 354.6082 C.ar           1 RES1               0.0000
     14 C14        123.2246 245.8006 353.8330 C.ar           1 RES1               0.0000
     15 C15        125.2066 244.1380 359.4415 C.2            1 RES1               0.0000
     16 C16        124.5487 246.0809 353.5704 C.ar           1 RES1               0.0000
     17 O17        126.0328 243.6186 360.1863 O.2            1 RES1               0.0000
     18 H18        121.6494 246.7742 357.5946 H              1 RES1               0.0000
     19 H19        121.1226 245.1006 357.3417 H              1 RES1               0.0000
     20 H20        125.7660 245.9201 356.7112 H              1 RES1               0.0000
     21 H21        121.7593 245.3425 355.3144 H              1 RES1               0.0000
     22 H22        124.6130 242.3773 358.5947 H              1 RES1               0.0000
     23 H23        125.5679 246.0603 360.0165 H              1 RES1               0.0000
     24 H24        120.3706 245.9436 359.5418 H              1 RES1               0.0000
     25 H25        121.5126 244.6187 359.7548 H              1 RES1               0.0000
     26 H26        122.0363 246.2824 360.0062 H              1 RES1               0.0000
     27 H27        126.4981 246.3431 354.4069 H              1 RES1               0.0000
     28 H28        122.5076 245.7682 353.0194 H              1 RES1               0.0000
     29 H29        124.8753 246.2687 352.5529 H              1 RES1               0.0000
@<TRIPOS>BOND
    1    1    2 1     
    2    1    3 1     
    3    1    4 1     
    4    1    5 1     
    5    2    6 ar    
    6    2    7 ar    
    7    3    8 1     
    8    3    9 2     
    9    4   10 1     
   10    4   11 2     
   11    5   12 1     
   12    5   18 1     
   13    5   19 1     
   14    6   13 ar    
   15    6   20 1     
   16    7   14 ar    
   17    7   21 1     
   18    8   15 1     
   19    8   22 1     
   20   10   15 1     
   21   10   23 1     
   22   12   24 1     
   23   12   25 1     
   24   12   26 1     
   25   13   16 ar    
   26   13   27 1     
   27   14   16 ar    
   28   14   28 1     
   29   15   17 2     
   30   16   29 1     
@<TRIPOS>SUBSTRUCTURE
      1 RES1           1
@<TRIPOS>SET
DONOR_HYDROGENS      STATIC     ATOMS    <user>   **** ""
2 22 23
ATOM$RED        STATIC     ATOMS    COLORGROUP SYSTEM
2 22 23
@<TRIPOS>COMMENT
> <Gold.Version>
2022.3.0

> <Gold.Id.Protein>
unknown|4uh6_clean|pdb

> <Gold.Protein.RotatedTorsions>
[ 9116 9086 9085 9083 ] final -118.59 input   60.02 | X-H torsion
[ 9012 8996 8995 8992 ] final  -31.69 input   59.99 | X-H torsion
[ 8362 8332 8331 8329 ] final  -78.48 input   59.98 | X-H torsion
[ 5561 5545 5544 5541 ] final  -77.28 input   59.99 | X-H torsion
[ 8516 8500 8499 8496 ] final -120.28 input   60.00 | X-H torsion
[ 12904 12876 12875 12873 ] final   24.79 input   59.99 | X-H torsion
[ 13458 13433 13432 13428 ] final  -92.88 input   60.03 | X-H torsion
[ 9192 9171 9169 9166 ] final   99.31 input   60.01 | X-H torsion

> <Gold.Protein.ActiveResidues>
 TRP311  MET341  HIS342  TRP414  ARG419  CYS420  VAL421  GLY422  LEU429  LEU460 
 SER462  ALA463  ILE464  ASN481  SER482  GLN483  LEU484  ILE485  ARG486  ASP500 
 ALA502  ASN503  TRP566  TYR567  GLY568  LEU569  PRO570  ALA571  VAL572  SER573 
 ASN574  MET575  PRO588  PHE589  SER590  GLY591  TRP592  TYR593  MET594  GLY595 
 THR596  GLU597  ILE598  VAL600  ARG601  ASP602  TYR603  ASP605  ARG608  ILE653 
 VAL654  TRP683  PRO687  SER691  PHE696  HIS697  TYR711  HEM750  H4B760 

> <Gold.Protein.RotatedAtoms>
  128.4304  250.0400  363.1470 H   0  0  0  0  0  0  0  0  0  0  0  0  # atno 5561 bound_to 5545
  126.2791  243.3502  362.6795 H   0  0  0  0  0  0  0  0  0  0  0  0  # atno 8362 bound_to 8332
  124.0336  250.1517  367.2163 H   0  0  0  0  0  0  0  0  0  0  0  0  # atno 8516 bound_to 8500
  114.8876  245.9866  368.5360 H   0  0  0  0  0  0  0  0  0  0  0  0  # atno 9012 bound_to 8996
  123.3238  241.0759  360.9835 H   0  0  0  0  0  0  0  0  0  0  0  0  # atno 9116 bound_to 9086
  118.1630  240.7166  351.2384 H   0  0  0  0  0  0  0  0  0  0  0  0  # atno 9192 bound_to 9171
  120.1298  254.3569  355.3269 H   0  0  0  0  0  0  0  0  0  0  0  0  # atno 12904 bound_to 12876
  125.1777  250.2098  347.2543 H   0  0  0  0  0  0  0  0  0  0  0  0  # atno 13458 bound_to 13433
  122.4752  242.1365  361.8799 LP  0  0  0  0  0  0  0  0  0  0  0  0  # atno 13496 bound_to 9086
  122.6909  242.4016  360.2831 LP  0  0  0  0  0  0  0  0  0  0  0  0  # atno 13497 bound_to 9086
  116.0609  245.1785  369.3222 LP  0  0  0  0  0  0  0  0  0  0  0  0  # atno 13516 bound_to 8996
  115.0802  244.3911  368.2806 LP  0  0  0  0  0  0  0  0  0  0  0  0  # atno 13517 bound_to 8996
  124.9227  243.0575  361.8292 LP  0  0  0  0  0  0  0  0  0  0  0  0  # atno 13530 bound_to 8332
  126.3058  242.2710  361.4617 LP  0  0  0  0  0  0  0  0  0  0  0  0  # atno 13531 bound_to 8332
  127.7495  249.9338  361.6733 LP  0  0  0  0  0  0  0  0  0  0  0  0  # atno 13538 bound_to 5545
  126.9357  249.4168  362.9912 LP  0  0  0  0  0  0  0  0  0  0  0  0  # atno 13539 bound_to 5545
  124.7497  251.5478  367.6483 LP  0  0  0  0  0  0  0  0  0  0  0  0  # atno 13551 bound_to 8500
  124.0524  251.4053  366.1786 LP  0  0  0  0  0  0  0  0  0  0  0  0  # atno 13552 bound_to 8500
  121.3266  254.6675  354.2687 LP  0  0  0  0  0  0  0  0  0  0  0  0  # atno 13567 bound_to 12876
  119.8360  255.2884  354.0251 LP  0  0  0  0  0  0  0  0  0  0  0  0  # atno 13568 bound_to 12876
  125.0141  250.6966  345.7100 LP  0  0  0  0  0  0  0  0  0  0  0  0  # atno 13569 bound_to 13433
  123.9654  249.6175  346.3444 LP  0  0  0  0  0  0  0  0  0  0  0  0  # atno 13570 bound_to 13433

> <Gold.Score>
     Fitness  S(hb_ext) S(vdw_ext)  S(hb_int)    S(int)      intcor
     42.69       6.17      27.02       0.00      -0.64      -0.79

> <Gold.Goldscore.Fitness>
42.6916

> <Gold.Goldscore.Internal.Vdw>
-0.9651

> <Gold.Goldscore.Internal.Torsion>
-0.4550

> <Gold.Goldscore.External.Vdw>
27.0237

> <Gold.Goldscore.Internal.HBond>
0.0000

> <Gold.Goldscore.External.HBond>
6.1690

> <Gold.Goldscore.Internal.Correction>
-0.7850

> <Gold.Goldscore.Hbonds>
donor molecule, donor type, donor heavy atom, donor atom, acceptor molecule, acceptor atom, score
      P1  H  5679  5707       L1    17  0.81
      L1  H     8    22       P1  9362  0.22

> <Gold.Goldscore.Internal.Vdw.Weighted>
-0.9651

> <Gold.Goldscore.Internal.Torsion.Weighted>
-0.4550

> <Gold.Goldscore.External.Vdw.Weighted>
37.1576

> <Gold.Goldscore.Internal.HBond.Weighted>
0.0000

> <Gold.Goldscore.External.HBond.Weighted>
6.1690

> <Gold.Goldscore.Internal.Correction.Weighted>
-0.7850

> <Gold.Rescore>
     Score     S(PLP)   S(hbond)     S(cho)   S(metal)  DE(clash)   DE(tors)     intcor
     25.28     -22.07       1.88       0.00       0.00       1.94       0.24       ----

> <Gold.PLP.Fitness>
25.2816

> <Gold.PLP.PLP>
-22.0718

> <Gold.PLP.part.hbond>
-5.2122

> <Gold.PLP.part.metal>
0.0000

> <Gold.PLP.part.buried>
3.2650

> <Gold.PLP.part.nonpolar>
-26.7527

> <Gold.PLP.part.repulsive>
5.2223

> <Gold.PLP.ligand.clash>
1.9395

> <Gold.PLP.ligand.torsion>
0.2422

> <Gold.PLP.Chemscore.Hbond>
1.8779

> <Gold.PLP.Chemscore.CHOScore>
0.0000

> <Gold.PLP.Chemscore.Metal>
0.0000

> <Gold.Chemscore.Hbonds>
donor molecule, donor type, donor heavy atom, donor atom, acceptor molecule, acceptor atom, score
      L1  H     8    22       P1  9362  0.56
      P1  H  5679  5707       L1    17  1.00

> <Gold.PLP.Chemscore.Internal.Correction>
   9.000000E+99

#       Name:                CT1002167954
#       Creating user name   hitesit
#       Creation time:       Sun Apr 16 22:51:07 2023


#       File generated by GOLD software.
#

@<TRIPOS>MOLECULE
CT1002167954|ligand_prepared|mol2|1|dock1
    29    30     1
SMALL
NO_CHARGES


@<TRIPOS>ATOM
      1 C1         123.0472 245.7250 357.5899 C.3            1 RES1               0.0000
      2 C2         121.6617 245.9954 358.2112 C.ar           1 RES1               0.0000
      3 C3         124.0629 246.4287 358.4852 C.2            1 RES1               0.0000
      4 C4         123.2049 244.2092 357.5421 C.2            1 RES1               0.0000
      5 C5         123.2028 246.2672 356.1500 C.3            1 RES1               0.0000
      6 C6         121.0362 245.0306 358.9952 C.ar           1 RES1               0.0000
      7 C7         120.9990 247.2036 358.0119 C.ar           1 RES1               0.0000
      8 N8         124.8342 245.6513 359.2980 N.am           1 RES1               0.0000
      9 O9         124.1582 247.6496 358.5065 O.2            1 RES1               0.0000
     10 N10        124.1763 243.6398 358.3229 N.am           1 RES1               0.0000
     11 O11        122.4856 243.5014 356.8479 O.2            1 RES1               0.0000
     12 C12        124.4753 245.8076 355.4559 C.3            1 RES1               0.0000
     13 C13        119.7945 245.2661 359.5619 C.ar           1 RES1               0.0000
     14 C14        119.7572 247.4369 358.5794 C.ar           1 RES1               0.0000
     15 C15        124.9778 244.2892 359.2219 C.2            1 RES1               0.0000
     16 C16        119.1545 246.4694 359.3548 C.ar           1 RES1               0.0000
     17 O17        125.7911 243.7004 359.9282 O.2            1 RES1               0.0000
     18 H18        122.3396 245.9433 355.5555 H              1 RES1               0.0000
     19 H19        123.1949 247.3637 356.1828 H              1 RES1               0.0000
     20 H20        121.5235 244.0766 359.1673 H              1 RES1               0.0000
     21 H21        121.4537 247.9788 357.4046 H              1 RES1               0.0000
     22 H22        125.3521 246.1267 360.0302 H              1 RES1               0.0000
     23 H23        124.3150 242.6390 358.2248 H              1 RES1               0.0000
     24 H24        124.5348 246.2163 354.4494 H              1 RES1               0.0000
     25 H25        125.3548 246.1343 356.0069 H              1 RES1               0.0000
     26 H26        124.5046 244.7224 355.3834 H              1 RES1               0.0000
     27 H27        119.3238 244.5009 360.1703 H              1 RES1               0.0000
     28 H28        119.2569 248.3852 358.4132 H              1 RES1               0.0000
     29 H29        118.1820 246.6538 359.7992 H              1 RES1               0.0000
@<TRIPOS>BOND
    1    1    2 1     
    2    1    3 1     
    3    1    4 1     
    4    1    5 1     
    5    2    6 ar    
    6    2    7 ar    
    7    3    8 1     
    8    3    9 2     
    9    4   10 1     
   10    4   11 2     
   11    5   12 1     
   12    5   18 1     
   13    5   19 1     
   14    6   13 ar    
   15    6   20 1     
   16    7   14 ar    
   17    7   21 1     
   18    8   15 1     
   19    8   22 1     
   20   10   15 1     
   21   10   23 1     
   22   12   24 1     
   23   12   25 1     
   24   12   26 1     
   25   13   16 ar    
   26   13   27 1     
   27   14   16 ar    
   28   14   28 1     
   29   15   17 2     
   30   16   29 1     
@<TRIPOS>SUBSTRUCTURE
      1 RES1           1
@<TRIPOS>SET
DONOR_HYDROGENS      STATIC     ATOMS    <user>   **** ""
2 22 23
ATOM$RED        STATIC     ATOMS    COLORGROUP SYSTEM
2 22 23
@<TRIPOS>COMMENT
> <Gold.Version>
2022.3.0

> <Gold.Id.Protein>
unknown|4uh6_clean|pdb

> <Gold.Protein.RotatedTorsions>
[ 9116 9086 9085 9083 ] final  -36.07 input   60.02 | X-H torsion
[ 9012 8996 8995 8992 ] final -169.81 input   59.99 | X-H torsion
[ 8362 8332 8331 8329 ] final -145.15 input   59.98 | X-H torsion
[ 5561 5545 5544 5541 ] final  -13.23 input   59.99 | X-H torsion
[ 8516 8500 8499 8496 ] final   16.65 input   60.00 | X-H torsion
[ 12904 12876 12875 12873 ] final  103.84 input   59.99 | X-H torsion
[ 13458 13433 13432 13428 ] final  -33.71 input   60.03 | X-H torsion
[ 9192 9171 9169 9166 ] final   44.69 input   60.01 | X-H torsion

> <Gold.Protein.ActiveResidues>
 TRP311  MET341  HIS342  TRP414  ARG419  CYS420  VAL421  GLY422  LEU429  LEU460 
 SER462  ALA463  ILE464  ASN481  SER482  GLN483  LEU484  ILE485  ARG486  ASP500 
 ALA502  ASN503  TRP566  TYR567  GLY568  LEU569  PRO570  ALA571  VAL572  SER573 
 ASN574  MET575  PRO588  PHE589  SER590  GLY591  TRP592  TYR593  MET594  GLY595 
 THR596  GLU597  ILE598  VAL600  ARG601  ASP602  TYR603  ASP605  ARG608  ILE653 
 VAL654  TRP683  PRO687  SER691  PHE696  HIS697  TYR711  HEM750  H4B760 

> <Gold.Protein.RotatedAtoms>
  127.6039  249.6380  363.5215 H   0  0  0  0  0  0  0  0  0  0  0  0  # atno 5561 bound_to 5545
  125.2834  243.4880  362.4583 H   0  0  0  0  0  0  0  0  0  0  0  0  # atno 8362 bound_to 8332
  124.1806  251.6221  366.2934 H   0  0  0  0  0  0  0  0  0  0  0  0  # atno 8516 bound_to 8500
  116.0565  244.8941  369.2410 H   0  0  0  0  0  0  0  0  0  0  0  0  # atno 9012 bound_to 8996
  123.0168  241.9161  360.1321 H   0  0  0  0  0  0  0  0  0  0  0  0  # atno 9116 bound_to 9086
  118.1757  240.3805  352.0291 H   0  0  0  0  0  0  0  0  0  0  0  0  # atno 9192 bound_to 9171
  119.5342  255.0424  354.5547 H   0  0  0  0  0  0  0  0  0  0  0  0  # atno 12904 bound_to 12876
  124.4378  249.6619  347.1690 H   0  0  0  0  0  0  0  0  0  0  0  0  # atno 13458 bound_to 13433
  123.1506  241.1433  361.5580 LP  0  0  0  0  0  0  0  0  0  0  0  0  # atno 13496 bound_to 9086
  122.3246  242.5487  361.4622 LP  0  0  0  0  0  0  0  0  0  0  0  0  # atno 13497 bound_to 9086
  114.8817  244.5767  368.1608 LP  0  0  0  0  0  0  0  0  0  0  0  0  # atno 13516 bound_to 8996
  115.0819  246.0935  368.7317 LP  0  0  0  0  0  0  0  0  0  0  0  0  # atno 13517 bound_to 8996
  125.4872  242.3843  361.2798 LP  0  0  0  0  0  0  0  0  0  0  0  0  # atno 13530 bound_to 8332
  126.7437  242.8055  362.2338 LP  0  0  0  0  0  0  0  0  0  0  0  0  # atno 13531 bound_to 8332
  128.5051  250.1799  362.2802 LP  0  0  0  0  0  0  0  0  0  0  0  0  # atno 13538 bound_to 5545
  127.0129  249.5756  362.0070 LP  0  0  0  0  0  0  0  0  0  0  0  0  # atno 13539 bound_to 5545
  123.9279  250.1594  366.9606 LP  0  0  0  0  0  0  0  0  0  0  0  0  # atno 13551 bound_to 8500
  124.7263  251.3137  367.7953 LP  0  0  0  0  0  0  0  0  0  0  0  0  # atno 13552 bound_to 8500
  120.7650  254.2190  355.2298 LP  0  0  0  0  0  0  0  0  0  0  0  0  # atno 13567 bound_to 12876
  120.9970  255.0468  353.8414 LP  0  0  0  0  0  0  0  0  0  0  0  0  # atno 13568 bound_to 12876
  125.4743  250.7347  346.5183 LP  0  0  0  0  0  0  0  0  0  0  0  0  # atno 13569 bound_to 13433
  124.2501  250.1309  345.6220 LP  0  0  0  0  0  0  0  0  0  0  0  0  # atno 13570 bound_to 13433

> <Gold.Score>
     Fitness  S(hb_ext) S(vdw_ext)  S(hb_int)    S(int)      intcor
     38.00       6.78      23.51       0.00      -1.10      -0.79

> <Gold.Goldscore.Fitness>
37.9978

> <Gold.Goldscore.Internal.Vdw>
-1.3792

> <Gold.Goldscore.Internal.Torsion>
-0.5060

> <Gold.Goldscore.External.Vdw>
23.5066

> <Gold.Goldscore.Internal.HBond>
0.0000

> <Gold.Goldscore.External.HBond>
6.7764

> <Gold.Goldscore.Internal.Correction>
-0.7850

> <Gold.Goldscore.Hbonds>
donor molecule, donor type, donor heavy atom, donor atom, acceptor molecule, acceptor atom, score
      P1  H  5679  5707       L1    17  0.45
      P1  H  5682  5711       L1    17  0.03
      L1  H    10    23       P1  9362  0.66

> <Gold.Goldscore.Internal.Vdw.Weighted>
-1.3792

> <Gold.Goldscore.Internal.Torsion.Weighted>
-0.5060

> <Gold.Goldscore.External.Vdw.Weighted>
32.3216

> <Gold.Goldscore.Internal.HBond.Weighted>
0.0000

> <Gold.Goldscore.External.HBond.Weighted>
6.7764

> <Gold.Goldscore.Internal.Correction.Weighted>
-0.7850

> <Gold.Rescore>
     Score     S(PLP)   S(hbond)     S(cho)   S(metal)  DE(clash)   DE(tors)     intcor
     27.67     -24.40       2.00       0.00       0.00       0.45       1.14       ----

> <Gold.PLP.Fitness>
27.6690

> <Gold.PLP.PLP>
-24.4034

> <Gold.PLP.part.hbond>
-6.2248

> <Gold.PLP.part.metal>
0.0000

> <Gold.PLP.part.buried>
6.1845

> <Gold.PLP.part.nonpolar>
-30.2385

> <Gold.PLP.part.repulsive>
3.9413

> <Gold.PLP.ligand.clash>
0.4514

> <Gold.PLP.ligand.torsion>
1.1445

> <Gold.PLP.Chemscore.Hbond>
2.0020

> <Gold.PLP.Chemscore.CHOScore>
0.0000

> <Gold.PLP.Chemscore.Metal>
0.0000

> <Gold.Chemscore.Hbonds>
donor molecule, donor type, donor heavy atom, donor atom, acceptor molecule, acceptor atom, score
      L1  H     8    22       P1  5570  0.18
      L1  H    10    23       P1  9362  0.55
      P1  H  5679  5707       L1    17  0.49

> <Gold.PLP.Chemscore.Internal.Correction>
   9.000000E+99

#       Name:                CT1002167954
#       Creating user name   hitesit
#       Creation time:       Sun Apr 16 22:51:11 2023


#       File generated by GOLD software.
#

@<TRIPOS>MOLECULE
CT1002167954|ligand_prepared|mol2|1|dock5
    29    30     1
SMALL
NO_CHARGES


@<TRIPOS>ATOM
      1 C1         123.2415 245.2972 357.6234 C.3            1 RES1               0.0000
      2 C2         121.8664 245.6290 358.2382 C.ar           1 RES1               0.0000
      3 C3         124.2651 246.1319 358.3875 C.2            1 RES1               0.0000
      4 C4         123.4260 243.7917 357.7784 C.2            1 RES1               0.0000
      5 C5         123.3525 245.6399 356.1195 C.3            1 RES1               0.0000
      6 C6         121.2770 244.7700 359.1610 C.ar           1 RES1               0.0000
      7 C7         121.1778 246.7894 357.8951 C.ar           1 RES1               0.0000
      8 N8         125.0699 245.4846 359.2782 N.am           1 RES1               0.0000
      9 O9         124.3382 247.3456 358.2398 O.2            1 RES1               0.0000
     10 N10        124.4263 243.3490 358.6037 N.am           1 RES1               0.0000
     11 O11        122.7036 242.9849 357.2062 O.2            1 RES1               0.0000
     12 C12        124.5935 245.0698 355.4508 C.3            1 RES1               0.0000
     13 C13        120.0451 245.0620 359.7227 C.ar           1 RES1               0.0000
     14 C14        119.9458 247.0794 358.4578 C.ar           1 RES1               0.0000
     15 C15        125.2368 244.1272 359.3846 C.2            1 RES1               0.0000
     16 C16        119.3789 246.2169 359.3719 C.ar           1 RES1               0.0000
     17 O17        126.0776 243.6527 360.1430 O.2            1 RES1               0.0000
     18 H18        122.4646 245.2547 355.6031 H              1 RES1               0.0000
     19 H19        123.3597 246.7309 356.0055 H              1 RES1               0.0000
     20 H20        121.7851 243.8553 359.4474 H              1 RES1               0.0000
     21 H21        121.6041 247.4820 357.1773 H              1 RES1               0.0000
     22 H22        125.5962 246.0633 359.9250 H              1 RES1               0.0000
     23 H23        124.5811 242.3464 358.6393 H              1 RES1               0.0000
     24 H24        124.6223 245.3396 354.3971 H              1 RES1               0.0000
     25 H25        125.4961 245.4517 355.9231 H              1 RES1               0.0000
     26 H26        124.6064 243.9842 355.5231 H              1 RES1               0.0000
     27 H27        119.6026 244.3793 360.4405 H              1 RES1               0.0000
     28 H28        119.4249 247.9892 358.1784 H              1 RES1               0.0000
     29 H29        118.4141 246.4456 359.8123 H              1 RES1               0.0000
@<TRIPOS>BOND
    1    1    2 1     
    2    1    3 1     
    3    1    4 1     
    4    1    5 1     
    5    2    6 ar    
    6    2    7 ar    
    7    3    8 1     
    8    3    9 2     
    9    4   10 1     
   10    4   11 2     
   11    5   12 1     
   12    5   18 1     
   13    5   19 1     
   14    6   13 ar    
   15    6   20 1     
   16    7   14 ar    
   17    7   21 1     
   18    8   15 1     
   19    8   22 1     
   20   10   15 1     
   21   10   23 1     
   22   12   24 1     
   23   12   25 1     
   24   12   26 1     
   25   13   16 ar    
   26   13   27 1     
   27   14   16 ar    
   28   14   28 1     
   29   15   17 2     
   30   16   29 1     
@<TRIPOS>SUBSTRUCTURE
      1 RES1           1
@<TRIPOS>SET
DONOR_HYDROGENS      STATIC     ATOMS    <user>   **** ""
2 22 23
ATOM$RED        STATIC     ATOMS    COLORGROUP SYSTEM
2 22 23
@<TRIPOS>COMMENT
> <Gold.Version>
2022.3.0

> <Gold.Id.Protein>
unknown|4uh6_clean|pdb

> <Gold.Protein.RotatedTorsions>
[ 9116 9086 9085 9083 ] final  -80.87 input   60.02 | X-H torsion
[ 9012 8996 8995 8992 ] final -179.58 input   59.99 | X-H torsion
[ 8362 8332 8331 8329 ] final  -31.56 input   59.98 | X-H torsion
[ 5561 5545 5544 5541 ] final   57.03 input   59.99 | X-H torsion
[ 8516 8500 8499 8496 ] final  115.42 input   60.00 | X-H torsion
[ 12904 12876 12875 12873 ] final    5.44 input   59.99 | X-H torsion
[ 13458 13433 13432 13428 ] final   84.29 input   60.03 | X-H torsion
[ 9192 9171 9169 9166 ] final   18.87 input   60.01 | X-H torsion

> <Gold.Protein.ActiveResidues>
 TRP311  MET341  HIS342  TRP414  ARG419  CYS420  VAL421  GLY422  LEU429  LEU460 
 SER462  ALA463  ILE464  ASN481  SER482  GLN483  LEU484  ILE485  ARG486  ASP500 
 ALA502  ASN503  TRP566  TYR567  GLY568  LEU569  PRO570  ALA571  VAL572  SER573 
 ASN574  MET575  PRO588  PHE589  SER590  GLY591  TRP592  TYR593  MET594  GLY595 
 THR596  GLU597  ILE598  VAL600  ARG601  ASP602  TYR603  ASP605  ARG608  ILE653 
 VAL654  TRP683  PRO687  SER691  PHE696  HIS697  TYR711  HEM750  H4B760 

> <Gold.Protein.RotatedAtoms>
  126.8668  249.4187  362.7674 H   0  0  0  0  0  0  0  0  0  0  0  0  # atno 5561 bound_to 5545
  126.7182  242.8757  362.3079 H   0  0  0  0  0  0  0  0  0  0  0  0  # atno 8362 bound_to 8332
  124.7434  251.5982  367.5988 H   0  0  0  0  0  0  0  0  0  0  0  0  # atno 8516 bound_to 8500
  116.0267  244.7509  369.1778 H   0  0  0  0  0  0  0  0  0  0  0  0  # atno 9012 bound_to 8996
  123.2962  241.3346  360.4368 H   0  0  0  0  0  0  0  0  0  0  0  0  # atno 9116 bound_to 9086
  117.9879  240.0799  352.2516 H   0  0  0  0  0  0  0  0  0  0  0  0  # atno 9192 bound_to 9171
  120.4300  254.2623  355.3289 H   0  0  0  0  0  0  0  0  0  0  0  0  # atno 12904 bound_to 12876
  124.2315  250.1116  345.6418 H   0  0  0  0  0  0  0  0  0  0  0  0  # atno 13458 bound_to 13433
  122.7752  241.6110  361.9536 LP  0  0  0  0  0  0  0  0  0  0  0  0  # atno 13496 bound_to 9086
  122.4187  242.6666  360.7598 LP  0  0  0  0  0  0  0  0  0  0  0  0  # atno 13497 bound_to 9086
  114.7925  244.7033  368.1184 LP  0  0  0  0  0  0  0  0  0  0  0  0  # atno 13516 bound_to 8996
  115.2011  246.1112  368.8377 LP  0  0  0  0  0  0  0  0  0  0  0  0  # atno 13517 bound_to 8996
  125.2029  243.4631  362.3954 LP  0  0  0  0  0  0  0  0  0  0  0  0  # atno 13530 bound_to 8332
  125.5836  242.3431  361.2697 LP  0  0  0  0  0  0  0  0  0  0  0  0  # atno 13531 bound_to 8332
  128.2980  249.9581  363.3220 LP  0  0  0  0  0  0  0  0  0  0  0  0  # atno 13538 bound_to 5545
  127.9625  250.0184  361.7250 LP  0  0  0  0  0  0  0  0  0  0  0  0  # atno 13539 bound_to 5545
  124.0222  251.3436  366.1623 LP  0  0  0  0  0  0  0  0  0  0  0  0  # atno 13551 bound_to 8500
  124.0654  250.1535  367.2796 LP  0  0  0  0  0  0  0  0  0  0  0  0  # atno 13552 bound_to 8500
  121.2203  254.8524  354.0344 LP  0  0  0  0  0  0  0  0  0  0  0  0  # atno 13567 bound_to 12876
  119.6401  255.1987  354.2575 LP  0  0  0  0  0  0  0  0  0  0  0  0  # atno 13568 bound_to 12876
  124.4621  249.6690  347.1908 LP  0  0  0  0  0  0  0  0  0  0  0  0  # atno 13569 bound_to 13433
  125.4701  250.7439  346.4871 LP  0  0  0  0  0  0  0  0  0  0  0  0  # atno 13570 bound_to 13433

> <Gold.Score>
     Fitness  S(hb_ext) S(vdw_ext)  S(hb_int)    S(int)      intcor
     37.69       5.86      23.99       0.00      -1.15      -0.77

> <Gold.Goldscore.Fitness>
37.6906

> <Gold.Goldscore.Internal.Vdw>
-1.3541

> <Gold.Goldscore.Internal.Torsion>
-0.5667

> <Gold.Goldscore.External.Vdw>
23.9894

> <Gold.Goldscore.Internal.HBond>
0.0000

> <Gold.Goldscore.External.HBond>
5.8568

> <Gold.Goldscore.Internal.Correction>
-0.7693

> <Gold.Goldscore.Hbonds>
donor molecule, donor type, donor heavy atom, donor atom, acceptor molecule, acceptor atom, score
      P1  H  5679  5707       L1    17  0.79
      L1  H    10    23       P1  9362  0.18

> <Gold.Goldscore.Internal.Vdw.Weighted>
-1.3541

> <Gold.Goldscore.Internal.Torsion.Weighted>
-0.5667

> <Gold.Goldscore.External.Vdw.Weighted>
32.9854

> <Gold.Goldscore.Internal.HBond.Weighted>
0.0000

> <Gold.Goldscore.External.HBond.Weighted>
5.8568

> <Gold.Goldscore.Internal.Correction.Weighted>
-0.7693

> <Gold.Rescore>
     Score     S(PLP)   S(hbond)     S(cho)   S(metal)  DE(clash)   DE(tors)     intcor
     28.45     -24.61       2.10       0.00       0.00       0.91       0.78       ----

> <Gold.PLP.Fitness>
28.4501

> <Gold.PLP.PLP>
-24.6145

> <Gold.PLP.part.hbond>
-6.1216

> <Gold.PLP.part.metal>
0.0000

> <Gold.PLP.part.buried>
6.7896

> <Gold.PLP.part.nonpolar>
-30.6105

> <Gold.PLP.part.repulsive>
3.4461

> <Gold.PLP.ligand.clash>
0.9143

> <Gold.PLP.ligand.torsion>
0.7752

> <Gold.PLP.Chemscore.Hbond>
2.1001

> <Gold.PLP.Chemscore.CHOScore>
0.0000

> <Gold.PLP.Chemscore.Metal>
0.0000

> <Gold.Chemscore.Hbonds>
donor molecule, donor type, donor heavy atom, donor atom, acceptor molecule, acceptor atom, score
      L1  H     8    22       P1  5570  0.01
      L1  H    10    23       P1  9362  0.59
      P1  H  5679  5707       L1    17  1.00

> <Gold.PLP.Chemscore.Internal.Correction>
   9.000000E+99

#       Name:                CT1002167954
#       Creating user name   hitesit
#       Creation time:       Sun Apr 16 22:51:13 2023


#       File generated by GOLD software.
#

@<TRIPOS>MOLECULE
CT1002167954|ligand_prepared|mol2|1|dock7
    29    30     1
SMALL
NO_CHARGES


@<TRIPOS>ATOM
      1 C1         123.0088 245.9393 358.0793 C.3            1 RES1               0.0000
      2 C2         122.5890 247.3675 358.4827 C.ar           1 RES1               0.0000
      3 C3         121.7295 245.1080 358.0532 C.2            1 RES1               0.0000
      4 C4         123.6976 246.0637 356.7248 C.2            1 RES1               0.0000
      5 C5         124.0035 245.2793 359.0623 C.3            1 RES1               0.0000
      6 C6         123.5162 248.2519 359.0258 C.ar           1 RES1               0.0000
      7 C7         121.2812 247.8152 358.3156 C.ar           1 RES1               0.0000
      8 N8         121.2253 244.7625 356.8341 N.am           1 RES1               0.0000
      9 O9         121.1502 244.7941 359.0858 O.2            1 RES1               0.0000
     10 N10        123.0934 245.4816 355.6413 N.am           1 RES1               0.0000
     11 O11        124.7497 246.6747 356.5830 O.2            1 RES1               0.0000
     12 C12        124.2980 243.8206 358.7495 C.3            1 RES1               0.0000
     13 C13        123.1502 249.5381 359.3861 C.ar           1 RES1               0.0000
     14 C14        120.9172 249.1019 358.6768 C.ar           1 RES1               0.0000
     15 C15        121.8730 244.8630 355.6291 C.2            1 RES1               0.0000
     16 C16        121.8507 249.9642 359.2115 C.ar           1 RES1               0.0000
     17 O17        121.3709 244.4119 354.6037 O.2            1 RES1               0.0000
     18 H18        124.9451 245.8417 359.0427 H              1 RES1               0.0000
     19 H19        123.5938 245.3468 360.0777 H              1 RES1               0.0000
     20 H20        124.5429 247.9336 359.1729 H              1 RES1               0.0000
     21 H21        120.5298 247.1539 357.8979 H              1 RES1               0.0000
     22 H22        120.2791 244.3954 356.8168 H              1 RES1               0.0000
     23 H23        123.6004 245.5122 354.7625 H              1 RES1               0.0000
     24 H24        125.0009 243.4061 359.4691 H              1 RES1               0.0000
     25 H25        123.3869 243.2269 358.7852 H              1 RES1               0.0000
     26 H26        124.7302 243.7189 357.7562 H              1 RES1               0.0000
     27 H27        123.8883 250.2124 359.8077 H              1 RES1               0.0000
     28 H28        119.8932 249.4327 358.5382 H              1 RES1               0.0000
     29 H29        121.5642 250.9720 359.4934 H              1 RES1               0.0000
@<TRIPOS>BOND
    1    1    2 1     
    2    1    3 1     
    3    1    4 1     
    4    1    5 1     
    5    2    6 ar    
    6    2    7 ar    
    7    3    8 1     
    8    3    9 2     
    9    4   10 1     
   10    4   11 2     
   11    5   12 1     
   12    5   18 1     
   13    5   19 1     
   14    6   13 ar    
   15    6   20 1     
   16    7   14 ar    
   17    7   21 1     
   18    8   15 1     
   19    8   22 1     
   20   10   15 1     
   21   10   23 1     
   22   12   24 1     
   23   12   25 1     
   24   12   26 1     
   25   13   16 ar    
   26   13   27 1     
   27   14   16 ar    
   28   14   28 1     
   29   15   17 2     
   30   16   29 1     
@<TRIPOS>SUBSTRUCTURE
      1 RES1           1
@<TRIPOS>SET
DONOR_HYDROGENS      STATIC     ATOMS    <user>   **** ""
2 22 23
ATOM$RED        STATIC     ATOMS    COLORGROUP SYSTEM
2 22 23
@<TRIPOS>COMMENT
> <Gold.Version>
2022.3.0

> <Gold.Id.Protein>
unknown|4uh6_clean|pdb

> <Gold.Protein.RotatedTorsions>
[ 9116 9086 9085 9083 ] final  108.58 input   60.02 | X-H torsion
[ 9012 8996 8995 8992 ] final  173.97 input   59.99 | X-H torsion
[ 8362 8332 8331 8329 ] final -163.99 input   59.98 | X-H torsion
[ 5561 5545 5544 5541 ] final  163.50 input   59.99 | X-H torsion
[ 8516 8500 8499 8496 ] final  128.26 input   60.00 | X-H torsion
[ 12904 12876 12875 12873 ] final  -25.00 input   59.99 | X-H torsion
[ 13458 13433 13432 13428 ] final -149.60 input   60.03 | X-H torsion
[ 9192 9171 9169 9166 ] final   98.14 input   60.01 | X-H torsion

> <Gold.Protein.ActiveResidues>
 TRP311  MET341  HIS342  TRP414  ARG419  CYS420  VAL421  GLY422  LEU429  LEU460 
 SER462  ALA463  ILE464  ASN481  SER482  GLN483  LEU484  ILE485  ARG486  ASP500 
 ALA502  ASN503  TRP566  TYR567  GLY568  LEU569  PRO570  ALA571  VAL572  SER573 
 ASN574  MET575  PRO588  PHE589  SER590  GLY591  TRP592  TYR593  MET594  GLY595 
 THR596  GLU597  ILE598  VAL600  ARG601  ASP602  TYR603  ASP605  ARG608  ILE653 
 VAL654  TRP683  PRO687  SER691  PHE696  HIS697  TYR711  HEM750  H4B760 

> <Gold.Protein.RotatedAtoms>
  127.7599  249.9400  361.6818 H   0  0  0  0  0  0  0  0  0  0  0  0  # atno 5561 bound_to 5545
  125.0804  243.3781  362.2567 H   0  0  0  0  0  0  0  0  0  0  0  0  # atno 8362 bound_to 8332
  124.7373  251.4324  367.7266 H   0  0  0  0  0  0  0  0  0  0  0  0  # atno 8516 bound_to 8500
  115.9960  244.6630  369.1285 H   0  0  0  0  0  0  0  0  0  0  0  0  # atno 9012 bound_to 8996
  122.4033  242.2963  361.7639 H   0  0  0  0  0  0  0  0  0  0  0  0  # atno 9116 bound_to 9086
  118.1693  240.7155  351.2563 H   0  0  0  0  0  0  0  0  0  0  0  0  # atno 9192 bound_to 9171
  120.8892  254.2319  355.1558 H   0  0  0  0  0  0  0  0  0  0  0  0  # atno 12904 bound_to 12876
  125.4735  250.7118  346.5822 H   0  0  0  0  0  0  0  0  0  0  0  0  # atno 13458 bound_to 13433
  122.8039  242.2517  360.1872 LP  0  0  0  0  0  0  0  0  0  0  0  0  # atno 13496 bound_to 9086
  123.2890  241.0576  361.1899 LP  0  0  0  0  0  0  0  0  0  0  0  0  # atno 13497 bound_to 9086
  114.7422  244.7948  368.0998 LP  0  0  0  0  0  0  0  0  0  0  0  0  # atno 13516 bound_to 8996
  115.2823  246.1082  368.9059 LP  0  0  0  0  0  0  0  0  0  0  0  0  # atno 13517 bound_to 8996
  125.7787  242.2832  361.2758 LP  0  0  0  0  0  0  0  0  0  0  0  0  # atno 13530 bound_to 8332
  126.6566  243.0172  362.4408 LP  0  0  0  0  0  0  0  0  0  0  0  0  # atno 13531 bound_to 8332
  126.9304  249.4160  362.9796 LP  0  0  0  0  0  0  0  0  0  0  0  0  # atno 13538 bound_to 5545
  128.4304  250.0353  363.1611 LP  0  0  0  0  0  0  0  0  0  0  0  0  # atno 13539 bound_to 5545
  124.1163  251.5216  366.2249 LP  0  0  0  0  0  0  0  0  0  0  0  0  # atno 13551 bound_to 8500
  123.9775  250.1425  367.0883 LP  0  0  0  0  0  0  0  0  0  0  0  0  # atno 13552 bound_to 8500
  120.8806  255.1165  353.7898 LP  0  0  0  0  0  0  0  0  0  0  0  0  # atno 13567 bound_to 12876
  119.5176  254.9652  354.6764 LP  0  0  0  0  0  0  0  0  0  0  0  0  # atno 13568 bound_to 12876
  124.2943  250.1758  345.5969 LP  0  0  0  0  0  0  0  0  0  0  0  0  # atno 13569 bound_to 13433
  124.3874  249.6329  347.1342 LP  0  0  0  0  0  0  0  0  0  0  0  0  # atno 13570 bound_to 13433

> <Gold.Score>
     Fitness  S(hb_ext) S(vdw_ext)  S(hb_int)    S(int)      intcor
     34.01       4.66      22.21       0.00      -1.19      -0.77

> <Gold.Goldscore.Fitness>
34.0104

> <Gold.Goldscore.Internal.Vdw>
-1.5191

> <Gold.Goldscore.Internal.Torsion>
-0.4362

> <Gold.Goldscore.External.Vdw>
22.2106

> <Gold.Goldscore.Internal.HBond>
0.0000

> <Gold.Goldscore.External.HBond>
4.6575

> <Gold.Goldscore.Internal.Correction>
-0.7686

> <Gold.Goldscore.Hbonds>
donor molecule, donor type, donor heavy atom, donor atom, acceptor molecule, acceptor atom, score
      L1  H     8    22       P1  9200  0.78

> <Gold.Goldscore.Internal.Vdw.Weighted>
-1.5191

> <Gold.Goldscore.Internal.Torsion.Weighted>
-0.4362

> <Gold.Goldscore.External.Vdw.Weighted>
30.5395

> <Gold.Goldscore.Internal.HBond.Weighted>
0.0000

> <Gold.Goldscore.External.HBond.Weighted>
4.6575

> <Gold.Goldscore.Internal.Correction.Weighted>
-0.7686

> <Gold.Rescore>
     Score     S(PLP)   S(hbond)     S(cho)   S(metal)  DE(clash)   DE(tors)     intcor
     21.36     -19.97       1.00       0.00       0.00       0.77       0.42       ----

> <Gold.PLP.Fitness>
21.3566

> <Gold.PLP.PLP>
-19.9745

> <Gold.PLP.part.hbond>
-2.0059

> <Gold.PLP.part.metal>
0.0000

> <Gold.PLP.part.buried>
1.1126

> <Gold.PLP.part.nonpolar>
-19.8174

> <Gold.PLP.part.repulsive>
0.4918

> <Gold.PLP.ligand.clash>
0.7749

> <Gold.PLP.ligand.torsion>
0.4215

> <Gold.PLP.Chemscore.Hbond>
1.0000

> <Gold.PLP.Chemscore.CHOScore>
0.0000

> <Gold.PLP.Chemscore.Metal>
0.0000

> <Gold.Chemscore.Hbonds>
donor molecule, donor type, donor heavy atom, donor atom, acceptor molecule, acceptor atom, score
      L1  H     8    22       P1  9200  0.96

> <Gold.PLP.Chemscore.Internal.Correction>
   9.000000E+99

#       Name:                CT1002167954
#       Creating user name   hitesit
#       Creation time:       Sun Apr 16 22:51:15 2023


#       File generated by GOLD software.
#

@<TRIPOS>MOLECULE
CT1002167954|ligand_prepared|mol2|1|dock9
    29    30     1
SMALL
NO_CHARGES


@<TRIPOS>ATOM
      1 C1         122.1782 248.3207 358.6597 C.3            1 RES1               0.0000
      2 C2         120.8740 247.5297 358.8881 C.ar           1 RES1               0.0000
      3 C3         121.8137 249.4969 357.7586 C.2            1 RES1               0.0000
      4 C4         122.6782 248.7272 360.0415 C.2            1 RES1               0.0000
      5 C5         123.2935 247.5009 357.9701 C.3            1 RES1               0.0000
      6 C6         120.9125 246.2195 359.3555 C.ar           1 RES1               0.0000
      7 C7         119.6270 248.0967 358.6388 C.ar           1 RES1               0.0000
      8 N8         121.7559 250.7348 358.3279 N.am           1 RES1               0.0000
      9 O9         121.5425 249.3352 356.5752 O.2            1 RES1               0.0000
     10 N10        122.7004 250.0623 360.3492 N.am           1 RES1               0.0000
     11 O11        123.0374 247.9022 360.8726 O.2            1 RES1               0.0000
     12 C12        124.5158 248.3235 357.5939 C.3            1 RES1               0.0000
     13 C13        119.7466 245.5029 359.5689 C.ar           1 RES1               0.0000
     14 C14        118.4622 247.3783 358.8527 C.ar           1 RES1               0.0000
     15 C15        122.2331 251.0824 359.5661 C.2            1 RES1               0.0000
     16 C16        118.5208 246.0819 359.3181 C.ar           1 RES1               0.0000
     17 O17        122.2370 252.2535 359.9345 O.2            1 RES1               0.0000
     18 H18        123.6053 246.6928 358.6433 H              1 RES1               0.0000
     19 H19        122.8840 247.0415 357.0620 H              1 RES1               0.0000
     20 H20        121.8680 245.7464 359.5561 H              1 RES1               0.0000
     21 H21        119.5568 249.1149 358.2713 H              1 RES1               0.0000
     22 H22        121.3173 251.4701 357.7826 H              1 RES1               0.0000
     23 H23        123.1028 250.3196 361.2449 H              1 RES1               0.0000
     24 H24        125.2673 247.7003 357.1137 H              1 RES1               0.0000
     25 H25        124.2466 249.1214 356.9050 H              1 RES1               0.0000
     26 H26        124.9636 248.7748 358.4769 H              1 RES1               0.0000
     27 H27        119.7981 244.4825 359.9339 H              1 RES1               0.0000
     28 H28        117.4997 247.8377 358.6534 H              1 RES1               0.0000
     29 H29        117.6076 245.5205 359.4857 H              1 RES1               0.0000
@<TRIPOS>BOND
    1    1    2 1     
    2    1    3 1     
    3    1    4 1     
    4    1    5 1     
    5    2    6 ar    
    6    2    7 ar    
    7    3    8 1     
    8    3    9 2     
    9    4   10 1     
   10    4   11 2     
   11    5   12 1     
   12    5   18 1     
   13    5   19 1     
   14    6   13 ar    
   15    6   20 1     
   16    7   14 ar    
   17    7   21 1     
   18    8   15 1     
   19    8   22 1     
   20   10   15 1     
   21   10   23 1     
   22   12   24 1     
   23   12   25 1     
   24   12   26 1     
   25   13   16 ar    
   26   13   27 1     
   27   14   16 ar    
   28   14   28 1     
   29   15   17 2     
   30   16   29 1     
@<TRIPOS>SUBSTRUCTURE
      1 RES1           1
@<TRIPOS>SET
DONOR_HYDROGENS      STATIC     ATOMS    <user>   **** ""
2 22 23
ATOM$RED        STATIC     ATOMS    COLORGROUP SYSTEM
2 22 23
@<TRIPOS>COMMENT
> <Gold.Version>
2022.3.0

> <Gold.Id.Protein>
unknown|4uh6_clean|pdb

> <Gold.Protein.RotatedTorsions>
[ 9116 9086 9085 9083 ] final    1.65 input   60.02 | X-H torsion
[ 9012 8996 8995 8992 ] final   56.65 input   59.99 | X-H torsion
[ 8362 8332 8331 8329 ] final  127.42 input   59.98 | X-H torsion
[ 5561 5545 5544 5541 ] final   51.05 input   59.99 | X-H torsion
[ 8516 8500 8499 8496 ] final  158.64 input   60.00 | X-H torsion
[ 12904 12876 12875 12873 ] final  -11.81 input   59.99 | X-H torsion
[ 13458 13433 13432 13428 ] final  -67.10 input   60.03 | X-H torsion
[ 9192 9171 9169 9166 ] final   90.24 input   60.01 | X-H torsion

> <Gold.Protein.ActiveResidues>
 TRP311  MET341  HIS342  TRP414  ARG419  CYS420  VAL421  GLY422  LEU429  LEU460 
 SER462  ALA463  ILE464  ASN481  SER482  GLN483  LEU484  ILE485  ARG486  ASP500 
 ALA502  ASN503  TRP566  TYR567  GLY568  LEU569  PRO570  ALA571  VAL572  SER573 
 ASN574  MET575  PRO588  PHE589  SER590  GLY591  TRP592  TYR593  MET594  GLY595 
 THR596  GLU597  ILE598  VAL600  ARG601  ASP602  TYR603  ASP605  ARG608  ILE653 
 VAL654  TRP683  PRO687  SER691  PHE696  HIS697  TYR711  HEM750  H4B760 

> <Gold.Protein.RotatedAtoms>
  126.8914  249.4172  362.8619 H   0  0  0  0  0  0  0  0  0  0  0  0  # atno 5561 bound_to 5545
  125.0917  242.6780  361.4671 H   0  0  0  0  0  0  0  0  0  0  0  0  # atno 8362 bound_to 8332
  124.6337  250.9777  367.8794 H   0  0  0  0  0  0  0  0  0  0  0  0  # atno 8516 bound_to 8500
  114.7675  244.7596  368.1098 H   0  0  0  0  0  0  0  0  0  0  0  0  # atno 9012 bound_to 8996
  122.6879  242.3993  360.2900 H   0  0  0  0  0  0  0  0  0  0  0  0  # atno 9116 bound_to 9086
  118.2058  240.7004  351.3792 H   0  0  0  0  0  0  0  0  0  0  0  0  # atno 9192 bound_to 9171
  120.6986  254.2263  355.2557 H   0  0  0  0  0  0  0  0  0  0  0  0  # atno 12904 bound_to 12876
  124.8705  249.9373  347.3313 H   0  0  0  0  0  0  0  0  0  0  0  0  # atno 13458 bound_to 13433
  123.3296  241.0723  360.9797 LP  0  0  0  0  0  0  0  0  0  0  0  0  # atno 13496 bound_to 9086
  122.4767  242.1334  361.8815 LP  0  0  0  0  0  0  0  0  0  0  0  0  # atno 13497 bound_to 9086
  115.2486  246.1109  368.8780 LP  0  0  0  0  0  0  0  0  0  0  0  0  # atno 13516 bound_to 8996
  116.0136  244.6948  369.1541 LP  0  0  0  0  0  0  0  0  0  0  0  0  # atno 13517 bound_to 8996
  126.6654  242.4745  361.8288 LP  0  0  0  0  0  0  0  0  0  0  0  0  # atno 13530 bound_to 8332
  125.7585  243.5306  362.6825 LP  0  0  0  0  0  0  0  0  0  0  0  0  # atno 13531 bound_to 8332
  128.3611  249.9936  363.2553 LP  0  0  0  0  0  0  0  0  0  0  0  0  # atno 13538 bound_to 5545
  127.8747  249.9845  361.6965 LP  0  0  0  0  0  0  0  0  0  0  0  0  # atno 13539 bound_to 5545
  124.3621  251.8315  366.5208 LP  0  0  0  0  0  0  0  0  0  0  0  0  # atno 13551 bound_to 8500
  123.8359  250.2902  366.6387 LP  0  0  0  0  0  0  0  0  0  0  0  0  # atno 13552 bound_to 8500
  121.0497  255.0099  353.8731 LP  0  0  0  0  0  0  0  0  0  0  0  0  # atno 13567 bound_to 12876
  119.5402  255.0774  354.4925 LP  0  0  0  0  0  0  0  0  0  0  0  0  # atno 13568 bound_to 12876
  125.2904  250.7929  346.0122 LP  0  0  0  0  0  0  0  0  0  0  0  0  # atno 13569 bound_to 13433
  123.9983  249.7955  345.9647 LP  0  0  0  0  0  0  0  0  0  0  0  0  # atno 13570 bound_to 13433

> <Gold.Score>
     Fitness  S(hb_ext) S(vdw_ext)  S(hb_int)    S(int)      intcor
     32.86       5.76      20.56       0.00      -1.16      -0.77

> <Gold.Goldscore.Fitness>
32.8603

> <Gold.Goldscore.Internal.Vdw>
-1.4780

> <Gold.Goldscore.Internal.Torsion>
-0.4489

> <Gold.Goldscore.External.Vdw>
20.5553

> <Gold.Goldscore.Internal.HBond>
0.0000

> <Gold.Goldscore.External.HBond>
5.7551

> <Gold.Goldscore.Internal.Correction>
-0.7686

> <Gold.Goldscore.Hbonds>
donor molecule, donor type, donor heavy atom, donor atom, acceptor molecule, acceptor atom, score
      L1  H     8    22       P1 13292  0.93
      L1  H    10    23       P1  5543  0.09

> <Gold.Goldscore.Internal.Vdw.Weighted>
-1.4780

> <Gold.Goldscore.Internal.Torsion.Weighted>
-0.4489

> <Gold.Goldscore.External.Vdw.Weighted>
28.2635

> <Gold.Goldscore.Internal.HBond.Weighted>
0.0000

> <Gold.Goldscore.External.HBond.Weighted>
5.7551

> <Gold.Goldscore.Internal.Correction.Weighted>
-0.7686

> <Gold.Rescore>
     Score     S(PLP)   S(hbond)     S(cho)   S(metal)  DE(clash)   DE(tors)     intcor
     32.41     -30.40       1.17       0.00       0.00       0.00       0.76       ----

> <Gold.PLP.Fitness>
32.4076

> <Gold.PLP.PLP>
-30.4001

> <Gold.PLP.part.hbond>
-2.0000

> <Gold.PLP.part.metal>
0.0000

> <Gold.PLP.part.buried>
-3.4086

> <Gold.PLP.part.nonpolar>
-26.8138

> <Gold.PLP.part.repulsive>
1.1239

> <Gold.PLP.ligand.clash>
0.0000

> <Gold.PLP.ligand.torsion>
0.7579

> <Gold.PLP.Chemscore.Hbond>
1.1745

> <Gold.PLP.Chemscore.CHOScore>
0.0000

> <Gold.PLP.Chemscore.Metal>
0.0000

> <Gold.Chemscore.Hbonds>
donor molecule, donor type, donor heavy atom, donor atom, acceptor molecule, acceptor atom, score
      L1  H     8    22       P1 13292  1.00

> <Gold.PLP.Chemscore.Internal.Correction>
   9.000000E+99

#       Name:                CT1002167954
#       Creating user name   hitesit
#       Creation time:       Sun Apr 16 22:51:12 2023


#       File generated by GOLD software.
#

@<TRIPOS>MOLECULE
CT1002167954|ligand_prepared|mol2|1|dock6
    29    30     1
SMALL
NO_CHARGES


@<TRIPOS>ATOM
      1 C1         123.1452 245.7383 358.0489 C.3            1 RES1               0.0000
      2 C2         122.9550 247.2688 358.0450 C.ar           1 RES1               0.0000
      3 C3         121.7455 245.1325 358.0050 C.2            1 RES1               0.0000
      4 C4         124.0029 245.4119 356.8313 C.2            1 RES1               0.0000
      5 C5         123.8733 245.2024 359.3036 C.3            1 RES1               0.0000
      6 C6         122.9443 247.9785 356.8479 C.ar           1 RES1               0.0000
      7 C7         122.7866 247.9833 359.2281 C.ar           1 RES1               0.0000
      8 N8         121.3357 244.5730 356.8307 N.am           1 RES1               0.0000
      9 O9         120.9979 245.1801 358.9741 O.2            1 RES1               0.0000
     10 N10        123.4350 244.6757 355.8247 N.am           1 RES1               0.0000
     11 O11        125.1600 245.7997 356.7271 O.2            1 RES1               0.0000
     12 C12        124.3277 243.7567 359.1782 C.3            1 RES1               0.0000
     13 C13        122.7687 249.3523 356.8338 C.ar           1 RES1               0.0000
     14 C14        122.6114 249.3572 359.2117 C.ar           1 RES1               0.0000
     15 C15        122.1308 244.2676 355.7554 C.2            1 RES1               0.0000
     16 C16        122.6017 250.0425 358.0154 C.ar           1 RES1               0.0000
     17 O17        121.6801 243.6556 354.7914 O.2            1 RES1               0.0000
     18 H18        124.7498 245.8324 359.4993 H              1 RES1               0.0000
     19 H19        123.2001 245.2873 360.1657 H              1 RES1               0.0000
     20 H20        123.0767 247.4527 355.9081 H              1 RES1               0.0000
     21 H21        122.7919 247.4653 360.1811 H              1 RES1               0.0000
     22 H22        120.3466 244.3622 356.7440 H              1 RES1               0.0000
     23 H23        124.0407 244.4068 355.0558 H              1 RES1               0.0000
     24 H24        124.8323 243.4310 360.0853 H              1 RES1               0.0000
     25 H25        123.4781 243.0987 359.0081 H              1 RES1               0.0000
     26 H26        125.0185 243.6405 358.3457 H              1 RES1               0.0000
     27 H27        122.7632 249.8871 355.8897 H              1 RES1               0.0000
     28 H28        122.4810 249.8964 360.1442 H              1 RES1               0.0000
     29 H29        122.4638 251.1186 358.0041 H              1 RES1               0.0000
@<TRIPOS>BOND
    1    1    2 1     
    2    1    3 1     
    3    1    4 1     
    4    1    5 1     
    5    2    6 ar    
    6    2    7 ar    
    7    3    8 1     
    8    3    9 2     
    9    4   10 1     
   10    4   11 2     
   11    5   12 1     
   12    5   18 1     
   13    5   19 1     
   14    6   13 ar    
   15    6   20 1     
   16    7   14 ar    
   17    7   21 1     
   18    8   15 1     
   19    8   22 1     
   20   10   15 1     
   21   10   23 1     
   22   12   24 1     
   23   12   25 1     
   24   12   26 1     
   25   13   16 ar    
   26   13   27 1     
   27   14   16 ar    
   28   14   28 1     
   29   15   17 2     
   30   16   29 1     
@<TRIPOS>SUBSTRUCTURE
      1 RES1           1
@<TRIPOS>SET
DONOR_HYDROGENS      STATIC     ATOMS    <user>   **** ""
2 22 23
ATOM$RED        STATIC     ATOMS    COLORGROUP SYSTEM
2 22 23
@<TRIPOS>COMMENT
> <Gold.Version>
2022.3.0

> <Gold.Id.Protein>
unknown|4uh6_clean|pdb

> <Gold.Protein.RotatedTorsions>
[ 9116 9086 9085 9083 ] final -157.53 input   60.02 | X-H torsion
[ 9012 8996 8995 8992 ] final  -43.40 input   59.99 | X-H torsion
[ 8362 8332 8331 8329 ] final  -94.41 input   59.98 | X-H torsion
[ 5561 5545 5544 5541 ] final  152.72 input   59.99 | X-H torsion
[ 8516 8500 8499 8496 ] final  141.31 input   60.00 | X-H torsion
[ 12904 12876 12875 12873 ] final    0.32 input   59.99 | X-H torsion
[ 13458 13433 13432 13428 ] final  -22.16 input   60.03 | X-H torsion
[ 9192 9171 9169 9166 ] final -107.93 input   60.01 | X-H torsion

> <Gold.Protein.ActiveResidues>
 TRP311  MET341  HIS342  TRP414  ARG419  CYS420  VAL421  GLY422  LEU429  LEU460 
 SER462  ALA463  ILE464  ASN481  SER482  GLN483  LEU484  ILE485  ARG486  ASP500 
 ALA502  ASN503  TRP566  TYR567  GLY568  LEU569  PRO570  ALA571  VAL572  SER573 
 ASN574  MET575  PRO588  PHE589  SER590  GLY591  TRP592  TYR593  MET594  GLY595 
 THR596  GLU597  ILE598  VAL600  ARG601  ASP602  TYR603  ASP605  ARG608  ILE653 
 VAL654  TRP683  PRO687  SER691  PHE696  HIS697  TYR711  HEM750  H4B760 

> <Gold.Protein.RotatedAtoms>
  127.5981  249.8711  361.6787 H   0  0  0  0  0  0  0  0  0  0  0  0  # atno 5561 bound_to 5545
  126.0445  243.4564  362.7110 H   0  0  0  0  0  0  0  0  0  0  0  0  # atno 8362 bound_to 8332
  124.7074  251.2436  367.8200 H   0  0  0  0  0  0  0  0  0  0  0  0  # atno 8516 bound_to 8500
  115.0112  246.0615  368.6608 H   0  0  0  0  0  0  0  0  0  0  0  0  # atno 9012 bound_to 8996
  123.1363  241.1566  361.5733 H   0  0  0  0  0  0  0  0  0  0  0  0  # atno 9116 bound_to 9086
  116.9097  239.3986  351.1665 H   0  0  0  0  0  0  0  0  0  0  0  0  # atno 9192 bound_to 9171
  120.5108  254.2466  355.3144 H   0  0  0  0  0  0  0  0  0  0  0  0  # atno 12904 bound_to 12876
  124.3029  249.6030  347.0513 H   0  0  0  0  0  0  0  0  0  0  0  0  # atno 13458 bound_to 13433
  122.3228  242.5599  361.4411 LP  0  0  0  0  0  0  0  0  0  0  0  0  # atno 13496 bound_to 9086
  123.0320  241.8971  360.1279 LP  0  0  0  0  0  0  0  0  0  0  0  0  # atno 13497 bound_to 9086
  116.0690  244.9911  369.2795 LP  0  0  0  0  0  0  0  0  0  0  0  0  # atno 13516 bound_to 8996
  114.9477  244.5030  368.1974 LP  0  0  0  0  0  0  0  0  0  0  0  0  # atno 13517 bound_to 8996
  124.9615  242.8795  361.6420 LP  0  0  0  0  0  0  0  0  0  0  0  0  # atno 13530 bound_to 8332
  126.5033  242.3421  361.6172 LP  0  0  0  0  0  0  0  0  0  0  0  0  # atno 13531 bound_to 8332
  127.0164  249.4331  363.1335 LP  0  0  0  0  0  0  0  0  0  0  0  0  # atno 13538 bound_to 5545
  128.5074  250.0876  363.0103 LP  0  0  0  0  0  0  0  0  0  0  0  0  # atno 13539 bound_to 5545
  124.2202  251.6772  366.3290 LP  0  0  0  0  0  0  0  0  0  0  0  0  # atno 13551 bound_to 8500
  123.9036  250.1768  366.8902 LP  0  0  0  0  0  0  0  0  0  0  0  0  # atno 13552 bound_to 8500
  121.1765  254.9006  353.9810 LP  0  0  0  0  0  0  0  0  0  0  0  0  # atno 13567 bound_to 12876
  119.6025  255.1663  354.3255 LP  0  0  0  0  0  0  0  0  0  0  0  0  # atno 13568 bound_to 12876
  125.4807  250.6685  346.6961 LP  0  0  0  0  0  0  0  0  0  0  0  0  # atno 13569 bound_to 13433
  124.3796  250.2565  345.5628 LP  0  0  0  0  0  0  0  0  0  0  0  0  # atno 13570 bound_to 13433

> <Gold.Score>
     Fitness  S(hb_ext) S(vdw_ext)  S(hb_int)    S(int)      intcor
     32.42       4.14      20.97       0.00      -0.56      -0.77

> <Gold.Goldscore.Fitness>
32.4153

> <Gold.Goldscore.Internal.Vdw>
-0.7182

> <Gold.Goldscore.Internal.Torsion>
-0.6074

> <Gold.Goldscore.External.Vdw>
20.9657

> <Gold.Goldscore.Internal.HBond>
0.0000

> <Gold.Goldscore.External.HBond>
4.1437

> <Gold.Goldscore.Internal.Correction>
-0.7693

> <Gold.Goldscore.Hbonds>
donor molecule, donor type, donor heavy atom, donor atom, acceptor molecule, acceptor atom, score
      L1  H     8    22       P1  9200  0.69

> <Gold.Goldscore.Internal.Vdw.Weighted>
-0.7182

> <Gold.Goldscore.Internal.Torsion.Weighted>
-0.6074

> <Gold.Goldscore.External.Vdw.Weighted>
28.8279

> <Gold.Goldscore.Internal.HBond.Weighted>
0.0000

> <Gold.Goldscore.External.HBond.Weighted>
4.1437

> <Gold.Goldscore.Internal.Correction.Weighted>
-0.7693

> <Gold.Rescore>
     Score     S(PLP)   S(hbond)     S(cho)   S(metal)  DE(clash)   DE(tors)     intcor
     18.15     -17.35       0.99       0.00       0.00       0.00       1.09       ----

> <Gold.PLP.Fitness>
18.1536

> <Gold.PLP.PLP>
-17.3530

> <Gold.PLP.part.hbond>
-2.1295

> <Gold.PLP.part.metal>
0.0000

> <Gold.PLP.part.buried>
1.3456

> <Gold.PLP.part.nonpolar>
-17.6923

> <Gold.PLP.part.repulsive>
0.5305

> <Gold.PLP.ligand.clash>
0.0000

> <Gold.PLP.ligand.torsion>
1.0866

> <Gold.PLP.Chemscore.Hbond>
0.9913

> <Gold.PLP.Chemscore.CHOScore>
0.0000

> <Gold.PLP.Chemscore.Metal>
0.0000

> <Gold.Chemscore.Hbonds>
donor molecule, donor type, donor heavy atom, donor atom, acceptor molecule, acceptor atom, score
      L1  H     8    22       P1  9200  1.00

> <Gold.PLP.Chemscore.Internal.Correction>
   9.000000E+99

#       Name:                CT1002167954
#       Creating user name   hitesit
#       Creation time:       Sun Apr 16 22:51:10 2023


#       File generated by GOLD software.
#

@<TRIPOS>MOLECULE
CT1002167954|ligand_prepared|mol2|1|dock4
    29    30     1
SMALL
NO_CHARGES


@<TRIPOS>ATOM
      1 C1         122.7178 245.9397 358.6139 C.3            1 RES1               0.0000
      2 C2         123.8759 246.9432 358.7881 C.ar           1 RES1               0.0000
      3 C3         122.0786 246.2532 357.2643 C.2            1 RES1               0.0000
      4 C4         123.3403 244.5506 358.6999 C.2            1 RES1               0.0000
      5 C5         121.6303 246.0444 359.7085 C.3            1 RES1               0.0000
      6 C6         124.8694 247.0538 357.8199 C.ar           1 RES1               0.0000
      7 C7         123.9628 247.7656 359.9084 C.ar           1 RES1               0.0000
      8 N8         122.3149 245.3878 356.2371 N.am           1 RES1               0.0000
      9 O9         121.4100 247.2651 357.0935 O.2            1 RES1               0.0000
     10 N10        123.3139 243.7646 357.5777 N.am           1 RES1               0.0000
     11 O11        123.8683 244.1360 359.7244 O.2            1 RES1               0.0000
     12 C12        120.4507 245.1097 359.4923 C.3            1 RES1               0.0000
     13 C13        125.9105 247.9558 357.9648 C.ar           1 RES1               0.0000
     14 C14        125.0049 248.6668 360.0514 C.ar           1 RES1               0.0000
     15 C15        122.8568 244.1319 356.3414 C.2            1 RES1               0.0000
     16 C16        125.9787 248.7631 359.0802 C.ar           1 RES1               0.0000
     17 O17        122.9166 243.3879 355.3667 O.2            1 RES1               0.0000
     18 H18        122.0854 245.8195 360.6810 H              1 RES1               0.0000
     19 H19        121.2612 247.0769 359.7419 H              1 RES1               0.0000
     20 H20        124.8338 246.4250 356.9365 H              1 RES1               0.0000
     21 H21        123.2085 247.7063 360.6856 H              1 RES1               0.0000
     22 H22        122.0657 245.7036 355.3052 H              1 RES1               0.0000
     23 H23        123.6677 242.8180 357.6728 H              1 RES1               0.0000
     24 H24        119.7175 245.2235 360.2880 H              1 RES1               0.0000
     25 H25        119.9587 245.3222 358.5453 H              1 RES1               0.0000
     26 H26        120.7781 244.0722 359.4789 H              1 RES1               0.0000
     27 H27        126.6751 248.0267 357.1983 H              1 RES1               0.0000
     28 H28        125.0549 249.2997 360.9312 H              1 RES1               0.0000
     29 H29        126.7941 249.4699 359.1933 H              1 RES1               0.0000
@<TRIPOS>BOND
    1    1    2 1     
    2    1    3 1     
    3    1    4 1     
    4    1    5 1     
    5    2    6 ar    
    6    2    7 ar    
    7    3    8 1     
    8    3    9 2     
    9    4   10 1     
   10    4   11 2     
   11    5   12 1     
   12    5   18 1     
   13    5   19 1     
   14    6   13 ar    
   15    6   20 1     
   16    7   14 ar    
   17    7   21 1     
   18    8   15 1     
   19    8   22 1     
   20   10   15 1     
   21   10   23 1     
   22   12   24 1     
   23   12   25 1     
   24   12   26 1     
   25   13   16 ar    
   26   13   27 1     
   27   14   16 ar    
   28   14   28 1     
   29   15   17 2     
   30   16   29 1     
@<TRIPOS>SUBSTRUCTURE
      1 RES1           1
@<TRIPOS>SET
DONOR_HYDROGENS      STATIC     ATOMS    <user>   **** ""
2 22 23
ATOM$RED        STATIC     ATOMS    COLORGROUP SYSTEM
2 22 23
@<TRIPOS>COMMENT
> <Gold.Version>
2022.3.0

> <Gold.Id.Protein>
unknown|4uh6_clean|pdb

> <Gold.Protein.RotatedTorsions>
[ 9116 9086 9085 9083 ] final  -52.90 input   60.02 | X-H torsion
[ 9012 8996 8995 8992 ] final  -83.19 input   59.99 | X-H torsion
[ 8362 8332 8331 8329 ] final  138.62 input   59.98 | X-H torsion
[ 5561 5545 5544 5541 ] final  143.07 input   59.99 | X-H torsion
[ 8516 8500 8499 8496 ] final  -36.13 input   60.00 | X-H torsion
[ 12904 12876 12875 12873 ] final   64.57 input   59.99 | X-H torsion
[ 13458 13433 13432 13428 ] final   70.15 input   60.03 | X-H torsion
[ 9192 9171 9169 9166 ] final  -81.40 input   60.01 | X-H torsion

> <Gold.Protein.ActiveResidues>
 TRP311  MET341  HIS342  TRP414  ARG419  CYS420  VAL421  GLY422  LEU429  LEU460 
 SER462  ALA463  ILE464  ASN481  SER482  GLN483  LEU484  ILE485  ARG486  ASP500 
 ALA502  ASN503  TRP566  TYR567  GLY568  LEU569  PRO570  ALA571  VAL572  SER573 
 ASN574  MET575  PRO588  PHE589  SER590  GLY591  TRP592  TYR593  MET594  GLY595 
 THR596  GLU597  ILE598  VAL600  ARG601  ASP602  TYR603  ASP605  ARG608  ILE653 
 VAL654  TRP683  PRO687  SER691  PHE696  HIS697  TYR711  HEM750  H4B760 

> <Gold.Protein.RotatedAtoms>
  127.4564  249.8072  361.7036 H   0  0  0  0  0  0  0  0  0  0  0  0  # atno 5561 bound_to 5545
  125.0049  242.7997  361.5722 H   0  0  0  0  0  0  0  0  0  0  0  0  # atno 8362 bound_to 8332
  123.8538  250.8624  366.1975 H   0  0  0  0  0  0  0  0  0  0  0  0  # atno 8516 bound_to 8500
  115.4993  246.0382  369.0695 H   0  0  0  0  0  0  0  0  0  0  0  0  # atno 9012 bound_to 8996
  123.1459  241.6809  360.1872 H   0  0  0  0  0  0  0  0  0  0  0  0  # atno 9116 bound_to 9086
  116.9865  239.2995  351.5775 H   0  0  0  0  0  0  0  0  0  0  0  0  # atno 9192 bound_to 9171
  119.6525  254.6807  355.0561 H   0  0  0  0  0  0  0  0  0  0  0  0  # atno 12904 bound_to 12876
  124.1050  249.9629  345.7646 H   0  0  0  0  0  0  0  0  0  0  0  0  # atno 13458 bound_to 13433
  123.0208  241.2799  361.7595 LP  0  0  0  0  0  0  0  0  0  0  0  0  # atno 13496 bound_to 9086
  122.3245  242.6491  361.2052 LP  0  0  0  0  0  0  0  0  0  0  0  0  # atno 13497 bound_to 9086
  115.8783  244.4584  368.9767 LP  0  0  0  0  0  0  0  0  0  0  0  0  # atno 13516 bound_to 8996
  114.6467  245.0592  368.0885 LP  0  0  0  0  0  0  0  0  0  0  0  0  # atno 13517 bound_to 8996
  126.5744  242.3870  361.6951 LP  0  0  0  0  0  0  0  0  0  0  0  0  # atno 13530 bound_to 8332
  125.9369  243.4956  362.7105 LP  0  0  0  0  0  0  0  0  0  0  0  0  # atno 13531 bound_to 8332
  127.1141  249.4594  363.2556 LP  0  0  0  0  0  0  0  0  0  0  0  0  # atno 13538 bound_to 5545
  128.5524  250.1257  362.8631 LP  0  0  0  0  0  0  0  0  0  0  0  0  # atno 13539 bound_to 5545
  124.3166  250.3612  367.6751 LP  0  0  0  0  0  0  0  0  0  0  0  0  # atno 13551 bound_to 8500
  124.6665  251.8765  367.1772 LP  0  0  0  0  0  0  0  0  0  0  0  0  # atno 13552 bound_to 8500
  121.2265  254.3450  354.8142 LP  0  0  0  0  0  0  0  0  0  0  0  0  # atno 13567 bound_to 12876
  120.4166  255.2849  353.7523 LP  0  0  0  0  0  0  0  0  0  0  0  0  # atno 13568 bound_to 12876
  124.6450  249.7738  347.2881 LP  0  0  0  0  0  0  0  0  0  0  0  0  # atno 13569 bound_to 13433
  125.4145  250.7888  346.2662 LP  0  0  0  0  0  0  0  0  0  0  0  0  # atno 13570 bound_to 13433

> <Gold.Score>
     Fitness  S(hb_ext) S(vdw_ext)  S(hb_int)    S(int)      intcor
     32.07       4.66      19.97       0.00      -0.05      -0.77

> <Gold.Goldscore.Fitness>
32.0742

> <Gold.Goldscore.Internal.Vdw>
-0.4327

> <Gold.Goldscore.Internal.Torsion>
-0.3857

> <Gold.Goldscore.External.Vdw>
19.9750

> <Gold.Goldscore.Internal.HBond>
0.0000

> <Gold.Goldscore.External.HBond>
4.6577

> <Gold.Goldscore.Internal.Correction>
-0.7693

> <Gold.Goldscore.Hbonds>
donor molecule, donor type, donor heavy atom, donor atom, acceptor molecule, acceptor atom, score
      P1  H  8332  8362       L1    11  0.20
      L1  H    10    23       P1  9362  0.71

> <Gold.Goldscore.Internal.Vdw.Weighted>
-0.4327

> <Gold.Goldscore.Internal.Torsion.Weighted>
-0.3857

> <Gold.Goldscore.External.Vdw.Weighted>
27.4656

> <Gold.Goldscore.Internal.HBond.Weighted>
0.0000

> <Gold.Goldscore.External.HBond.Weighted>
4.6577

> <Gold.Goldscore.Internal.Correction.Weighted>
-0.7693

> <Gold.Rescore>
     Score     S(PLP)   S(hbond)     S(cho)   S(metal)  DE(clash)   DE(tors)     intcor
     14.53     -14.30       0.99       0.00       0.00       0.00       1.37       ----

> <Gold.PLP.Fitness>
14.5260

> <Gold.PLP.PLP>
-14.3008

> <Gold.PLP.part.hbond>
-2.1265

> <Gold.PLP.part.metal>
0.0000

> <Gold.PLP.part.buried>
3.3173

> <Gold.PLP.part.nonpolar>
-20.8132

> <Gold.PLP.part.repulsive>
4.6017

> <Gold.PLP.ligand.clash>
0.0000

> <Gold.PLP.ligand.torsion>
1.3743

> <Gold.PLP.Chemscore.Hbond>
0.9913

> <Gold.PLP.Chemscore.CHOScore>
0.0000

> <Gold.PLP.Chemscore.Metal>
0.0000

> <Gold.Chemscore.Hbonds>
donor molecule, donor type, donor heavy atom, donor atom, acceptor molecule, acceptor atom, score
      L1  H    10    23       P1  9362  0.51

> <Gold.PLP.Chemscore.Internal.Correction>
   9.000000E+99

#       Name:                CT1002167954
#       Creating user name   hitesit
#       Creation time:       Sun Apr 16 22:51:13 2023


#       File generated by GOLD software.
#

@<TRIPOS>MOLECULE
CT1002167954|ligand_prepared|mol2|1|dock8
    29    30     1
SMALL
NO_CHARGES


@<TRIPOS>ATOM
      1 C1         122.7248 247.9259 358.2759 C.3            1 RES1               0.0000
      2 C2         122.9708 246.9539 357.1039 C.ar           1 RES1               0.0000
      3 C3         122.3248 249.2589 357.6503 C.2            1 RES1               0.0000
      4 C4         121.6375 247.2910 359.1357 C.2            1 RES1               0.0000
      5 C5         123.9666 248.1553 359.1686 C.3            1 RES1               0.0000
      6 C6         121.9456 246.1403 356.6310 C.ar           1 RES1               0.0000
      7 C7         124.2146 246.8618 356.4850 C.ar           1 RES1               0.0000
      8 N8         121.0139 249.6264 357.7305 N.am           1 RES1               0.0000
      9 O9         123.1395 249.9582 357.0609 O.2            1 RES1               0.0000
     10 N10        120.4283 247.9305 359.2174 N.am           1 RES1               0.0000
     11 O11        121.8114 246.2341 359.7298 O.2            1 RES1               0.0000
     12 C12        123.6763 248.9542 360.4294 C.3            1 RES1               0.0000
     13 C13        122.1553 245.2682 355.5756 C.ar           1 RES1               0.0000
     14 C14        124.4222 245.9888 355.4298 C.ar           1 RES1               0.0000
     15 C15        120.0571 249.0534 358.5292 C.2            1 RES1               0.0000
     16 C16        123.3934 245.1922 354.9741 C.ar           1 RES1               0.0000
     17 O17        118.9326 249.5388 358.6135 O.2            1 RES1               0.0000
     18 H18        124.3801 247.1806 359.4555 H              1 RES1               0.0000
     19 H19        124.7293 248.6840 358.5835 H              1 RES1               0.0000
     20 H20        120.9652 246.1845 357.0935 H              1 RES1               0.0000
     21 H21        125.0389 247.4781 356.8275 H              1 RES1               0.0000
     22 H22        120.7175 250.3987 357.1422 H              1 RES1               0.0000
     23 H23        119.7413 247.5327 359.8500 H              1 RES1               0.0000
     24 H24        124.5809 249.0862 361.0192 H              1 RES1               0.0000
     25 H25        123.2870 249.9393 360.1808 H              1 RES1               0.0000
     26 H26        122.9399 248.4449 361.0477 H              1 RES1               0.0000
     27 H27        121.3427 244.6424 355.2216 H              1 RES1               0.0000
     28 H28        125.3984 245.9319 354.9598 H              1 RES1               0.0000
     29 H29        123.5573 244.5093 354.1471 H              1 RES1               0.0000
@<TRIPOS>BOND
    1    1    2 1     
    2    1    3 1     
    3    1    4 1     
    4    1    5 1     
    5    2    6 ar    
    6    2    7 ar    
    7    3    8 1     
    8    3    9 2     
    9    4   10 1     
   10    4   11 2     
   11    5   12 1     
   12    5   18 1     
   13    5   19 1     
   14    6   13 ar    
   15    6   20 1     
   16    7   14 ar    
   17    7   21 1     
   18    8   15 1     
   19    8   22 1     
   20   10   15 1     
   21   10   23 1     
   22   12   24 1     
   23   12   25 1     
   24   12   26 1     
   25   13   16 ar    
   26   13   27 1     
   27   14   16 ar    
   28   14   28 1     
   29   15   17 2     
   30   16   29 1     
@<TRIPOS>SUBSTRUCTURE
      1 RES1           1
@<TRIPOS>SET
DONOR_HYDROGENS      STATIC     ATOMS    <user>   **** ""
2 22 23
ATOM$RED        STATIC     ATOMS    COLORGROUP SYSTEM
2 22 23
@<TRIPOS>COMMENT
> <Gold.Version>
2022.3.0

> <Gold.Id.Protein>
unknown|4uh6_clean|pdb

> <Gold.Protein.RotatedTorsions>
[ 9116 9086 9085 9083 ] final   60.08 input   60.02 | X-H torsion
[ 9012 8996 8995 8992 ] final  171.10 input   59.99 | X-H torsion
[ 8362 8332 8331 8329 ] final  157.09 input   59.98 | X-H torsion
[ 5561 5545 5544 5541 ] final   49.70 input   59.99 | X-H torsion
[ 8516 8500 8499 8496 ] final   15.23 input   60.00 | X-H torsion
[ 12904 12876 12875 12873 ] final   55.50 input   59.99 | X-H torsion
[ 13458 13433 13432 13428 ] final  -75.74 input   60.03 | X-H torsion
[ 9192 9171 9169 9166 ] final  -49.64 input   60.01 | X-H torsion

> <Gold.Protein.ActiveResidues>
 TRP311  MET341  HIS342  TRP414  ARG419  CYS420  VAL421  GLY422  LEU429  LEU460 
 SER462  ALA463  ILE464  ASN481  SER482  GLN483  LEU484  ILE485  ARG486  ASP500 
 ALA502  ASN503  TRP566  TYR567  GLY568  LEU569  PRO570  ALA571  VAL572  SER573 
 ASN574  MET575  PRO588  PHE589  SER590  GLY591  TRP592  TYR593  MET594  GLY595 
 THR596  GLU597  ILE598  VAL600  ARG601  ASP602  TYR603  ASP605  ARG608  ILE653 
 VAL654  TRP683  PRO687  SER691  PHE696  HIS697  TYR711  HEM750  H4B760 

> <Gold.Protein.RotatedAtoms>
  126.8982  249.4174  362.8829 H   0  0  0  0  0  0  0  0  0  0  0  0  # atno 5561 bound_to 5545
  124.9319  243.0059  361.7784 H   0  0  0  0  0  0  0  0  0  0  0  0  # atno 8362 bound_to 8332
  124.1692  251.6055  366.2817 H   0  0  0  0  0  0  0  0  0  0  0  0  # atno 8516 bound_to 8500
  115.9797  244.6259  369.1048 H   0  0  0  0  0  0  0  0  0  0  0  0  # atno 9012 bound_to 8996
  122.3389  242.6649  361.0919 H   0  0  0  0  0  0  0  0  0  0  0  0  # atno 9116 bound_to 9086
  117.2386  239.3767  352.0170 H   0  0  0  0  0  0  0  0  0  0  0  0  # atno 9192 bound_to 9171
  119.7354  254.5969  355.1456 H   0  0  0  0  0  0  0  0  0  0  0  0  # atno 12904 bound_to 12876
  124.9802  250.0259  347.3253 H   0  0  0  0  0  0  0  0  0  0  0  0  # atno 13458 bound_to 13433
  123.1968  241.5855  360.2274 LP  0  0  0  0  0  0  0  0  0  0  0  0  # atno 13496 bound_to 9086
  122.9611  241.3527  361.8264 LP  0  0  0  0  0  0  0  0  0  0  0  0  # atno 13497 bound_to 9086
  114.7222  244.8373  368.0941 LP  0  0  0  0  0  0  0  0  0  0  0  0  # atno 13516 bound_to 8996
  115.3188  246.1032  368.9356 LP  0  0  0  0  0  0  0  0  0  0  0  0  # atno 13517 bound_to 8996
  126.3650  242.2861  361.5013 LP  0  0  0  0  0  0  0  0  0  0  0  0  # atno 13530 bound_to 8332
  126.2197  243.3890  362.6968 LP  0  0  0  0  0  0  0  0  0  0  0  0  # atno 13531 bound_to 8332
  128.3744  250.0013  363.2392 LP  0  0  0  0  0  0  0  0  0  0  0  0  # atno 13538 bound_to 5545
  127.8545  249.9765  361.6914 LP  0  0  0  0  0  0  0  0  0  0  0  0  # atno 13539 bound_to 5545
  123.9358  250.1552  366.9822 LP  0  0  0  0  0  0  0  0  0  0  0  0  # atno 13551 bound_to 8500
  124.7298  251.3346  367.7854 LP  0  0  0  0  0  0  0  0  0  0  0  0  # atno 13552 bound_to 8500
  121.2866  254.4056  354.6920 LP  0  0  0  0  0  0  0  0  0  0  0  0  # atno 13567 bound_to 12876
  120.2731  255.3087  353.7844 LP  0  0  0  0  0  0  0  0  0  0  0  0  # atno 13568 bound_to 12876
  125.2081  250.7739  345.8980 LP  0  0  0  0  0  0  0  0  0  0  0  0  # atno 13569 bound_to 13433
  123.9703  249.7253  346.0850 LP  0  0  0  0  0  0  0  0  0  0  0  0  # atno 13570 bound_to 13433

> <Gold.Score>
     Fitness  S(hb_ext) S(vdw_ext)  S(hb_int)    S(int)      intcor
     30.53       4.04      19.77       0.00      -0.70      -0.77

> <Gold.Goldscore.Fitness>
30.5271

> <Gold.Goldscore.Internal.Vdw>
-0.9979

> <Gold.Goldscore.Internal.Torsion>
-0.4699

> <Gold.Goldscore.External.Vdw>
19.7688

> <Gold.Goldscore.Internal.HBond>
0.0000

> <Gold.Goldscore.External.HBond>
4.0442

> <Gold.Goldscore.Internal.Correction>
-0.7686

> <Gold.Goldscore.Hbonds>
donor molecule, donor type, donor heavy atom, donor atom, acceptor molecule, acceptor atom, score
      L1  H     8    22       P1 13292  0.67

> <Gold.Goldscore.Internal.Vdw.Weighted>
-0.9979

> <Gold.Goldscore.Internal.Torsion.Weighted>
-0.4699

> <Gold.Goldscore.External.Vdw.Weighted>
27.1821

> <Gold.Goldscore.Internal.HBond.Weighted>
0.0000

> <Gold.Goldscore.External.HBond.Weighted>
4.0442

> <Gold.Goldscore.Internal.Correction.Weighted>
-0.7686

> <Gold.Rescore>
     Score     S(PLP)   S(hbond)     S(cho)   S(metal)  DE(clash)   DE(tors)     intcor
     25.17     -24.63       0.99       0.00       0.00       2.10       0.17       ----

> <Gold.PLP.Fitness>
25.1736

> <Gold.PLP.PLP>
-24.6299

> <Gold.PLP.part.hbond>
-3.0000

> <Gold.PLP.part.metal>
0.0000

> <Gold.PLP.part.buried>
-2.4653

> <Gold.PLP.part.nonpolar>
-19.6845

> <Gold.PLP.part.repulsive>
0.3617

> <Gold.PLP.ligand.clash>
2.0963

> <Gold.PLP.ligand.torsion>
0.1669

> <Gold.PLP.Chemscore.Hbond>
0.9913

> <Gold.PLP.Chemscore.CHOScore>
0.0000

> <Gold.PLP.Chemscore.Metal>
0.0000

> <Gold.Chemscore.Hbonds>
donor molecule, donor type, donor heavy atom, donor atom, acceptor molecule, acceptor atom, score
      L1  H     8    22       P1 13292  1.00

> <Gold.PLP.Chemscore.Internal.Correction>
   9.000000E+99

#       Name:                CT1002167954
#       Creating user name   hitesit
#       Creation time:       Sun Apr 16 22:51:15 2023


#       File generated by GOLD software.
#

@<TRIPOS>MOLECULE
CT1002167954|ligand_prepared|mol2|1|dock10
    29    30     1
SMALL
NO_CHARGES


@<TRIPOS>ATOM
      1 C1         123.7223 248.0269 357.4176 C.3            1 RES1               0.0000
      2 C2         123.3093 246.7240 356.7031 C.ar           1 RES1               0.0000
      3 C3         124.9502 248.5503 356.6783 C.2            1 RES1               0.0000
      4 C4         122.5131 248.9530 357.3488 C.2            1 RES1               0.0000
      5 C5         124.0913 247.8329 358.9068 C.3            1 RES1               0.0000
      6 C6         123.2605 246.6626 355.3136 C.ar           1 RES1               0.0000
      7 C7         122.9774 245.5765 357.4185 C.ar           1 RES1               0.0000
      8 N8         124.7864 249.6381 355.8722 N.am           1 RES1               0.0000
      9 O9         126.0371 247.9930 356.7702 O.2            1 RES1               0.0000
     10 N10        122.6252 250.1016 356.6098 N.am           1 RES1               0.0000
     11 O11        121.4587 248.6903 357.9141 O.2            1 RES1               0.0000
     12 C12        124.7164 249.0614 359.5487 C.3            1 RES1               0.0000
     13 C13        122.8961 245.4956 354.6628 C.ar           1 RES1               0.0000
     14 C14        122.6129 244.4106 356.7656 C.ar           1 RES1               0.0000
     15 C15        123.6968 250.4709 355.8434 C.2            1 RES1               0.0000
     16 C16        122.5725 244.3688 355.3882 C.ar           1 RES1               0.0000
     17 O17        123.7019 251.4927 355.1629 O.2            1 RES1               0.0000
     18 H18        123.1844 247.5664 359.4635 H              1 RES1               0.0000
     19 H19        124.7942 246.9948 358.9901 H              1 RES1               0.0000
     20 H20        123.5094 247.5400 354.7260 H              1 RES1               0.0000
     21 H21        123.0012 245.5865 358.5029 H              1 RES1               0.0000
     22 H22        125.5441 249.8521 355.2316 H              1 RES1               0.0000
     23 H23        121.8368 250.7405 356.6335 H              1 RES1               0.0000
     24 H24        124.9560 248.8714 360.5928 H              1 RES1               0.0000
     25 H25        125.6346 249.3398 359.0356 H              1 RES1               0.0000
     26 H26        124.0343 249.9081 359.5061 H              1 RES1               0.0000
     27 H27        122.8645 245.4683 353.5786 H              1 RES1               0.0000
     28 H28        122.3585 243.5263 357.3406 H              1 RES1               0.0000
     29 H29        122.2874 243.4546 354.8781 H              1 RES1               0.0000
@<TRIPOS>BOND
    1    1    2 1     
    2    1    3 1     
    3    1    4 1     
    4    1    5 1     
    5    2    6 ar    
    6    2    7 ar    
    7    3    8 1     
    8    3    9 2     
    9    4   10 1     
   10    4   11 2     
   11    5   12 1     
   12    5   18 1     
   13    5   19 1     
   14    6   13 ar    
   15    6   20 1     
   16    7   14 ar    
   17    7   21 1     
   18    8   15 1     
   19    8   22 1     
   20   10   15 1     
   21   10   23 1     
   22   12   24 1     
   23   12   25 1     
   24   12   26 1     
   25   13   16 ar    
   26   13   27 1     
   27   14   16 ar    
   28   14   28 1     
   29   15   17 2     
   30   16   29 1     
@<TRIPOS>SUBSTRUCTURE
      1 RES1           1
@<TRIPOS>SET
DONOR_HYDROGENS      STATIC     ATOMS    <user>   **** ""
2 22 23
ATOM$RED        STATIC     ATOMS    COLORGROUP SYSTEM
2 22 23
@<TRIPOS>COMMENT
> <Gold.Version>
2022.3.0

> <Gold.Id.Protein>
unknown|4uh6_clean|pdb

> <Gold.Protein.RotatedTorsions>
[ 9116 9086 9085 9083 ] final  -37.36 input   60.02 | X-H torsion
[ 9012 8996 8995 8992 ] final   83.78 input   59.99 | X-H torsion
[ 8362 8332 8331 8329 ] final  -22.43 input   59.98 | X-H torsion
[ 5561 5545 5544 5541 ] final  122.75 input   59.99 | X-H torsion
[ 8516 8500 8499 8496 ] final  -49.47 input   60.00 | X-H torsion
[ 12904 12876 12875 12873 ] final   -1.21 input   59.99 | X-H torsion
[ 13458 13433 13432 13428 ] final  -49.21 input   60.03 | X-H torsion
[ 9192 9171 9169 9166 ] final   93.60 input   60.01 | X-H torsion

> <Gold.Protein.ActiveResidues>
 TRP311  MET341  HIS342  TRP414  ARG419  CYS420  VAL421  GLY422  LEU429  LEU460 
 SER462  ALA463  ILE464  ASN481  SER482  GLN483  LEU484  ILE485  ARG486  ASP500 
 ALA502  ASN503  TRP566  TYR567  GLY568  LEU569  PRO570  ALA571  VAL572  SER573 
 ASN574  MET575  PRO588  PHE589  SER590  GLY591  TRP592  TYR593  MET594  GLY595 
 THR596  GLU597  ILE598  VAL600  ARG601  ASP602  TYR603  ASP605  ARG608  ILE653 
 VAL654  TRP683  PRO687  SER691  PHE696  HIS697  TYR711  HEM750  H4B760 

> <Gold.Protein.RotatedAtoms>
  127.1858  249.6742  361.8378 H   0  0  0  0  0  0  0  0  0  0  0  0  # atno 5561 bound_to 5545
  126.7416  242.7740  362.2015 H   0  0  0  0  0  0  0  0  0  0  0  0  # atno 8362 bound_to 8332
  123.8189  250.6664  366.2856 H   0  0  0  0  0  0  0  0  0  0  0  0  # atno 8516 bound_to 8500
  115.0307  244.4365  368.2481 H   0  0  0  0  0  0  0  0  0  0  0  0  # atno 9012 bound_to 8996
  123.0274  241.8980  360.1336 H   0  0  0  0  0  0  0  0  0  0  0  0  # atno 9116 bound_to 9086
  118.1917  240.7085  351.3267 H   0  0  0  0  0  0  0  0  0  0  0  0  # atno 9192 bound_to 9171
  120.5349  254.2427  355.3088 H   0  0  0  0  0  0  0  0  0  0  0  0  # atno 12904 bound_to 12876
  124.6355  249.7731  347.2798 H   0  0  0  0  0  0  0  0  0  0  0  0  # atno 13458 bound_to 13433
  123.1415  241.1517  361.5753 LP  0  0  0  0  0  0  0  0  0  0  0  0  # atno 13496 bound_to 9086
  122.3230  242.5586  361.4435 LP  0  0  0  0  0  0  0  0  0  0  0  0  # atno 13497 bound_to 9086
  114.9294  246.0255  368.5841 LP  0  0  0  0  0  0  0  0  0  0  0  0  # atno 13516 bound_to 8996
  116.0677  245.1057  369.3086 LP  0  0  0  0  0  0  0  0  0  0  0  0  # atno 13517 bound_to 8996
  125.3155  243.5048  362.4854 LP  0  0  0  0  0  0  0  0  0  0  0  0  # atno 13530 bound_to 8332
  125.4475  242.4037  361.2868 LP  0  0  0  0  0  0  0  0  0  0  0  0  # atno 13531 bound_to 8332
  127.3709  249.5447  363.4490 LP  0  0  0  0  0  0  0  0  0  0  0  0  # atno 13538 bound_to 5545
  128.5683  250.1745  362.5345 LP  0  0  0  0  0  0  0  0  0  0  0  0  # atno 13539 bound_to 5545
  124.4239  250.5148  367.7887 LP  0  0  0  0  0  0  0  0  0  0  0  0  # atno 13551 bound_to 8500
  124.5943  251.9202  366.9750 LP  0  0  0  0  0  0  0  0  0  0  0  0  # atno 13552 bound_to 8500
  121.1622  254.9148  353.9659 LP  0  0  0  0  0  0  0  0  0  0  0  0  # atno 13567 bound_to 12876
  119.5925  255.1559  354.3462 LP  0  0  0  0  0  0  0  0  0  0  0  0  # atno 13568 bound_to 12876
  125.4181  250.7875  346.2762 LP  0  0  0  0  0  0  0  0  0  0  0  0  # atno 13569 bound_to 13433
  124.1073  249.9663  345.7526 LP  0  0  0  0  0  0  0  0  0  0  0  0  # atno 13570 bound_to 13433

> <Gold.Score>
     Fitness  S(hb_ext) S(vdw_ext)  S(hb_int)    S(int)      intcor
     26.91       3.08      17.41       0.00      -0.11      -0.76

> <Gold.Goldscore.Fitness>
26.9070

> <Gold.Goldscore.Internal.Vdw>
-0.3629

> <Gold.Goldscore.Internal.Torsion>
-0.5170

> <Gold.Goldscore.External.Vdw>
17.4126

> <Gold.Goldscore.Internal.HBond>
0.0000

> <Gold.Goldscore.External.HBond>
3.0797

> <Gold.Goldscore.Internal.Correction>
-0.7650

> <Gold.Goldscore.Hbonds>
donor molecule, donor type, donor heavy atom, donor atom, acceptor molecule, acceptor atom, score
      L1  H    10    23       P1 13292  0.51

> <Gold.Goldscore.Internal.Vdw.Weighted>
-0.3629

> <Gold.Goldscore.Internal.Torsion.Weighted>
-0.5170

> <Gold.Goldscore.External.Vdw.Weighted>
23.9423

> <Gold.Goldscore.Internal.HBond.Weighted>
0.0000

> <Gold.Goldscore.External.HBond.Weighted>
3.0797

> <Gold.Goldscore.Internal.Correction.Weighted>
-0.7650

> <Gold.Rescore>
     Score     S(PLP)   S(hbond)     S(cho)   S(metal)  DE(clash)   DE(tors)     intcor
     28.46     -26.85       1.02       0.00       0.00       0.00       0.72       ----

> <Gold.PLP.Fitness>
28.4599

> <Gold.PLP.PLP>
-26.8517

> <Gold.PLP.part.hbond>
-2.8888

> <Gold.PLP.part.metal>
0.0000

> <Gold.PLP.part.buried>
-3.8503

> <Gold.PLP.part.nonpolar>
-20.2389

> <Gold.PLP.part.repulsive>
0.4642

> <Gold.PLP.ligand.clash>
0.0000

> <Gold.PLP.ligand.torsion>
0.7202

> <Gold.PLP.Chemscore.Hbond>
1.0162

> <Gold.PLP.Chemscore.CHOScore>
0.0000

> <Gold.PLP.Chemscore.Metal>
0.0000

> <Gold.Chemscore.Hbonds>
donor molecule, donor type, donor heavy atom, donor atom, acceptor molecule, acceptor atom, score
      L1  H    10    23       P1 13292  0.96
      P1  H  5682  5710       L1     9  0.02

> <Gold.PLP.Chemscore.Internal.Correction>
   9.000000E+99

