#       Name:                GA Fitting Points
#       Creating user name   hitesit
#       Creation time:       Sun Apr 16 22:51:00 2023


#       Fitting Points Used by GA Software.
#

@<TRIPOS>MOLECULE
GA Fitting Points
  7404    0    0
SMALL
NO_CHARGES


@<TRIPOS>ATOM
      1 ****       115.2500 244.2500 360.7500 Du        
      2 ****       115.2500 244.2500 361.0000 Du        
      3 ****       115.2500 244.2500 361.2500 Du        
      4 ****       115.2500 244.5000 361.0000 Du        
      5 ****       115.2500 244.5000 361.2500 Du        
      6 ****       115.2500 244.7500 361.0000 Du        
      7 ****       115.2500 244.7500 361.2500 Du        
      8 ****       115.2500 244.7500 361.5000 Du        
      9 ****       115.2500 245.0000 361.0000 Du        
     10 ****       115.2500 245.0000 361.2500 Du        
     11 ****       115.2500 245.0000 361.5000 Du        
     12 ****       115.2500 245.0000 361.7500 Du        
     13 ****       115.2500 245.2500 361.2500 Du        
     14 ****       115.2500 245.2500 361.5000 Du        
     15 ****       115.2500 245.2500 361.7500 Du        
     16 ****       115.2500 245.5000 361.2500 Du        
     17 ****       115.2500 245.5000 361.5000 Du        
     18 ****       115.2500 245.5000 361.7500 Du        
     19 ****       115.2500 245.7500 361.2500 Du        
     20 ****       115.2500 245.7500 361.5000 Du        
     21 ****       115.2500 245.7500 361.7500 Du        
     22 ****       115.2500 245.7500 362.0000 Du        
     23 ****       115.2500 246.0000 361.2500 Du        
     24 ****       115.2500 246.0000 361.5000 Du        
     25 ****       115.2500 246.0000 361.7500 Du        
     26 ****       115.2500 246.0000 362.0000 Du        
     27 ****       115.2500 246.0000 362.2500 Du        
     28 ****       115.2500 246.2500 361.5000 Du        
     29 ****       115.2500 246.2500 361.7500 Du        
     30 ****       115.2500 246.2500 362.0000 Du        
     31 ****       115.2500 246.2500 362.2500 Du        
     32 ****       115.2500 246.2500 362.5000 Du        
     33 ****       115.2500 246.5000 361.5000 Du        
     34 ****       115.2500 246.5000 361.7500 Du        
     35 ****       115.2500 246.5000 362.0000 Du        
     36 ****       115.2500 246.5000 362.2500 Du        
     37 ****       115.2500 246.5000 362.5000 Du        
     38 ****       115.2500 246.7500 361.7500 Du        
     39 ****       115.2500 246.7500 362.0000 Du        
     40 ****       115.2500 246.7500 362.2500 Du        
     41 ****       115.2500 246.7500 362.5000 Du        
     42 ****       115.2500 246.7500 362.7500 Du        
     43 ****       115.2500 247.0000 362.0000 Du        
     44 ****       115.2500 247.0000 362.2500 Du        
     45 ****       115.2500 247.0000 362.5000 Du        
     46 ****       115.2500 247.0000 362.7500 Du        
     47 ****       115.2500 247.2500 362.2500 Du        
     48 ****       115.5000 244.0000 360.0000 Du        
     49 ****       115.5000 244.0000 360.2500 Du        
     50 ****       115.5000 244.0000 360.5000 Du        
     51 ****       115.5000 244.0000 360.7500 Du        
     52 ****       115.5000 244.2500 360.0000 Du        
     53 ****       115.5000 244.2500 360.2500 Du        
     54 ****       115.5000 244.2500 360.5000 Du        
     55 ****       115.5000 244.2500 360.7500 Du        
     56 ****       115.5000 244.2500 361.0000 Du        
     57 ****       115.5000 244.2500 361.2500 Du        
     58 ****       115.5000 244.5000 360.2500 Du        
     59 ****       115.5000 244.5000 360.5000 Du        
     60 ****       115.5000 244.5000 360.7500 Du        
     61 ****       115.5000 244.5000 361.0000 Du        
     62 ****       115.5000 244.5000 361.2500 Du        
     63 ****       115.5000 244.5000 361.5000 Du        
     64 ****       115.5000 244.7500 360.2500 Du        
     65 ****       115.5000 244.7500 360.5000 Du        
     66 ****       115.5000 244.7500 360.7500 Du        
     67 ****       115.5000 244.7500 361.0000 Du        
     68 ****       115.5000 244.7500 361.2500 Du        
     69 ****       115.5000 244.7500 361.5000 Du        
     70 ****       115.5000 245.0000 360.5000 Du        
     71 ****       115.5000 245.0000 360.7500 Du        
     72 ****       115.5000 245.0000 361.0000 Du        
     73 ****       115.5000 245.0000 361.2500 Du        
     74 ****       115.5000 245.0000 361.5000 Du        
     75 ****       115.5000 245.0000 361.7500 Du        
     76 ****       115.5000 245.2500 360.5000 Du        
     77 ****       115.5000 245.2500 360.7500 Du        
     78 ****       115.5000 245.2500 361.0000 Du        
     79 ****       115.5000 245.2500 361.2500 Du        
     80 ****       115.5000 245.2500 361.5000 Du        
     81 ****       115.5000 245.2500 361.7500 Du        
     82 ****       115.5000 245.2500 362.0000 Du        
     83 ****       115.5000 245.5000 360.7500 Du        
     84 ****       115.5000 245.5000 361.0000 Du        
     85 ****       115.5000 245.5000 361.2500 Du        
     86 ****       115.5000 245.5000 361.5000 Du        
     87 ****       115.5000 245.5000 361.7500 Du        
     88 ****       115.5000 245.5000 362.0000 Du        
     89 ****       115.5000 245.7500 360.7500 Du        
     90 ****       115.5000 245.7500 361.0000 Du        
     91 ****       115.5000 245.7500 361.2500 Du        
     92 ****       115.5000 245.7500 361.5000 Du        
     93 ****       115.5000 245.7500 361.7500 Du        
     94 ****       115.5000 245.7500 362.0000 Du        
     95 ****       115.5000 245.7500 362.2500 Du        
     96 ****       115.5000 246.0000 360.7500 Du        
     97 ****       115.5000 246.0000 361.0000 Du        
     98 ****       115.5000 246.0000 361.2500 Du        
     99 ****       115.5000 246.0000 361.5000 Du        
    100 ****       115.5000 246.0000 361.7500 Du        
    101 ****       115.5000 246.0000 362.0000 Du        
    102 ****       115.5000 246.0000 362.2500 Du        
    103 ****       115.5000 246.2500 360.7500 Du        
    104 ****       115.5000 246.2500 361.0000 Du        
    105 ****       115.5000 246.2500 361.2500 Du        
    106 ****       115.5000 246.2500 361.5000 Du        
    107 ****       115.5000 246.2500 361.7500 Du        
    108 ****       115.5000 246.2500 362.0000 Du        
    109 ****       115.5000 246.2500 362.2500 Du        
    110 ****       115.5000 246.2500 362.5000 Du        
    111 ****       115.5000 246.5000 360.5000 Du        
    112 ****       115.5000 246.5000 360.7500 Du        
    113 ****       115.5000 246.5000 361.0000 Du        
    114 ****       115.5000 246.5000 361.2500 Du        
    115 ****       115.5000 246.5000 361.5000 Du        
    116 ****       115.5000 246.5000 361.7500 Du        
    117 ****       115.5000 246.5000 362.0000 Du        
    118 ****       115.5000 246.5000 362.2500 Du        
    119 ****       115.5000 246.5000 362.5000 Du        
    120 ****       115.5000 246.5000 362.7500 Du        
    121 ****       115.5000 246.7500 360.5000 Du        
    122 ****       115.5000 246.7500 360.7500 Du        
    123 ****       115.5000 246.7500 361.0000 Du        
    124 ****       115.5000 246.7500 361.2500 Du        
    125 ****       115.5000 246.7500 361.5000 Du        
    126 ****       115.5000 246.7500 361.7500 Du        
    127 ****       115.5000 246.7500 362.0000 Du        
    128 ****       115.5000 246.7500 362.2500 Du        
    129 ****       115.5000 246.7500 362.5000 Du        
    130 ****       115.5000 246.7500 362.7500 Du        
    131 ****       115.5000 247.0000 360.5000 Du        
    132 ****       115.5000 247.0000 360.7500 Du        
    133 ****       115.5000 247.0000 361.0000 Du        
    134 ****       115.5000 247.0000 361.2500 Du        
    135 ****       115.5000 247.0000 361.5000 Du        
    136 ****       115.5000 247.0000 361.7500 Du        
    137 ****       115.5000 247.0000 362.0000 Du        
    138 ****       115.5000 247.0000 362.2500 Du        
    139 ****       115.5000 247.0000 362.5000 Du        
    140 ****       115.5000 247.0000 362.7500 Du        
    141 ****       115.5000 247.0000 363.0000 Du        
    142 ****       115.5000 247.2500 360.7500 Du        
    143 ****       115.5000 247.2500 361.0000 Du        
    144 ****       115.5000 247.2500 361.2500 Du        
    145 ****       115.5000 247.2500 361.5000 Du        
    146 ****       115.5000 247.2500 361.7500 Du        
    147 ****       115.5000 247.2500 362.0000 Du        
    148 ****       115.5000 247.2500 362.2500 Du        
    149 ****       115.5000 247.2500 362.5000 Du        
    150 ****       115.5000 247.2500 362.7500 Du        
    151 ****       115.5000 247.5000 361.5000 Du        
    152 ****       115.5000 247.5000 361.7500 Du        
    153 ****       115.5000 247.5000 362.0000 Du        
    154 ****       115.5000 247.5000 362.2500 Du        
    155 ****       115.7500 243.7500 359.2500 Du        
    156 ****       115.7500 243.7500 359.5000 Du        
    157 ****       115.7500 243.7500 359.7500 Du        
    158 ****       115.7500 243.7500 360.0000 Du        
    159 ****       115.7500 243.7500 360.2500 Du        
    160 ****       115.7500 243.7500 360.5000 Du        
    161 ****       115.7500 244.0000 359.5000 Du        
    162 ****       115.7500 244.0000 359.7500 Du        
    163 ****       115.7500 244.0000 360.0000 Du        
    164 ****       115.7500 244.0000 360.2500 Du        
    165 ****       115.7500 244.0000 360.5000 Du        
    166 ****       115.7500 244.0000 360.7500 Du        
    167 ****       115.7500 244.2500 359.5000 Du        
    168 ****       115.7500 244.2500 359.7500 Du        
    169 ****       115.7500 244.2500 360.0000 Du        
    170 ****       115.7500 244.2500 360.2500 Du        
    171 ****       115.7500 244.2500 360.5000 Du        
    172 ****       115.7500 244.2500 360.7500 Du        
    173 ****       115.7500 244.2500 361.0000 Du        
    174 ****       115.7500 244.5000 359.7500 Du        
    175 ****       115.7500 244.5000 360.0000 Du        
    176 ****       115.7500 244.5000 360.2500 Du        
    177 ****       115.7500 244.5000 360.5000 Du        
    178 ****       115.7500 244.5000 360.7500 Du        
    179 ****       115.7500 244.5000 361.0000 Du        
    180 ****       115.7500 244.5000 361.2500 Du        
    181 ****       115.7500 244.7500 359.7500 Du        
    182 ****       115.7500 244.7500 360.0000 Du        
    183 ****       115.7500 244.7500 360.2500 Du        
    184 ****       115.7500 244.7500 360.5000 Du        
    185 ****       115.7500 244.7500 360.7500 Du        
    186 ****       115.7500 244.7500 361.0000 Du        
    187 ****       115.7500 244.7500 361.2500 Du        
    188 ****       115.7500 244.7500 361.5000 Du        
    189 ****       115.7500 245.0000 359.7500 Du        
    190 ****       115.7500 245.0000 360.0000 Du        
    191 ****       115.7500 245.0000 360.2500 Du        
    192 ****       115.7500 245.0000 360.5000 Du        
    193 ****       115.7500 245.0000 360.7500 Du        
    194 ****       115.7500 245.0000 361.0000 Du        
    195 ****       115.7500 245.0000 361.2500 Du        
    196 ****       115.7500 245.0000 361.5000 Du        
    197 ****       115.7500 245.0000 361.7500 Du        
    198 ****       115.7500 245.2500 360.0000 Du        
    199 ****       115.7500 245.2500 360.2500 Du        
    200 ****       115.7500 245.2500 360.5000 Du        
    201 ****       115.7500 245.2500 360.7500 Du        
    202 ****       115.7500 245.2500 361.0000 Du        
    203 ****       115.7500 245.2500 361.2500 Du        
    204 ****       115.7500 245.2500 361.5000 Du        
    205 ****       115.7500 245.2500 361.7500 Du        
    206 ****       115.7500 245.2500 362.0000 Du        
    207 ****       115.7500 245.5000 360.0000 Du        
    208 ****       115.7500 245.5000 360.2500 Du        
    209 ****       115.7500 245.5000 360.5000 Du        
    210 ****       115.7500 245.5000 360.7500 Du        
    211 ****       115.7500 245.5000 361.0000 Du        
    212 ****       115.7500 245.5000 361.2500 Du        
    213 ****       115.7500 245.5000 361.5000 Du        
    214 ****       115.7500 245.5000 361.7500 Du        
    215 ****       115.7500 245.5000 362.0000 Du        
    216 ****       115.7500 245.7500 360.0000 Du        
    217 ****       115.7500 245.7500 360.2500 Du        
    218 ****       115.7500 245.7500 360.5000 Du        
    219 ****       115.7500 245.7500 360.7500 Du        
    220 ****       115.7500 245.7500 361.0000 Du        
    221 ****       115.7500 245.7500 361.2500 Du        
    222 ****       115.7500 245.7500 361.5000 Du        
    223 ****       115.7500 245.7500 361.7500 Du        
    224 ****       115.7500 245.7500 362.0000 Du        
    225 ****       115.7500 245.7500 362.2500 Du        
    226 ****       115.7500 246.0000 360.0000 Du        
    227 ****       115.7500 246.0000 360.2500 Du        
    228 ****       115.7500 246.0000 360.5000 Du        
    229 ****       115.7500 246.0000 360.7500 Du        
    230 ****       115.7500 246.0000 361.0000 Du        
    231 ****       115.7500 246.0000 361.2500 Du        
    232 ****       115.7500 246.0000 361.5000 Du        
    233 ****       115.7500 246.0000 361.7500 Du        
    234 ****       115.7500 246.0000 362.0000 Du        
    235 ****       115.7500 246.0000 362.2500 Du        
    236 ****       115.7500 246.0000 362.5000 Du        
    237 ****       115.7500 246.2500 360.0000 Du        
    238 ****       115.7500 246.2500 360.2500 Du        
    239 ****       115.7500 246.2500 360.5000 Du        
    240 ****       115.7500 246.2500 360.7500 Du        
    241 ****       115.7500 246.2500 361.0000 Du        
    242 ****       115.7500 246.2500 361.2500 Du        
    243 ****       115.7500 246.2500 361.5000 Du        
    244 ****       115.7500 246.2500 361.7500 Du        
    245 ****       115.7500 246.2500 362.0000 Du        
    246 ****       115.7500 246.2500 362.2500 Du        
    247 ****       115.7500 246.2500 362.5000 Du        
    248 ****       115.7500 246.5000 360.0000 Du        
    249 ****       115.7500 246.5000 360.2500 Du        
    250 ****       115.7500 246.5000 360.5000 Du        
    251 ****       115.7500 246.5000 360.7500 Du        
    252 ****       115.7500 246.5000 361.0000 Du        
    253 ****       115.7500 246.5000 361.2500 Du        
    254 ****       115.7500 246.5000 361.5000 Du        
    255 ****       115.7500 246.5000 361.7500 Du        
    256 ****       115.7500 246.5000 362.0000 Du        
    257 ****       115.7500 246.5000 362.2500 Du        
    258 ****       115.7500 246.5000 362.5000 Du        
    259 ****       115.7500 246.5000 362.7500 Du        
    260 ****       115.7500 246.7500 359.7500 Du        
    261 ****       115.7500 246.7500 360.0000 Du        
    262 ****       115.7500 246.7500 360.2500 Du        
    263 ****       115.7500 246.7500 360.5000 Du        
    264 ****       115.7500 246.7500 360.7500 Du        
    265 ****       115.7500 246.7500 361.0000 Du        
    266 ****       115.7500 246.7500 361.2500 Du        
    267 ****       115.7500 246.7500 361.5000 Du        
    268 ****       115.7500 246.7500 361.7500 Du        
    269 ****       115.7500 246.7500 362.0000 Du        
    270 ****       115.7500 246.7500 362.2500 Du        
    271 ****       115.7500 246.7500 362.5000 Du        
    272 ****       115.7500 246.7500 362.7500 Du        
    273 ****       115.7500 247.0000 359.7500 Du        
    274 ****       115.7500 247.0000 360.0000 Du        
    275 ****       115.7500 247.0000 360.2500 Du        
    276 ****       115.7500 247.0000 360.5000 Du        
    277 ****       115.7500 247.0000 360.7500 Du        
    278 ****       115.7500 247.0000 361.0000 Du        
    279 ****       115.7500 247.0000 361.2500 Du        
    280 ****       115.7500 247.0000 361.5000 Du        
    281 ****       115.7500 247.0000 361.7500 Du        
    282 ****       115.7500 247.0000 362.0000 Du        
    283 ****       115.7500 247.0000 362.2500 Du        
    284 ****       115.7500 247.0000 362.5000 Du        
    285 ****       115.7500 247.0000 362.7500 Du        
    286 ****       115.7500 247.0000 363.0000 Du        
    287 ****       115.7500 247.2500 359.7500 Du        
    288 ****       115.7500 247.2500 360.0000 Du        
    289 ****       115.7500 247.2500 360.2500 Du        
    290 ****       115.7500 247.2500 360.5000 Du        
    291 ****       115.7500 247.2500 360.7500 Du        
    292 ****       115.7500 247.2500 361.0000 Du        
    293 ****       115.7500 247.2500 361.2500 Du        
    294 ****       115.7500 247.2500 361.5000 Du        
    295 ****       115.7500 247.2500 361.7500 Du        
    296 ****       115.7500 247.2500 362.0000 Du        
    297 ****       115.7500 247.2500 362.2500 Du        
    298 ****       115.7500 247.2500 362.5000 Du        
    299 ****       115.7500 247.2500 362.7500 Du        
    300 ****       115.7500 247.5000 360.0000 Du        
    301 ****       115.7500 247.5000 360.2500 Du        
    302 ****       115.7500 247.5000 360.5000 Du        
    303 ****       115.7500 247.5000 360.7500 Du        
    304 ****       115.7500 247.5000 361.0000 Du        
    305 ****       115.7500 247.5000 361.2500 Du        
    306 ****       115.7500 247.5000 361.5000 Du        
    307 ****       115.7500 247.5000 361.7500 Du        
    308 ****       115.7500 247.5000 362.0000 Du        
    309 ****       115.7500 247.5000 362.2500 Du        
    310 ****       115.7500 247.5000 362.5000 Du        
    311 ****       115.7500 247.7500 360.5000 Du        
    312 ****       115.7500 247.7500 360.7500 Du        
    313 ****       115.7500 247.7500 361.0000 Du        
    314 ****       115.7500 247.7500 361.2500 Du        
    315 ****       115.7500 247.7500 361.5000 Du        
    316 ****       115.7500 247.7500 361.7500 Du        
    317 ****       116.0000 243.5000 359.2500 Du        
    318 ****       116.0000 243.5000 359.5000 Du        
    319 ****       116.0000 243.5000 359.7500 Du        
    320 ****       116.0000 243.5000 360.0000 Du        
    321 ****       116.0000 243.7500 359.0000 Du        
    322 ****       116.0000 243.7500 359.2500 Du        
    323 ****       116.0000 243.7500 359.5000 Du        
    324 ****       116.0000 243.7500 359.7500 Du        
    325 ****       116.0000 243.7500 360.0000 Du        
    326 ****       116.0000 243.7500 360.2500 Du        
    327 ****       116.0000 243.7500 360.5000 Du        
    328 ****       116.0000 244.0000 359.0000 Du        
    329 ****       116.0000 244.0000 359.2500 Du        
    330 ****       116.0000 244.0000 359.5000 Du        
    331 ****       116.0000 244.0000 359.7500 Du        
    332 ****       116.0000 244.0000 360.0000 Du        
    333 ****       116.0000 244.0000 360.2500 Du        
    334 ****       116.0000 244.0000 360.5000 Du        
    335 ****       116.0000 244.0000 360.7500 Du        
    336 ****       116.0000 244.2500 359.0000 Du        
    337 ****       116.0000 244.2500 359.2500 Du        
    338 ****       116.0000 244.2500 359.5000 Du        
    339 ****       116.0000 244.2500 359.7500 Du        
    340 ****       116.0000 244.2500 360.0000 Du        
    341 ****       116.0000 244.2500 360.2500 Du        
    342 ****       116.0000 244.2500 360.5000 Du        
    343 ****       116.0000 244.2500 360.7500 Du        
    344 ****       116.0000 244.2500 361.0000 Du        
    345 ****       116.0000 244.5000 359.2500 Du        
    346 ****       116.0000 244.5000 359.5000 Du        
    347 ****       116.0000 244.5000 359.7500 Du        
    348 ****       116.0000 244.5000 360.0000 Du        
    349 ****       116.0000 244.5000 360.2500 Du        
    350 ****       116.0000 244.5000 360.5000 Du        
    351 ****       116.0000 244.5000 360.7500 Du        
    352 ****       116.0000 244.5000 361.0000 Du        
    353 ****       116.0000 244.5000 361.2500 Du        
    354 ****       116.0000 244.7500 359.2500 Du        
    355 ****       116.0000 244.7500 359.5000 Du        
    356 ****       116.0000 244.7500 359.7500 Du        
    357 ****       116.0000 244.7500 360.0000 Du        
    358 ****       116.0000 244.7500 360.2500 Du        
    359 ****       116.0000 244.7500 360.5000 Du        
    360 ****       116.0000 244.7500 360.7500 Du        
    361 ****       116.0000 244.7500 361.0000 Du        
    362 ****       116.0000 244.7500 361.2500 Du        
    363 ****       116.0000 244.7500 361.5000 Du        
    364 ****       116.0000 245.0000 359.2500 Du        
    365 ****       116.0000 245.0000 359.5000 Du        
    366 ****       116.0000 245.0000 359.7500 Du        
    367 ****       116.0000 245.0000 360.0000 Du        
    368 ****       116.0000 245.0000 360.2500 Du        
    369 ****       116.0000 245.0000 360.5000 Du        
    370 ****       116.0000 245.0000 360.7500 Du        
    371 ****       116.0000 245.0000 361.0000 Du        
    372 ****       116.0000 245.0000 361.2500 Du        
    373 ****       116.0000 245.0000 361.5000 Du        
    374 ****       116.0000 245.0000 361.7500 Du        
    375 ****       116.0000 245.2500 359.5000 Du        
    376 ****       116.0000 245.2500 359.7500 Du        
    377 ****       116.0000 245.2500 360.0000 Du        
    378 ****       116.0000 245.2500 360.2500 Du        
    379 ****       116.0000 245.2500 360.5000 Du        
    380 ****       116.0000 245.2500 360.7500 Du        
    381 ****       116.0000 245.2500 361.0000 Du        
    382 ****       116.0000 245.2500 361.2500 Du        
    383 ****       116.0000 245.2500 361.5000 Du        
    384 ****       116.0000 245.2500 361.7500 Du        
    385 ****       116.0000 245.2500 362.0000 Du        
    386 ****       116.0000 245.5000 359.5000 Du        
    387 ****       116.0000 245.5000 359.7500 Du        
    388 ****       116.0000 245.5000 360.0000 Du        
    389 ****       116.0000 245.5000 360.2500 Du        
    390 ****       116.0000 245.5000 360.5000 Du        
    391 ****       116.0000 245.5000 360.7500 Du        
    392 ****       116.0000 245.5000 361.0000 Du        
    393 ****       116.0000 245.5000 361.2500 Du        
    394 ****       116.0000 245.5000 361.5000 Du        
    395 ****       116.0000 245.5000 361.7500 Du        
    396 ****       116.0000 245.5000 362.0000 Du        
    397 ****       116.0000 245.7500 359.5000 Du        
    398 ****       116.0000 245.7500 359.7500 Du        
    399 ****       116.0000 245.7500 360.0000 Du        
    400 ****       116.0000 245.7500 360.2500 Du        
    401 ****       116.0000 245.7500 360.5000 Du        
    402 ****       116.0000 245.7500 360.7500 Du        
    403 ****       116.0000 245.7500 361.0000 Du        
    404 ****       116.0000 245.7500 361.2500 Du        
    405 ****       116.0000 245.7500 361.5000 Du        
    406 ****       116.0000 245.7500 361.7500 Du        
    407 ****       116.0000 245.7500 362.0000 Du        
    408 ****       116.0000 245.7500 362.2500 Du        
    409 ****       116.0000 246.0000 359.5000 Du        
    410 ****       116.0000 246.0000 359.7500 Du        
    411 ****       116.0000 246.0000 360.0000 Du        
    412 ****       116.0000 246.0000 360.2500 Du        
    413 ****       116.0000 246.0000 360.5000 Du        
    414 ****       116.0000 246.0000 360.7500 Du        
    415 ****       116.0000 246.0000 361.0000 Du        
    416 ****       116.0000 246.0000 361.2500 Du        
    417 ****       116.0000 246.0000 361.5000 Du        
    418 ****       116.0000 246.0000 361.7500 Du        
    419 ****       116.0000 246.0000 362.0000 Du        
    420 ****       116.0000 246.0000 362.2500 Du        
    421 ****       116.0000 246.0000 362.5000 Du        
    422 ****       116.0000 246.2500 359.5000 Du        
    423 ****       116.0000 246.2500 359.7500 Du        
    424 ****       116.0000 246.2500 360.0000 Du        
    425 ****       116.0000 246.2500 360.2500 Du        
    426 ****       116.0000 246.2500 360.5000 Du        
    427 ****       116.0000 246.2500 360.7500 Du        
    428 ****       116.0000 246.2500 361.0000 Du        
    429 ****       116.0000 246.2500 361.2500 Du        
    430 ****       116.0000 246.2500 361.5000 Du        
    431 ****       116.0000 246.2500 361.7500 Du        
    432 ****       116.0000 246.2500 362.0000 Du        
    433 ****       116.0000 246.2500 362.2500 Du        
    434 ****       116.0000 246.2500 362.5000 Du        
    435 ****       116.0000 246.2500 362.7500 Du        
    436 ****       116.0000 246.5000 359.5000 Du        
    437 ****       116.0000 246.5000 359.7500 Du        
    438 ****       116.0000 246.5000 360.0000 Du        
    439 ****       116.0000 246.5000 360.2500 Du        
    440 ****       116.0000 246.5000 360.5000 Du        
    441 ****       116.0000 246.5000 360.7500 Du        
    442 ****       116.0000 246.5000 361.0000 Du        
    443 ****       116.0000 246.5000 361.2500 Du        
    444 ****       116.0000 246.5000 361.5000 Du        
    445 ****       116.0000 246.5000 361.7500 Du        
    446 ****       116.0000 246.5000 362.0000 Du        
    447 ****       116.0000 246.5000 362.2500 Du        
    448 ****       116.0000 246.5000 362.5000 Du        
    449 ****       116.0000 246.5000 362.7500 Du        
    450 ****       116.0000 246.7500 359.5000 Du        
    451 ****       116.0000 246.7500 359.7500 Du        
    452 ****       116.0000 246.7500 360.0000 Du        
    453 ****       116.0000 246.7500 360.2500 Du        
    454 ****       116.0000 246.7500 360.5000 Du        
    455 ****       116.0000 246.7500 360.7500 Du        
    456 ****       116.0000 246.7500 361.0000 Du        
    457 ****       116.0000 246.7500 361.2500 Du        
    458 ****       116.0000 246.7500 361.5000 Du        
    459 ****       116.0000 246.7500 361.7500 Du        
    460 ****       116.0000 246.7500 362.0000 Du        
    461 ****       116.0000 246.7500 362.2500 Du        
    462 ****       116.0000 246.7500 362.5000 Du        
    463 ****       116.0000 246.7500 362.7500 Du        
    464 ****       116.0000 246.7500 363.0000 Du        
    465 ****       116.0000 247.0000 359.5000 Du        
    466 ****       116.0000 247.0000 359.7500 Du        
    467 ****       116.0000 247.0000 360.0000 Du        
    468 ****       116.0000 247.0000 360.2500 Du        
    469 ****       116.0000 247.0000 360.5000 Du        
    470 ****       116.0000 247.0000 360.7500 Du        
    471 ****       116.0000 247.0000 361.0000 Du        
    472 ****       116.0000 247.0000 361.2500 Du        
    473 ****       116.0000 247.0000 361.5000 Du        
    474 ****       116.0000 247.0000 361.7500 Du        
    475 ****       116.0000 247.0000 362.0000 Du        
    476 ****       116.0000 247.0000 362.2500 Du        
    477 ****       116.0000 247.0000 362.5000 Du        
    478 ****       116.0000 247.0000 362.7500 Du        
    479 ****       116.0000 247.0000 363.0000 Du        
    480 ****       116.0000 247.2500 359.7500 Du        
    481 ****       116.0000 247.2500 360.0000 Du        
    482 ****       116.0000 247.2500 360.2500 Du        
    483 ****       116.0000 247.2500 360.5000 Du        
    484 ****       116.0000 247.2500 360.7500 Du        
    485 ****       116.0000 247.2500 361.0000 Du        
    486 ****       116.0000 247.2500 361.2500 Du        
    487 ****       116.0000 247.2500 361.5000 Du        
    488 ****       116.0000 247.2500 361.7500 Du        
    489 ****       116.0000 247.2500 362.0000 Du        
    490 ****       116.0000 247.2500 362.2500 Du        
    491 ****       116.0000 247.2500 362.5000 Du        
    492 ****       116.0000 247.2500 362.7500 Du        
    493 ****       116.0000 247.2500 363.0000 Du        
    494 ****       116.0000 247.5000 359.7500 Du        
    495 ****       116.0000 247.5000 360.0000 Du        
    496 ****       116.0000 247.5000 360.2500 Du        
    497 ****       116.0000 247.5000 360.5000 Du        
    498 ****       116.0000 247.5000 360.7500 Du        
    499 ****       116.0000 247.5000 361.0000 Du        
    500 ****       116.0000 247.5000 361.2500 Du        
    501 ****       116.0000 247.5000 361.5000 Du        
    502 ****       116.0000 247.5000 361.7500 Du        
    503 ****       116.0000 247.5000 362.0000 Du        
    504 ****       116.0000 247.5000 362.2500 Du        
    505 ****       116.0000 247.5000 362.5000 Du        
    506 ****       116.0000 247.5000 362.7500 Du        
    507 ****       116.0000 247.7500 360.0000 Du        
    508 ****       116.0000 247.7500 360.2500 Du        
    509 ****       116.0000 247.7500 360.5000 Du        
    510 ****       116.0000 247.7500 360.7500 Du        
    511 ****       116.0000 247.7500 361.0000 Du        
    512 ****       116.0000 247.7500 361.2500 Du        
    513 ****       116.0000 247.7500 361.5000 Du        
    514 ****       116.0000 247.7500 361.7500 Du        
    515 ****       116.0000 247.7500 362.0000 Du        
    516 ****       116.0000 248.0000 360.2500 Du        
    517 ****       116.0000 248.0000 360.5000 Du        
    518 ****       116.0000 248.0000 360.7500 Du        
    519 ****       116.2500 243.5000 359.2500 Du        
    520 ****       116.2500 243.5000 359.5000 Du        
    521 ****       116.2500 243.5000 359.7500 Du        
    522 ****       116.2500 243.5000 360.0000 Du        
    523 ****       116.2500 243.7500 359.0000 Du        
    524 ****       116.2500 243.7500 359.2500 Du        
    525 ****       116.2500 243.7500 359.5000 Du        
    526 ****       116.2500 243.7500 359.7500 Du        
    527 ****       116.2500 243.7500 360.0000 Du        
    528 ****       116.2500 243.7500 360.2500 Du        
    529 ****       116.2500 244.0000 359.0000 Du        
    530 ****       116.2500 244.0000 359.2500 Du        
    531 ****       116.2500 244.0000 359.5000 Du        
    532 ****       116.2500 244.0000 359.7500 Du        
    533 ****       116.2500 244.0000 360.0000 Du        
    534 ****       116.2500 244.0000 360.2500 Du        
    535 ****       116.2500 244.0000 360.5000 Du        
    536 ****       116.2500 244.2500 359.0000 Du        
    537 ****       116.2500 244.2500 359.2500 Du        
    538 ****       116.2500 244.2500 359.5000 Du        
    539 ****       116.2500 244.2500 359.7500 Du        
    540 ****       116.2500 244.2500 360.0000 Du        
    541 ****       116.2500 244.2500 360.2500 Du        
    542 ****       116.2500 244.2500 360.5000 Du        
    543 ****       116.2500 244.2500 360.7500 Du        
    544 ****       116.2500 244.5000 359.0000 Du        
    545 ****       116.2500 244.5000 359.2500 Du        
    546 ****       116.2500 244.5000 359.5000 Du        
    547 ****       116.2500 244.5000 359.7500 Du        
    548 ****       116.2500 244.5000 360.0000 Du        
    549 ****       116.2500 244.5000 360.2500 Du        
    550 ****       116.2500 244.5000 360.5000 Du        
    551 ****       116.2500 244.5000 360.7500 Du        
    552 ****       116.2500 244.5000 361.0000 Du        
    553 ****       116.2500 244.7500 359.0000 Du        
    554 ****       116.2500 244.7500 359.2500 Du        
    555 ****       116.2500 244.7500 359.5000 Du        
    556 ****       116.2500 244.7500 359.7500 Du        
    557 ****       116.2500 244.7500 360.0000 Du        
    558 ****       116.2500 244.7500 360.2500 Du        
    559 ****       116.2500 244.7500 360.5000 Du        
    560 ****       116.2500 244.7500 360.7500 Du        
    561 ****       116.2500 244.7500 361.0000 Du        
    562 ****       116.2500 244.7500 361.2500 Du        
    563 ****       116.2500 245.0000 359.0000 Du        
    564 ****       116.2500 245.0000 359.2500 Du        
    565 ****       116.2500 245.0000 359.5000 Du        
    566 ****       116.2500 245.0000 359.7500 Du        
    567 ****       116.2500 245.0000 360.0000 Du        
    568 ****       116.2500 245.0000 360.2500 Du        
    569 ****       116.2500 245.0000 360.5000 Du        
    570 ****       116.2500 245.0000 360.7500 Du        
    571 ****       116.2500 245.0000 361.0000 Du        
    572 ****       116.2500 245.0000 361.2500 Du        
    573 ****       116.2500 245.0000 361.5000 Du        
    574 ****       116.2500 245.2500 359.0000 Du        
    575 ****       116.2500 245.2500 359.2500 Du        
    576 ****       116.2500 245.2500 359.5000 Du        
    577 ****       116.2500 245.2500 359.7500 Du        
    578 ****       116.2500 245.2500 360.0000 Du        
    579 ****       116.2500 245.2500 360.2500 Du        
    580 ****       116.2500 245.2500 360.5000 Du        
    581 ****       116.2500 245.2500 360.7500 Du        
    582 ****       116.2500 245.2500 361.0000 Du        
    583 ****       116.2500 245.2500 361.2500 Du        
    584 ****       116.2500 245.2500 361.5000 Du        
    585 ****       116.2500 245.2500 361.7500 Du        
    586 ****       116.2500 245.5000 359.2500 Du        
    587 ****       116.2500 245.5000 359.5000 Du        
    588 ****       116.2500 245.5000 359.7500 Du        
    589 ****       116.2500 245.5000 360.0000 Du        
    590 ****       116.2500 245.5000 360.2500 Du        
    591 ****       116.2500 245.5000 360.5000 Du        
    592 ****       116.2500 245.5000 360.7500 Du        
    593 ****       116.2500 245.5000 361.0000 Du        
    594 ****       116.2500 245.5000 361.2500 Du        
    595 ****       116.2500 245.5000 361.5000 Du        
    596 ****       116.2500 245.5000 361.7500 Du        
    597 ****       116.2500 245.5000 362.0000 Du        
    598 ****       116.2500 245.7500 359.2500 Du        
    599 ****       116.2500 245.7500 359.5000 Du        
    600 ****       116.2500 245.7500 359.7500 Du        
    601 ****       116.2500 245.7500 360.0000 Du        
    602 ****       116.2500 245.7500 360.2500 Du        
    603 ****       116.2500 245.7500 360.5000 Du        
    604 ****       116.2500 245.7500 360.7500 Du        
    605 ****       116.2500 245.7500 361.0000 Du        
    606 ****       116.2500 245.7500 361.2500 Du        
    607 ****       116.2500 245.7500 361.5000 Du        
    608 ****       116.2500 245.7500 361.7500 Du        
    609 ****       116.2500 245.7500 362.0000 Du        
    610 ****       116.2500 245.7500 362.2500 Du        
    611 ****       116.2500 246.0000 359.2500 Du        
    612 ****       116.2500 246.0000 359.5000 Du        
    613 ****       116.2500 246.0000 359.7500 Du        
    614 ****       116.2500 246.0000 360.0000 Du        
    615 ****       116.2500 246.0000 360.2500 Du        
    616 ****       116.2500 246.0000 360.5000 Du        
    617 ****       116.2500 246.0000 360.7500 Du        
    618 ****       116.2500 246.0000 361.0000 Du        
    619 ****       116.2500 246.0000 361.2500 Du        
    620 ****       116.2500 246.0000 361.5000 Du        
    621 ****       116.2500 246.0000 361.7500 Du        
    622 ****       116.2500 246.0000 362.0000 Du        
    623 ****       116.2500 246.0000 362.2500 Du        
    624 ****       116.2500 246.0000 362.5000 Du        
    625 ****       116.2500 246.2500 359.2500 Du        
    626 ****       116.2500 246.2500 359.5000 Du        
    627 ****       116.2500 246.2500 359.7500 Du        
    628 ****       116.2500 246.2500 360.0000 Du        
    629 ****       116.2500 246.2500 360.2500 Du        
    630 ****       116.2500 246.2500 360.5000 Du        
    631 ****       116.2500 246.2500 360.7500 Du        
    632 ****       116.2500 246.2500 361.0000 Du        
    633 ****       116.2500 246.2500 361.2500 Du        
    634 ****       116.2500 246.2500 361.5000 Du        
    635 ****       116.2500 246.2500 361.7500 Du        
    636 ****       116.2500 246.2500 362.0000 Du        
    637 ****       116.2500 246.2500 362.2500 Du        
    638 ****       116.2500 246.2500 362.5000 Du        
    639 ****       116.2500 246.2500 362.7500 Du        
    640 ****       116.2500 246.5000 359.2500 Du        
    641 ****       116.2500 246.5000 359.5000 Du        
    642 ****       116.2500 246.5000 359.7500 Du        
    643 ****       116.2500 246.5000 360.0000 Du        
    644 ****       116.2500 246.5000 360.2500 Du        
    645 ****       116.2500 246.5000 360.5000 Du        
    646 ****       116.2500 246.5000 360.7500 Du        
    647 ****       116.2500 246.5000 361.0000 Du        
    648 ****       116.2500 246.5000 361.2500 Du        
    649 ****       116.2500 246.5000 361.5000 Du        
    650 ****       116.2500 246.5000 361.7500 Du        
    651 ****       116.2500 246.5000 362.0000 Du        
    652 ****       116.2500 246.5000 362.2500 Du        
    653 ****       116.2500 246.5000 362.5000 Du        
    654 ****       116.2500 246.5000 362.7500 Du        
    655 ****       116.2500 246.7500 359.2500 Du        
    656 ****       116.2500 246.7500 359.5000 Du        
    657 ****       116.2500 246.7500 359.7500 Du        
    658 ****       116.2500 246.7500 360.0000 Du        
    659 ****       116.2500 246.7500 360.2500 Du        
    660 ****       116.2500 246.7500 360.5000 Du        
    661 ****       116.2500 246.7500 360.7500 Du        
    662 ****       116.2500 246.7500 361.0000 Du        
    663 ****       116.2500 246.7500 361.2500 Du        
    664 ****       116.2500 246.7500 361.5000 Du        
    665 ****       116.2500 246.7500 361.7500 Du        
    666 ****       116.2500 246.7500 362.0000 Du        
    667 ****       116.2500 246.7500 362.2500 Du        
    668 ****       116.2500 246.7500 362.5000 Du        
    669 ****       116.2500 246.7500 362.7500 Du        
    670 ****       116.2500 246.7500 363.0000 Du        
    671 ****       116.2500 247.0000 359.5000 Du        
    672 ****       116.2500 247.0000 359.7500 Du        
    673 ****       116.2500 247.0000 360.0000 Du        
    674 ****       116.2500 247.0000 360.2500 Du        
    675 ****       116.2500 247.0000 360.5000 Du        
    676 ****       116.2500 247.0000 360.7500 Du        
    677 ****       116.2500 247.0000 361.0000 Du        
    678 ****       116.2500 247.0000 361.2500 Du        
    679 ****       116.2500 247.0000 361.5000 Du        
    680 ****       116.2500 247.0000 361.7500 Du        
    681 ****       116.2500 247.0000 362.0000 Du        
    682 ****       116.2500 247.0000 362.2500 Du        
    683 ****       116.2500 247.0000 362.5000 Du        
    684 ****       116.2500 247.0000 362.7500 Du        
    685 ****       116.2500 247.0000 363.0000 Du        
    686 ****       116.2500 247.2500 359.5000 Du        
    687 ****       116.2500 247.2500 359.7500 Du        
    688 ****       116.2500 247.2500 360.0000 Du        
    689 ****       116.2500 247.2500 360.2500 Du        
    690 ****       116.2500 247.2500 360.5000 Du        
    691 ****       116.2500 247.2500 360.7500 Du        
    692 ****       116.2500 247.2500 361.0000 Du        
    693 ****       116.2500 247.2500 361.2500 Du        
    694 ****       116.2500 247.2500 361.5000 Du        
    695 ****       116.2500 247.2500 361.7500 Du        
    696 ****       116.2500 247.2500 362.0000 Du        
    697 ****       116.2500 247.2500 362.2500 Du        
    698 ****       116.2500 247.2500 362.5000 Du        
    699 ****       116.2500 247.2500 362.7500 Du        
    700 ****       116.2500 247.2500 363.0000 Du        
    701 ****       116.2500 247.5000 359.5000 Du        
    702 ****       116.2500 247.5000 359.7500 Du        
    703 ****       116.2500 247.5000 360.0000 Du        
    704 ****       116.2500 247.5000 360.2500 Du        
    705 ****       116.2500 247.5000 360.5000 Du        
    706 ****       116.2500 247.5000 360.7500 Du        
    707 ****       116.2500 247.5000 361.0000 Du        
    708 ****       116.2500 247.5000 361.2500 Du        
    709 ****       116.2500 247.5000 361.5000 Du        
    710 ****       116.2500 247.5000 361.7500 Du        
    711 ****       116.2500 247.5000 362.0000 Du        
    712 ****       116.2500 247.5000 362.2500 Du        
    713 ****       116.2500 247.5000 362.5000 Du        
    714 ****       116.2500 247.5000 362.7500 Du        
    715 ****       116.2500 247.7500 359.7500 Du        
    716 ****       116.2500 247.7500 360.0000 Du        
    717 ****       116.2500 247.7500 360.2500 Du        
    718 ****       116.2500 247.7500 360.5000 Du        
    719 ****       116.2500 247.7500 360.7500 Du        
    720 ****       116.2500 247.7500 361.0000 Du        
    721 ****       116.2500 247.7500 361.2500 Du        
    722 ****       116.2500 247.7500 361.5000 Du        
    723 ****       116.2500 247.7500 361.7500 Du        
    724 ****       116.2500 247.7500 362.0000 Du        
    725 ****       116.2500 247.7500 362.2500 Du        
    726 ****       116.2500 248.0000 360.0000 Du        
    727 ****       116.2500 248.0000 360.2500 Du        
    728 ****       116.2500 248.0000 360.5000 Du        
    729 ****       116.2500 248.0000 360.7500 Du        
    730 ****       116.2500 248.0000 361.0000 Du        
    731 ****       116.5000 243.5000 359.5000 Du        
    732 ****       116.5000 243.5000 359.7500 Du        
    733 ****       116.5000 243.5000 360.0000 Du        
    734 ****       116.5000 243.7500 359.2500 Du        
    735 ****       116.5000 243.7500 359.5000 Du        
    736 ****       116.5000 243.7500 359.7500 Du        
    737 ****       116.5000 243.7500 360.0000 Du        
    738 ****       116.5000 243.7500 360.2500 Du        
    739 ****       116.5000 244.0000 359.0000 Du        
    740 ****       116.5000 244.0000 359.2500 Du        
    741 ****       116.5000 244.0000 359.5000 Du        
    742 ****       116.5000 244.0000 359.7500 Du        
    743 ****       116.5000 244.0000 360.0000 Du        
    744 ****       116.5000 244.0000 360.2500 Du        
    745 ****       116.5000 244.2500 359.0000 Du        
    746 ****       116.5000 244.2500 359.2500 Du        
    747 ****       116.5000 244.2500 359.5000 Du        
    748 ****       116.5000 244.2500 359.7500 Du        
    749 ****       116.5000 244.2500 360.0000 Du        
    750 ****       116.5000 244.2500 360.2500 Du        
    751 ****       116.5000 244.2500 360.5000 Du        
    752 ****       116.5000 244.5000 359.0000 Du        
    753 ****       116.5000 244.5000 359.2500 Du        
    754 ****       116.5000 244.5000 359.5000 Du        
    755 ****       116.5000 244.5000 359.7500 Du        
    756 ****       116.5000 244.5000 360.0000 Du        
    757 ****       116.5000 244.5000 360.2500 Du        
    758 ****       116.5000 244.5000 360.5000 Du        
    759 ****       116.5000 244.7500 358.7500 Du        
    760 ****       116.5000 244.7500 359.0000 Du        
    761 ****       116.5000 244.7500 359.2500 Du        
    762 ****       116.5000 244.7500 359.5000 Du        
    763 ****       116.5000 244.7500 359.7500 Du        
    764 ****       116.5000 244.7500 360.0000 Du        
    765 ****       116.5000 244.7500 360.2500 Du        
    766 ****       116.5000 244.7500 360.5000 Du        
    767 ****       116.5000 244.7500 360.7500 Du        
    768 ****       116.5000 245.0000 359.0000 Du        
    769 ****       116.5000 245.0000 359.2500 Du        
    770 ****       116.5000 245.0000 359.5000 Du        
    771 ****       116.5000 245.0000 359.7500 Du        
    772 ****       116.5000 245.0000 360.0000 Du        
    773 ****       116.5000 245.0000 360.2500 Du        
    774 ****       116.5000 245.0000 360.5000 Du        
    775 ****       116.5000 245.0000 360.7500 Du        
    776 ****       116.5000 245.0000 361.0000 Du        
    777 ****       116.5000 245.2500 359.0000 Du        
    778 ****       116.5000 245.2500 359.2500 Du        
    779 ****       116.5000 245.2500 359.5000 Du        
    780 ****       116.5000 245.2500 359.7500 Du        
    781 ****       116.5000 245.2500 360.0000 Du        
    782 ****       116.5000 245.2500 360.2500 Du        
    783 ****       116.5000 245.2500 360.5000 Du        
    784 ****       116.5000 245.2500 360.7500 Du        
    785 ****       116.5000 245.2500 361.0000 Du        
    786 ****       116.5000 245.2500 361.2500 Du        
    787 ****       116.5000 245.2500 361.5000 Du        
    788 ****       116.5000 245.5000 359.0000 Du        
    789 ****       116.5000 245.5000 359.2500 Du        
    790 ****       116.5000 245.5000 359.5000 Du        
    791 ****       116.5000 245.5000 359.7500 Du        
    792 ****       116.5000 245.5000 360.0000 Du        
    793 ****       116.5000 245.5000 360.2500 Du        
    794 ****       116.5000 245.5000 360.5000 Du        
    795 ****       116.5000 245.5000 360.7500 Du        
    796 ****       116.5000 245.5000 361.0000 Du        
    797 ****       116.5000 245.5000 361.2500 Du        
    798 ****       116.5000 245.5000 361.5000 Du        
    799 ****       116.5000 245.5000 361.7500 Du        
    800 ****       116.5000 245.5000 362.0000 Du        
    801 ****       116.5000 245.7500 359.0000 Du        
    802 ****       116.5000 245.7500 359.2500 Du        
    803 ****       116.5000 245.7500 359.5000 Du        
    804 ****       116.5000 245.7500 359.7500 Du        
    805 ****       116.5000 245.7500 360.0000 Du        
    806 ****       116.5000 245.7500 360.2500 Du        
    807 ****       116.5000 245.7500 360.5000 Du        
    808 ****       116.5000 245.7500 360.7500 Du        
    809 ****       116.5000 245.7500 361.0000 Du        
    810 ****       116.5000 245.7500 361.2500 Du        
    811 ****       116.5000 245.7500 361.5000 Du        
    812 ****       116.5000 245.7500 361.7500 Du        
    813 ****       116.5000 245.7500 362.0000 Du        
    814 ****       116.5000 245.7500 362.2500 Du        
    815 ****       116.5000 246.0000 359.0000 Du        
    816 ****       116.5000 246.0000 359.2500 Du        
    817 ****       116.5000 246.0000 359.5000 Du        
    818 ****       116.5000 246.0000 359.7500 Du        
    819 ****       116.5000 246.0000 360.0000 Du        
    820 ****       116.5000 246.0000 360.2500 Du        
    821 ****       116.5000 246.0000 360.5000 Du        
    822 ****       116.5000 246.0000 360.7500 Du        
    823 ****       116.5000 246.0000 361.0000 Du        
    824 ****       116.5000 246.0000 361.2500 Du        
    825 ****       116.5000 246.0000 361.5000 Du        
    826 ****       116.5000 246.0000 361.7500 Du        
    827 ****       116.5000 246.0000 362.0000 Du        
    828 ****       116.5000 246.0000 362.2500 Du        
    829 ****       116.5000 246.0000 362.5000 Du        
    830 ****       116.5000 246.2500 359.0000 Du        
    831 ****       116.5000 246.2500 359.2500 Du        
    832 ****       116.5000 246.2500 359.5000 Du        
    833 ****       116.5000 246.2500 359.7500 Du        
    834 ****       116.5000 246.2500 360.0000 Du        
    835 ****       116.5000 246.2500 360.2500 Du        
    836 ****       116.5000 246.2500 360.5000 Du        
    837 ****       116.5000 246.2500 360.7500 Du        
    838 ****       116.5000 246.2500 361.0000 Du        
    839 ****       116.5000 246.2500 361.2500 Du        
    840 ****       116.5000 246.2500 361.5000 Du        
    841 ****       116.5000 246.2500 361.7500 Du        
    842 ****       116.5000 246.2500 362.0000 Du        
    843 ****       116.5000 246.2500 362.2500 Du        
    844 ****       116.5000 246.2500 362.5000 Du        
    845 ****       116.5000 246.5000 359.2500 Du        
    846 ****       116.5000 246.5000 359.5000 Du        
    847 ****       116.5000 246.5000 359.7500 Du        
    848 ****       116.5000 246.5000 360.0000 Du        
    849 ****       116.5000 246.5000 360.2500 Du        
    850 ****       116.5000 246.5000 360.5000 Du        
    851 ****       116.5000 246.5000 360.7500 Du        
    852 ****       116.5000 246.5000 361.0000 Du        
    853 ****       116.5000 246.5000 361.2500 Du        
    854 ****       116.5000 246.5000 361.5000 Du        
    855 ****       116.5000 246.5000 361.7500 Du        
    856 ****       116.5000 246.5000 362.0000 Du        
    857 ****       116.5000 246.5000 362.2500 Du        
    858 ****       116.5000 246.5000 362.5000 Du        
    859 ****       116.5000 246.5000 362.7500 Du        
    860 ****       116.5000 246.7500 359.2500 Du        
    861 ****       116.5000 246.7500 359.5000 Du        
    862 ****       116.5000 246.7500 359.7500 Du        
    863 ****       116.5000 246.7500 360.0000 Du        
    864 ****       116.5000 246.7500 360.2500 Du        
    865 ****       116.5000 246.7500 360.5000 Du        
    866 ****       116.5000 246.7500 360.7500 Du        
    867 ****       116.5000 246.7500 361.0000 Du        
    868 ****       116.5000 246.7500 361.2500 Du        
    869 ****       116.5000 246.7500 361.5000 Du        
    870 ****       116.5000 246.7500 361.7500 Du        
    871 ****       116.5000 246.7500 362.0000 Du        
    872 ****       116.5000 246.7500 362.2500 Du        
    873 ****       116.5000 246.7500 362.5000 Du        
    874 ****       116.5000 246.7500 362.7500 Du        
    875 ****       116.5000 246.7500 363.0000 Du        
    876 ****       116.5000 247.0000 359.2500 Du        
    877 ****       116.5000 247.0000 359.5000 Du        
    878 ****       116.5000 247.0000 359.7500 Du        
    879 ****       116.5000 247.0000 360.0000 Du        
    880 ****       116.5000 247.0000 360.2500 Du        
    881 ****       116.5000 247.0000 360.5000 Du        
    882 ****       116.5000 247.0000 360.7500 Du        
    883 ****       116.5000 247.0000 361.0000 Du        
    884 ****       116.5000 247.0000 361.2500 Du        
    885 ****       116.5000 247.0000 361.5000 Du        
    886 ****       116.5000 247.0000 361.7500 Du        
    887 ****       116.5000 247.0000 362.0000 Du        
    888 ****       116.5000 247.0000 362.2500 Du        
    889 ****       116.5000 247.0000 362.5000 Du        
    890 ****       116.5000 247.0000 362.7500 Du        
    891 ****       116.5000 247.0000 363.0000 Du        
    892 ****       116.5000 247.2500 359.2500 Du        
    893 ****       116.5000 247.2500 359.5000 Du        
    894 ****       116.5000 247.2500 359.7500 Du        
    895 ****       116.5000 247.2500 360.0000 Du        
    896 ****       116.5000 247.2500 360.2500 Du        
    897 ****       116.5000 247.2500 360.5000 Du        
    898 ****       116.5000 247.2500 360.7500 Du        
    899 ****       116.5000 247.2500 361.0000 Du        
    900 ****       116.5000 247.2500 361.2500 Du        
    901 ****       116.5000 247.2500 361.5000 Du        
    902 ****       116.5000 247.2500 361.7500 Du        
    903 ****       116.5000 247.2500 362.0000 Du        
    904 ****       116.5000 247.2500 362.2500 Du        
    905 ****       116.5000 247.2500 362.5000 Du        
    906 ****       116.5000 247.2500 362.7500 Du        
    907 ****       116.5000 247.2500 363.0000 Du        
    908 ****       116.5000 247.5000 359.5000 Du        
    909 ****       116.5000 247.5000 359.7500 Du        
    910 ****       116.5000 247.5000 360.0000 Du        
    911 ****       116.5000 247.5000 360.2500 Du        
    912 ****       116.5000 247.5000 360.5000 Du        
    913 ****       116.5000 247.5000 360.7500 Du        
    914 ****       116.5000 247.5000 361.0000 Du        
    915 ****       116.5000 247.5000 361.2500 Du        
    916 ****       116.5000 247.5000 361.5000 Du        
    917 ****       116.5000 247.5000 361.7500 Du        
    918 ****       116.5000 247.5000 362.0000 Du        
    919 ****       116.5000 247.5000 362.2500 Du        
    920 ****       116.5000 247.5000 362.5000 Du        
    921 ****       116.5000 247.5000 362.7500 Du        
    922 ****       116.5000 247.7500 359.5000 Du        
    923 ****       116.5000 247.7500 359.7500 Du        
    924 ****       116.5000 247.7500 360.0000 Du        
    925 ****       116.5000 247.7500 360.2500 Du        
    926 ****       116.5000 247.7500 360.5000 Du        
    927 ****       116.5000 247.7500 360.7500 Du        
    928 ****       116.5000 247.7500 361.0000 Du        
    929 ****       116.5000 247.7500 361.2500 Du        
    930 ****       116.5000 247.7500 361.5000 Du        
    931 ****       116.5000 247.7500 361.7500 Du        
    932 ****       116.5000 247.7500 362.0000 Du        
    933 ****       116.5000 247.7500 362.2500 Du        
    934 ****       116.5000 247.7500 362.5000 Du        
    935 ****       116.5000 248.0000 359.7500 Du        
    936 ****       116.5000 248.0000 360.0000 Du        
    937 ****       116.5000 248.0000 360.2500 Du        
    938 ****       116.5000 248.0000 360.5000 Du        
    939 ****       116.5000 248.0000 360.7500 Du        
    940 ****       116.5000 248.0000 361.0000 Du        
    941 ****       116.5000 248.2500 360.0000 Du        
    942 ****       116.5000 248.2500 360.2500 Du        
    943 ****       116.5000 248.2500 360.5000 Du        
    944 ****       116.7500 243.5000 359.5000 Du        
    945 ****       116.7500 243.5000 359.7500 Du        
    946 ****       116.7500 243.7500 359.2500 Du        
    947 ****       116.7500 243.7500 359.5000 Du        
    948 ****       116.7500 243.7500 359.7500 Du        
    949 ****       116.7500 243.7500 360.0000 Du        
    950 ****       116.7500 244.0000 359.2500 Du        
    951 ****       116.7500 244.0000 359.5000 Du        
    952 ****       116.7500 244.0000 359.7500 Du        
    953 ****       116.7500 244.0000 360.0000 Du        
    954 ****       116.7500 244.0000 360.2500 Du        
    955 ****       116.7500 244.2500 359.0000 Du        
    956 ****       116.7500 244.2500 359.2500 Du        
    957 ****       116.7500 244.2500 359.5000 Du        
    958 ****       116.7500 244.2500 359.7500 Du        
    959 ****       116.7500 244.2500 360.0000 Du        
    960 ****       116.7500 244.2500 360.2500 Du        
    961 ****       116.7500 244.5000 359.0000 Du        
    962 ****       116.7500 244.5000 359.2500 Du        
    963 ****       116.7500 244.5000 359.5000 Du        
    964 ****       116.7500 244.5000 359.7500 Du        
    965 ****       116.7500 244.5000 360.0000 Du        
    966 ****       116.7500 244.5000 360.2500 Du        
    967 ****       116.7500 244.7500 358.7500 Du        
    968 ****       116.7500 244.7500 359.0000 Du        
    969 ****       116.7500 244.7500 359.2500 Du        
    970 ****       116.7500 244.7500 359.5000 Du        
    971 ****       116.7500 244.7500 359.7500 Du        
    972 ****       116.7500 244.7500 360.0000 Du        
    973 ****       116.7500 244.7500 360.2500 Du        
    974 ****       116.7500 244.7500 360.5000 Du        
    975 ****       116.7500 245.0000 358.7500 Du        
    976 ****       116.7500 245.0000 359.0000 Du        
    977 ****       116.7500 245.0000 359.2500 Du        
    978 ****       116.7500 245.0000 359.5000 Du        
    979 ****       116.7500 245.0000 359.7500 Du        
    980 ****       116.7500 245.0000 360.0000 Du        
    981 ****       116.7500 245.0000 360.2500 Du        
    982 ****       116.7500 245.0000 360.5000 Du        
    983 ****       116.7500 245.0000 360.7500 Du        
    984 ****       116.7500 245.2500 358.7500 Du        
    985 ****       116.7500 245.2500 359.0000 Du        
    986 ****       116.7500 245.2500 359.2500 Du        
    987 ****       116.7500 245.2500 359.5000 Du        
    988 ****       116.7500 245.2500 359.7500 Du        
    989 ****       116.7500 245.2500 360.0000 Du        
    990 ****       116.7500 245.2500 360.2500 Du        
    991 ****       116.7500 245.2500 360.5000 Du        
    992 ****       116.7500 245.2500 360.7500 Du        
    993 ****       116.7500 245.2500 361.0000 Du        
    994 ****       116.7500 245.5000 358.7500 Du        
    995 ****       116.7500 245.5000 359.0000 Du        
    996 ****       116.7500 245.5000 359.2500 Du        
    997 ****       116.7500 245.5000 359.5000 Du        
    998 ****       116.7500 245.5000 359.7500 Du        
    999 ****       116.7500 245.5000 360.0000 Du        
   1000 ****       116.7500 245.5000 360.2500 Du        
   1001 ****       116.7500 245.5000 360.5000 Du        
   1002 ****       116.7500 245.5000 360.7500 Du        
   1003 ****       116.7500 245.5000 361.0000 Du        
   1004 ****       116.7500 245.5000 361.2500 Du        
   1005 ****       116.7500 245.5000 361.5000 Du        
   1006 ****       116.7500 245.7500 358.7500 Du        
   1007 ****       116.7500 245.7500 359.0000 Du        
   1008 ****       116.7500 245.7500 359.2500 Du        
   1009 ****       116.7500 245.7500 359.5000 Du        
   1010 ****       116.7500 245.7500 359.7500 Du        
   1011 ****       116.7500 245.7500 360.0000 Du        
   1012 ****       116.7500 245.7500 360.2500 Du        
   1013 ****       116.7500 245.7500 360.5000 Du        
   1014 ****       116.7500 245.7500 360.7500 Du        
   1015 ****       116.7500 245.7500 361.0000 Du        
   1016 ****       116.7500 245.7500 361.2500 Du        
   1017 ****       116.7500 245.7500 361.5000 Du        
   1018 ****       116.7500 245.7500 361.7500 Du        
   1019 ****       116.7500 245.7500 362.0000 Du        
   1020 ****       116.7500 246.0000 358.7500 Du        
   1021 ****       116.7500 246.0000 359.0000 Du        
   1022 ****       116.7500 246.0000 359.2500 Du        
   1023 ****       116.7500 246.0000 359.5000 Du        
   1024 ****       116.7500 246.0000 359.7500 Du        
   1025 ****       116.7500 246.0000 360.0000 Du        
   1026 ****       116.7500 246.0000 360.2500 Du        
   1027 ****       116.7500 246.0000 360.5000 Du        
   1028 ****       116.7500 246.0000 360.7500 Du        
   1029 ****       116.7500 246.0000 361.0000 Du        
   1030 ****       116.7500 246.0000 361.2500 Du        
   1031 ****       116.7500 246.0000 361.5000 Du        
   1032 ****       116.7500 246.0000 361.7500 Du        
   1033 ****       116.7500 246.0000 362.0000 Du        
   1034 ****       116.7500 246.0000 362.2500 Du        
   1035 ****       116.7500 246.2500 359.0000 Du        
   1036 ****       116.7500 246.2500 359.2500 Du        
   1037 ****       116.7500 246.2500 359.5000 Du        
   1038 ****       116.7500 246.2500 359.7500 Du        
   1039 ****       116.7500 246.2500 360.0000 Du        
   1040 ****       116.7500 246.2500 360.2500 Du        
   1041 ****       116.7500 246.2500 360.5000 Du        
   1042 ****       116.7500 246.2500 360.7500 Du        
   1043 ****       116.7500 246.2500 361.0000 Du        
   1044 ****       116.7500 246.2500 361.2500 Du        
   1045 ****       116.7500 246.2500 361.5000 Du        
   1046 ****       116.7500 246.2500 361.7500 Du        
   1047 ****       116.7500 246.2500 362.0000 Du        
   1048 ****       116.7500 246.2500 362.2500 Du        
   1049 ****       116.7500 246.2500 362.5000 Du        
   1050 ****       116.7500 246.5000 359.0000 Du        
   1051 ****       116.7500 246.5000 359.2500 Du        
   1052 ****       116.7500 246.5000 359.5000 Du        
   1053 ****       116.7500 246.5000 359.7500 Du        
   1054 ****       116.7500 246.5000 360.0000 Du        
   1055 ****       116.7500 246.5000 360.2500 Du        
   1056 ****       116.7500 246.5000 360.5000 Du        
   1057 ****       116.7500 246.5000 360.7500 Du        
   1058 ****       116.7500 246.5000 361.0000 Du        
   1059 ****       116.7500 246.5000 361.2500 Du        
   1060 ****       116.7500 246.5000 361.5000 Du        
   1061 ****       116.7500 246.5000 361.7500 Du        
   1062 ****       116.7500 246.5000 362.0000 Du        
   1063 ****       116.7500 246.5000 362.2500 Du        
   1064 ****       116.7500 246.5000 362.5000 Du        
   1065 ****       116.7500 246.5000 362.7500 Du        
   1066 ****       116.7500 246.7500 359.0000 Du        
   1067 ****       116.7500 246.7500 359.2500 Du        
   1068 ****       116.7500 246.7500 359.5000 Du        
   1069 ****       116.7500 246.7500 359.7500 Du        
   1070 ****       116.7500 246.7500 360.0000 Du        
   1071 ****       116.7500 246.7500 360.2500 Du        
   1072 ****       116.7500 246.7500 360.5000 Du        
   1073 ****       116.7500 246.7500 360.7500 Du        
   1074 ****       116.7500 246.7500 361.0000 Du        
   1075 ****       116.7500 246.7500 361.2500 Du        
   1076 ****       116.7500 246.7500 361.5000 Du        
   1077 ****       116.7500 246.7500 361.7500 Du        
   1078 ****       116.7500 246.7500 362.0000 Du        
   1079 ****       116.7500 246.7500 362.2500 Du        
   1080 ****       116.7500 246.7500 362.5000 Du        
   1081 ****       116.7500 246.7500 362.7500 Du        
   1082 ****       116.7500 246.7500 363.0000 Du        
   1083 ****       116.7500 247.0000 359.0000 Du        
   1084 ****       116.7500 247.0000 359.2500 Du        
   1085 ****       116.7500 247.0000 359.5000 Du        
   1086 ****       116.7500 247.0000 359.7500 Du        
   1087 ****       116.7500 247.0000 360.0000 Du        
   1088 ****       116.7500 247.0000 360.2500 Du        
   1089 ****       116.7500 247.0000 360.5000 Du        
   1090 ****       116.7500 247.0000 360.7500 Du        
   1091 ****       116.7500 247.0000 361.0000 Du        
   1092 ****       116.7500 247.0000 361.2500 Du        
   1093 ****       116.7500 247.0000 361.5000 Du        
   1094 ****       116.7500 247.0000 361.7500 Du        
   1095 ****       116.7500 247.0000 362.0000 Du        
   1096 ****       116.7500 247.0000 362.2500 Du        
   1097 ****       116.7500 247.0000 362.5000 Du        
   1098 ****       116.7500 247.0000 362.7500 Du        
   1099 ****       116.7500 247.0000 363.0000 Du        
   1100 ****       116.7500 247.2500 359.2500 Du        
   1101 ****       116.7500 247.2500 359.5000 Du        
   1102 ****       116.7500 247.2500 359.7500 Du        
   1103 ****       116.7500 247.2500 360.0000 Du        
   1104 ****       116.7500 247.2500 360.2500 Du        
   1105 ****       116.7500 247.2500 360.5000 Du        
   1106 ****       116.7500 247.2500 360.7500 Du        
   1107 ****       116.7500 247.2500 361.0000 Du        
   1108 ****       116.7500 247.2500 361.2500 Du        
   1109 ****       116.7500 247.2500 361.5000 Du        
   1110 ****       116.7500 247.2500 361.7500 Du        
   1111 ****       116.7500 247.2500 362.0000 Du        
   1112 ****       116.7500 247.2500 362.2500 Du        
   1113 ****       116.7500 247.2500 362.5000 Du        
   1114 ****       116.7500 247.2500 362.7500 Du        
   1115 ****       116.7500 247.2500 363.0000 Du        
   1116 ****       116.7500 247.5000 359.2500 Du        
   1117 ****       116.7500 247.5000 359.5000 Du        
   1118 ****       116.7500 247.5000 359.7500 Du        
   1119 ****       116.7500 247.5000 360.0000 Du        
   1120 ****       116.7500 247.5000 360.2500 Du        
   1121 ****       116.7500 247.5000 360.5000 Du        
   1122 ****       116.7500 247.5000 360.7500 Du        
   1123 ****       116.7500 247.5000 361.0000 Du        
   1124 ****       116.7500 247.5000 361.2500 Du        
   1125 ****       116.7500 247.5000 361.5000 Du        
   1126 ****       116.7500 247.5000 361.7500 Du        
   1127 ****       116.7500 247.5000 362.0000 Du        
   1128 ****       116.7500 247.5000 362.2500 Du        
   1129 ****       116.7500 247.5000 362.5000 Du        
   1130 ****       116.7500 247.5000 362.7500 Du        
   1131 ****       116.7500 247.5000 363.0000 Du        
   1132 ****       116.7500 247.7500 359.2500 Du        
   1133 ****       116.7500 247.7500 359.5000 Du        
   1134 ****       116.7500 247.7500 359.7500 Du        
   1135 ****       116.7500 247.7500 360.0000 Du        
   1136 ****       116.7500 247.7500 360.2500 Du        
   1137 ****       116.7500 247.7500 360.5000 Du        
   1138 ****       116.7500 247.7500 360.7500 Du        
   1139 ****       116.7500 247.7500 361.0000 Du        
   1140 ****       116.7500 247.7500 361.2500 Du        
   1141 ****       116.7500 247.7500 361.5000 Du        
   1142 ****       116.7500 247.7500 361.7500 Du        
   1143 ****       116.7500 247.7500 362.0000 Du        
   1144 ****       116.7500 247.7500 362.2500 Du        
   1145 ****       116.7500 247.7500 362.5000 Du        
   1146 ****       116.7500 248.0000 359.5000 Du        
   1147 ****       116.7500 248.0000 359.7500 Du        
   1148 ****       116.7500 248.0000 360.0000 Du        
   1149 ****       116.7500 248.0000 360.2500 Du        
   1150 ****       116.7500 248.0000 360.5000 Du        
   1151 ****       116.7500 248.0000 360.7500 Du        
   1152 ****       116.7500 248.0000 361.0000 Du        
   1153 ****       116.7500 248.0000 361.2500 Du        
   1154 ****       116.7500 248.2500 359.7500 Du        
   1155 ****       116.7500 248.2500 360.0000 Du        
   1156 ****       116.7500 248.2500 360.2500 Du        
   1157 ****       116.7500 248.2500 360.5000 Du        
   1158 ****       117.0000 243.7500 359.5000 Du        
   1159 ****       117.0000 243.7500 359.7500 Du        
   1160 ****       117.0000 244.0000 359.2500 Du        
   1161 ****       117.0000 244.0000 359.5000 Du        
   1162 ****       117.0000 244.0000 359.7500 Du        
   1163 ****       117.0000 244.0000 360.0000 Du        
   1164 ****       117.0000 244.2500 359.2500 Du        
   1165 ****       117.0000 244.2500 359.5000 Du        
   1166 ****       117.0000 244.2500 359.7500 Du        
   1167 ****       117.0000 244.2500 360.0000 Du        
   1168 ****       117.0000 244.5000 359.0000 Du        
   1169 ****       117.0000 244.5000 359.2500 Du        
   1170 ****       117.0000 244.5000 359.5000 Du        
   1171 ****       117.0000 244.5000 359.7500 Du        
   1172 ****       117.0000 244.5000 360.0000 Du        
   1173 ****       117.0000 244.5000 360.2500 Du        
   1174 ****       117.0000 244.7500 359.0000 Du        
   1175 ****       117.0000 244.7500 359.2500 Du        
   1176 ****       117.0000 244.7500 359.5000 Du        
   1177 ****       117.0000 244.7500 359.7500 Du        
   1178 ****       117.0000 244.7500 360.0000 Du        
   1179 ****       117.0000 244.7500 360.2500 Du        
   1180 ****       117.0000 245.0000 359.0000 Du        
   1181 ****       117.0000 245.0000 359.2500 Du        
   1182 ****       117.0000 245.0000 359.5000 Du        
   1183 ****       117.0000 245.0000 359.7500 Du        
   1184 ****       117.0000 245.0000 360.0000 Du        
   1185 ****       117.0000 245.0000 360.2500 Du        
   1186 ****       117.0000 245.0000 360.5000 Du        
   1187 ****       117.0000 245.2500 358.7500 Du        
   1188 ****       117.0000 245.2500 359.0000 Du        
   1189 ****       117.0000 245.2500 359.2500 Du        
   1190 ****       117.0000 245.2500 359.5000 Du        
   1191 ****       117.0000 245.2500 359.7500 Du        
   1192 ****       117.0000 245.2500 360.0000 Du        
   1193 ****       117.0000 245.2500 360.2500 Du        
   1194 ****       117.0000 245.2500 360.5000 Du        
   1195 ****       117.0000 245.2500 360.7500 Du        
   1196 ****       117.0000 245.5000 358.7500 Du        
   1197 ****       117.0000 245.5000 359.0000 Du        
   1198 ****       117.0000 245.5000 359.2500 Du        
   1199 ****       117.0000 245.5000 359.5000 Du        
   1200 ****       117.0000 245.5000 359.7500 Du        
   1201 ****       117.0000 245.5000 360.0000 Du        
   1202 ****       117.0000 245.5000 360.2500 Du        
   1203 ****       117.0000 245.5000 360.5000 Du        
   1204 ****       117.0000 245.5000 360.7500 Du        
   1205 ****       117.0000 245.5000 361.0000 Du        
   1206 ****       117.0000 245.7500 358.7500 Du        
   1207 ****       117.0000 245.7500 359.0000 Du        
   1208 ****       117.0000 245.7500 359.2500 Du        
   1209 ****       117.0000 245.7500 359.5000 Du        
   1210 ****       117.0000 245.7500 359.7500 Du        
   1211 ****       117.0000 245.7500 360.0000 Du        
   1212 ****       117.0000 245.7500 360.2500 Du        
   1213 ****       117.0000 245.7500 360.5000 Du        
   1214 ****       117.0000 245.7500 360.7500 Du        
   1215 ****       117.0000 245.7500 361.0000 Du        
   1216 ****       117.0000 245.7500 361.2500 Du        
   1217 ****       117.0000 245.7500 361.5000 Du        
   1218 ****       117.0000 246.0000 358.7500 Du        
   1219 ****       117.0000 246.0000 359.0000 Du        
   1220 ****       117.0000 246.0000 359.2500 Du        
   1221 ****       117.0000 246.0000 359.5000 Du        
   1222 ****       117.0000 246.0000 359.7500 Du        
   1223 ****       117.0000 246.0000 360.0000 Du        
   1224 ****       117.0000 246.0000 360.2500 Du        
   1225 ****       117.0000 246.0000 360.5000 Du        
   1226 ****       117.0000 246.0000 360.7500 Du        
   1227 ****       117.0000 246.0000 361.0000 Du        
   1228 ****       117.0000 246.0000 361.2500 Du        
   1229 ****       117.0000 246.0000 361.5000 Du        
   1230 ****       117.0000 246.0000 361.7500 Du        
   1231 ****       117.0000 246.0000 362.0000 Du        
   1232 ****       117.0000 246.0000 362.2500 Du        
   1233 ****       117.0000 246.2500 358.7500 Du        
   1234 ****       117.0000 246.2500 359.0000 Du        
   1235 ****       117.0000 246.2500 359.2500 Du        
   1236 ****       117.0000 246.2500 359.5000 Du        
   1237 ****       117.0000 246.2500 359.7500 Du        
   1238 ****       117.0000 246.2500 360.0000 Du        
   1239 ****       117.0000 246.2500 360.2500 Du        
   1240 ****       117.0000 246.2500 360.5000 Du        
   1241 ****       117.0000 246.2500 360.7500 Du        
   1242 ****       117.0000 246.2500 361.0000 Du        
   1243 ****       117.0000 246.2500 361.2500 Du        
   1244 ****       117.0000 246.2500 361.5000 Du        
   1245 ****       117.0000 246.2500 361.7500 Du        
   1246 ****       117.0000 246.2500 362.0000 Du        
   1247 ****       117.0000 246.2500 362.2500 Du        
   1248 ****       117.0000 246.2500 362.5000 Du        
   1249 ****       117.0000 246.5000 358.7500 Du        
   1250 ****       117.0000 246.5000 359.0000 Du        
   1251 ****       117.0000 246.5000 359.2500 Du        
   1252 ****       117.0000 246.5000 359.5000 Du        
   1253 ****       117.0000 246.5000 359.7500 Du        
   1254 ****       117.0000 246.5000 360.0000 Du        
   1255 ****       117.0000 246.5000 360.2500 Du        
   1256 ****       117.0000 246.5000 360.5000 Du        
   1257 ****       117.0000 246.5000 360.7500 Du        
   1258 ****       117.0000 246.5000 361.0000 Du        
   1259 ****       117.0000 246.5000 361.2500 Du        
   1260 ****       117.0000 246.5000 361.5000 Du        
   1261 ****       117.0000 246.5000 361.7500 Du        
   1262 ****       117.0000 246.5000 362.0000 Du        
   1263 ****       117.0000 246.5000 362.2500 Du        
   1264 ****       117.0000 246.5000 362.5000 Du        
   1265 ****       117.0000 246.5000 362.7500 Du        
   1266 ****       117.0000 246.7500 359.0000 Du        
   1267 ****       117.0000 246.7500 359.2500 Du        
   1268 ****       117.0000 246.7500 359.5000 Du        
   1269 ****       117.0000 246.7500 359.7500 Du        
   1270 ****       117.0000 246.7500 360.0000 Du        
   1271 ****       117.0000 246.7500 360.2500 Du        
   1272 ****       117.0000 246.7500 360.5000 Du        
   1273 ****       117.0000 246.7500 360.7500 Du        
   1274 ****       117.0000 246.7500 361.0000 Du        
   1275 ****       117.0000 246.7500 361.2500 Du        
   1276 ****       117.0000 246.7500 361.5000 Du        
   1277 ****       117.0000 246.7500 361.7500 Du        
   1278 ****       117.0000 246.7500 362.0000 Du        
   1279 ****       117.0000 246.7500 362.2500 Du        
   1280 ****       117.0000 246.7500 362.5000 Du        
   1281 ****       117.0000 246.7500 362.7500 Du        
   1282 ****       117.0000 247.0000 359.0000 Du        
   1283 ****       117.0000 247.0000 359.2500 Du        
   1284 ****       117.0000 247.0000 359.5000 Du        
   1285 ****       117.0000 247.0000 359.7500 Du        
   1286 ****       117.0000 247.0000 360.0000 Du        
   1287 ****       117.0000 247.0000 360.2500 Du        
   1288 ****       117.0000 247.0000 360.5000 Du        
   1289 ****       117.0000 247.0000 360.7500 Du        
   1290 ****       117.0000 247.0000 361.0000 Du        
   1291 ****       117.0000 247.0000 361.2500 Du        
   1292 ****       117.0000 247.0000 361.5000 Du        
   1293 ****       117.0000 247.0000 361.7500 Du        
   1294 ****       117.0000 247.0000 362.0000 Du        
   1295 ****       117.0000 247.0000 362.2500 Du        
   1296 ****       117.0000 247.0000 362.5000 Du        
   1297 ****       117.0000 247.0000 362.7500 Du        
   1298 ****       117.0000 247.0000 363.0000 Du        
   1299 ****       117.0000 247.2500 359.0000 Du        
   1300 ****       117.0000 247.2500 359.2500 Du        
   1301 ****       117.0000 247.2500 359.5000 Du        
   1302 ****       117.0000 247.2500 359.7500 Du        
   1303 ****       117.0000 247.2500 360.0000 Du        
   1304 ****       117.0000 247.2500 360.2500 Du        
   1305 ****       117.0000 247.2500 360.5000 Du        
   1306 ****       117.0000 247.2500 360.7500 Du        
   1307 ****       117.0000 247.2500 361.0000 Du        
   1308 ****       117.0000 247.2500 361.2500 Du        
   1309 ****       117.0000 247.2500 361.5000 Du        
   1310 ****       117.0000 247.2500 361.7500 Du        
   1311 ****       117.0000 247.2500 362.0000 Du        
   1312 ****       117.0000 247.2500 362.2500 Du        
   1313 ****       117.0000 247.2500 362.5000 Du        
   1314 ****       117.0000 247.2500 362.7500 Du        
   1315 ****       117.0000 247.2500 363.0000 Du        
   1316 ****       117.0000 247.5000 359.0000 Du        
   1317 ****       117.0000 247.5000 359.2500 Du        
   1318 ****       117.0000 247.5000 359.5000 Du        
   1319 ****       117.0000 247.5000 359.7500 Du        
   1320 ****       117.0000 247.5000 360.0000 Du        
   1321 ****       117.0000 247.5000 360.2500 Du        
   1322 ****       117.0000 247.5000 360.5000 Du        
   1323 ****       117.0000 247.5000 360.7500 Du        
   1324 ****       117.0000 247.5000 361.0000 Du        
   1325 ****       117.0000 247.5000 361.2500 Du        
   1326 ****       117.0000 247.5000 361.5000 Du        
   1327 ****       117.0000 247.5000 361.7500 Du        
   1328 ****       117.0000 247.5000 362.0000 Du        
   1329 ****       117.0000 247.5000 362.2500 Du        
   1330 ****       117.0000 247.5000 362.5000 Du        
   1331 ****       117.0000 247.5000 362.7500 Du        
   1332 ****       117.0000 247.7500 359.2500 Du        
   1333 ****       117.0000 247.7500 359.5000 Du        
   1334 ****       117.0000 247.7500 359.7500 Du        
   1335 ****       117.0000 247.7500 360.0000 Du        
   1336 ****       117.0000 247.7500 360.2500 Du        
   1337 ****       117.0000 247.7500 360.5000 Du        
   1338 ****       117.0000 247.7500 360.7500 Du        
   1339 ****       117.0000 247.7500 361.0000 Du        
   1340 ****       117.0000 247.7500 361.2500 Du        
   1341 ****       117.0000 247.7500 361.5000 Du        
   1342 ****       117.0000 247.7500 361.7500 Du        
   1343 ****       117.0000 247.7500 362.0000 Du        
   1344 ****       117.0000 247.7500 362.2500 Du        
   1345 ****       117.0000 248.0000 359.2500 Du        
   1346 ****       117.0000 248.0000 359.5000 Du        
   1347 ****       117.0000 248.0000 359.7500 Du        
   1348 ****       117.0000 248.0000 360.0000 Du        
   1349 ****       117.0000 248.0000 360.2500 Du        
   1350 ****       117.0000 248.0000 360.5000 Du        
   1351 ****       117.0000 248.0000 360.7500 Du        
   1352 ****       117.0000 248.0000 361.0000 Du        
   1353 ****       117.0000 248.2500 359.5000 Du        
   1354 ****       117.0000 248.2500 359.7500 Du        
   1355 ****       117.0000 248.2500 360.0000 Du        
   1356 ****       117.0000 248.2500 360.2500 Du        
   1357 ****       117.0000 248.2500 360.5000 Du        
   1358 ****       117.0000 248.5000 359.7500 Du        
   1359 ****       117.0000 248.5000 360.0000 Du        
   1360 ****       117.2500 244.0000 359.5000 Du        
   1361 ****       117.2500 244.0000 359.7500 Du        
   1362 ****       117.2500 244.2500 359.2500 Du        
   1363 ****       117.2500 244.2500 359.5000 Du        
   1364 ****       117.2500 244.2500 359.7500 Du        
   1365 ****       117.2500 244.5000 359.2500 Du        
   1366 ****       117.2500 244.5000 359.5000 Du        
   1367 ****       117.2500 244.5000 359.7500 Du        
   1368 ****       117.2500 244.5000 360.0000 Du        
   1369 ****       117.2500 244.7500 359.2500 Du        
   1370 ****       117.2500 244.7500 359.5000 Du        
   1371 ****       117.2500 244.7500 359.7500 Du        
   1372 ****       117.2500 244.7500 360.0000 Du        
   1373 ****       117.2500 245.0000 359.0000 Du        
   1374 ****       117.2500 245.0000 359.2500 Du        
   1375 ****       117.2500 245.0000 359.5000 Du        
   1376 ****       117.2500 245.0000 359.7500 Du        
   1377 ****       117.2500 245.0000 360.0000 Du        
   1378 ****       117.2500 245.0000 360.2500 Du        
   1379 ****       117.2500 245.2500 359.0000 Du        
   1380 ****       117.2500 245.2500 359.2500 Du        
   1381 ****       117.2500 245.2500 359.5000 Du        
   1382 ****       117.2500 245.2500 359.7500 Du        
   1383 ****       117.2500 245.2500 360.0000 Du        
   1384 ****       117.2500 245.2500 360.2500 Du        
   1385 ****       117.2500 245.5000 358.7500 Du        
   1386 ****       117.2500 245.5000 359.0000 Du        
   1387 ****       117.2500 245.5000 359.2500 Du        
   1388 ****       117.2500 245.5000 359.5000 Du        
   1389 ****       117.2500 245.5000 359.7500 Du        
   1390 ****       117.2500 245.5000 360.0000 Du        
   1391 ****       117.2500 245.5000 360.2500 Du        
   1392 ****       117.2500 245.5000 360.5000 Du        
   1393 ****       117.2500 245.7500 358.7500 Du        
   1394 ****       117.2500 245.7500 359.0000 Du        
   1395 ****       117.2500 245.7500 359.2500 Du        
   1396 ****       117.2500 245.7500 359.5000 Du        
   1397 ****       117.2500 245.7500 359.7500 Du        
   1398 ****       117.2500 245.7500 360.0000 Du        
   1399 ****       117.2500 245.7500 360.2500 Du        
   1400 ****       117.2500 245.7500 360.5000 Du        
   1401 ****       117.2500 245.7500 360.7500 Du        
   1402 ****       117.2500 245.7500 361.0000 Du        
   1403 ****       117.2500 246.0000 358.7500 Du        
   1404 ****       117.2500 246.0000 359.0000 Du        
   1405 ****       117.2500 246.0000 359.2500 Du        
   1406 ****       117.2500 246.0000 359.5000 Du        
   1407 ****       117.2500 246.0000 359.7500 Du        
   1408 ****       117.2500 246.0000 360.0000 Du        
   1409 ****       117.2500 246.0000 360.2500 Du        
   1410 ****       117.2500 246.0000 360.5000 Du        
   1411 ****       117.2500 246.0000 360.7500 Du        
   1412 ****       117.2500 246.0000 361.0000 Du        
   1413 ****       117.2500 246.0000 361.2500 Du        
   1414 ****       117.2500 246.0000 361.5000 Du        
   1415 ****       117.2500 246.0000 361.7500 Du        
   1416 ****       117.2500 246.2500 358.7500 Du        
   1417 ****       117.2500 246.2500 359.0000 Du        
   1418 ****       117.2500 246.2500 359.2500 Du        
   1419 ****       117.2500 246.2500 359.5000 Du        
   1420 ****       117.2500 246.2500 359.7500 Du        
   1421 ****       117.2500 246.2500 360.0000 Du        
   1422 ****       117.2500 246.2500 360.2500 Du        
   1423 ****       117.2500 246.2500 360.5000 Du        
   1424 ****       117.2500 246.2500 360.7500 Du        
   1425 ****       117.2500 246.2500 361.0000 Du        
   1426 ****       117.2500 246.2500 361.2500 Du        
   1427 ****       117.2500 246.2500 361.5000 Du        
   1428 ****       117.2500 246.2500 361.7500 Du        
   1429 ****       117.2500 246.2500 362.0000 Du        
   1430 ****       117.2500 246.2500 362.2500 Du        
   1431 ****       117.2500 246.5000 358.7500 Du        
   1432 ****       117.2500 246.5000 359.0000 Du        
   1433 ****       117.2500 246.5000 359.2500 Du        
   1434 ****       117.2500 246.5000 359.5000 Du        
   1435 ****       117.2500 246.5000 359.7500 Du        
   1436 ****       117.2500 246.5000 360.0000 Du        
   1437 ****       117.2500 246.5000 360.2500 Du        
   1438 ****       117.2500 246.5000 360.5000 Du        
   1439 ****       117.2500 246.5000 360.7500 Du        
   1440 ****       117.2500 246.5000 361.0000 Du        
   1441 ****       117.2500 246.5000 361.2500 Du        
   1442 ****       117.2500 246.5000 361.5000 Du        
   1443 ****       117.2500 246.5000 361.7500 Du        
   1444 ****       117.2500 246.5000 362.0000 Du        
   1445 ****       117.2500 246.5000 362.2500 Du        
   1446 ****       117.2500 246.5000 362.5000 Du        
   1447 ****       117.2500 246.7500 358.7500 Du        
   1448 ****       117.2500 246.7500 359.0000 Du        
   1449 ****       117.2500 246.7500 359.2500 Du        
   1450 ****       117.2500 246.7500 359.5000 Du        
   1451 ****       117.2500 246.7500 359.7500 Du        
   1452 ****       117.2500 246.7500 360.0000 Du        
   1453 ****       117.2500 246.7500 360.2500 Du        
   1454 ****       117.2500 246.7500 360.5000 Du        
   1455 ****       117.2500 246.7500 360.7500 Du        
   1456 ****       117.2500 246.7500 361.0000 Du        
   1457 ****       117.2500 246.7500 361.2500 Du        
   1458 ****       117.2500 246.7500 361.5000 Du        
   1459 ****       117.2500 246.7500 361.7500 Du        
   1460 ****       117.2500 246.7500 362.0000 Du        
   1461 ****       117.2500 246.7500 362.2500 Du        
   1462 ****       117.2500 246.7500 362.5000 Du        
   1463 ****       117.2500 246.7500 362.7500 Du        
   1464 ****       117.2500 247.0000 358.7500 Du        
   1465 ****       117.2500 247.0000 359.0000 Du        
   1466 ****       117.2500 247.0000 359.2500 Du        
   1467 ****       117.2500 247.0000 359.5000 Du        
   1468 ****       117.2500 247.0000 359.7500 Du        
   1469 ****       117.2500 247.0000 360.0000 Du        
   1470 ****       117.2500 247.0000 360.2500 Du        
   1471 ****       117.2500 247.0000 360.5000 Du        
   1472 ****       117.2500 247.0000 360.7500 Du        
   1473 ****       117.2500 247.0000 361.0000 Du        
   1474 ****       117.2500 247.0000 361.2500 Du        
   1475 ****       117.2500 247.0000 361.5000 Du        
   1476 ****       117.2500 247.0000 361.7500 Du        
   1477 ****       117.2500 247.0000 362.0000 Du        
   1478 ****       117.2500 247.0000 362.2500 Du        
   1479 ****       117.2500 247.0000 362.5000 Du        
   1480 ****       117.2500 247.0000 362.7500 Du        
   1481 ****       117.2500 247.2500 359.0000 Du        
   1482 ****       117.2500 247.2500 359.2500 Du        
   1483 ****       117.2500 247.2500 359.5000 Du        
   1484 ****       117.2500 247.2500 359.7500 Du        
   1485 ****       117.2500 247.2500 360.0000 Du        
   1486 ****       117.2500 247.2500 360.2500 Du        
   1487 ****       117.2500 247.2500 360.5000 Du        
   1488 ****       117.2500 247.2500 360.7500 Du        
   1489 ****       117.2500 247.2500 361.0000 Du        
   1490 ****       117.2500 247.2500 361.2500 Du        
   1491 ****       117.2500 247.2500 361.5000 Du        
   1492 ****       117.2500 247.2500 361.7500 Du        
   1493 ****       117.2500 247.2500 362.0000 Du        
   1494 ****       117.2500 247.2500 362.2500 Du        
   1495 ****       117.2500 247.2500 362.5000 Du        
   1496 ****       117.2500 247.2500 362.7500 Du        
   1497 ****       117.2500 247.5000 359.0000 Du        
   1498 ****       117.2500 247.5000 359.2500 Du        
   1499 ****       117.2500 247.5000 359.5000 Du        
   1500 ****       117.2500 247.5000 359.7500 Du        
   1501 ****       117.2500 247.5000 360.0000 Du        
   1502 ****       117.2500 247.5000 360.2500 Du        
   1503 ****       117.2500 247.5000 360.5000 Du        
   1504 ****       117.2500 247.5000 360.7500 Du        
   1505 ****       117.2500 247.5000 361.0000 Du        
   1506 ****       117.2500 247.5000 361.2500 Du        
   1507 ****       117.2500 247.5000 361.5000 Du        
   1508 ****       117.2500 247.5000 361.7500 Du        
   1509 ****       117.2500 247.7500 359.0000 Du        
   1510 ****       117.2500 247.7500 359.2500 Du        
   1511 ****       117.2500 247.7500 359.5000 Du        
   1512 ****       117.2500 247.7500 359.7500 Du        
   1513 ****       117.2500 247.7500 360.0000 Du        
   1514 ****       117.2500 247.7500 360.2500 Du        
   1515 ****       117.2500 247.7500 360.5000 Du        
   1516 ****       117.2500 247.7500 360.7500 Du        
   1517 ****       117.2500 247.7500 361.0000 Du        
   1518 ****       117.2500 248.0000 359.0000 Du        
   1519 ****       117.2500 248.0000 359.2500 Du        
   1520 ****       117.2500 248.0000 359.5000 Du        
   1521 ****       117.2500 248.0000 359.7500 Du        
   1522 ****       117.2500 248.0000 360.0000 Du        
   1523 ****       117.2500 248.0000 360.2500 Du        
   1524 ****       117.2500 248.0000 360.5000 Du        
   1525 ****       117.2500 248.0000 360.7500 Du        
   1526 ****       117.2500 248.2500 359.2500 Du        
   1527 ****       117.2500 248.2500 359.5000 Du        
   1528 ****       117.2500 248.2500 359.7500 Du        
   1529 ****       117.2500 248.2500 360.0000 Du        
   1530 ****       117.2500 248.2500 360.2500 Du        
   1531 ****       117.2500 248.5000 359.5000 Du        
   1532 ****       117.2500 248.5000 359.7500 Du        
   1533 ****       117.2500 248.5000 360.0000 Du        
   1534 ****       117.5000 244.2500 359.5000 Du        
   1535 ****       117.5000 244.5000 359.5000 Du        
   1536 ****       117.5000 244.5000 359.7500 Du        
   1537 ****       117.5000 244.7500 359.2500 Du        
   1538 ****       117.5000 244.7500 359.5000 Du        
   1539 ****       117.5000 244.7500 359.7500 Du        
   1540 ****       117.5000 245.0000 359.2500 Du        
   1541 ****       117.5000 245.0000 359.5000 Du        
   1542 ****       117.5000 245.0000 359.7500 Du        
   1543 ****       117.5000 245.0000 360.0000 Du        
   1544 ****       117.5000 245.2500 359.0000 Du        
   1545 ****       117.5000 245.2500 359.2500 Du        
   1546 ****       117.5000 245.2500 359.5000 Du        
   1547 ****       117.5000 245.2500 359.7500 Du        
   1548 ****       117.5000 245.2500 360.0000 Du        
   1549 ****       117.5000 245.5000 359.0000 Du        
   1550 ****       117.5000 245.5000 359.2500 Du        
   1551 ****       117.5000 245.5000 359.5000 Du        
   1552 ****       117.5000 245.5000 359.7500 Du        
   1553 ****       117.5000 245.5000 360.0000 Du        
   1554 ****       117.5000 245.5000 360.2500 Du        
   1555 ****       117.5000 245.7500 358.7500 Du        
   1556 ****       117.5000 245.7500 359.0000 Du        
   1557 ****       117.5000 245.7500 359.2500 Du        
   1558 ****       117.5000 245.7500 359.5000 Du        
   1559 ****       117.5000 245.7500 359.7500 Du        
   1560 ****       117.5000 245.7500 360.0000 Du        
   1561 ****       117.5000 245.7500 360.2500 Du        
   1562 ****       117.5000 245.7500 360.5000 Du        
   1563 ****       117.5000 246.0000 358.7500 Du        
   1564 ****       117.5000 246.0000 359.0000 Du        
   1565 ****       117.5000 246.0000 359.2500 Du        
   1566 ****       117.5000 246.0000 359.5000 Du        
   1567 ****       117.5000 246.0000 359.7500 Du        
   1568 ****       117.5000 246.0000 360.0000 Du        
   1569 ****       117.5000 246.0000 360.2500 Du        
   1570 ****       117.5000 246.0000 360.5000 Du        
   1571 ****       117.5000 246.0000 360.7500 Du        
   1572 ****       117.5000 246.0000 361.0000 Du        
   1573 ****       117.5000 246.2500 358.7500 Du        
   1574 ****       117.5000 246.2500 359.0000 Du        
   1575 ****       117.5000 246.2500 359.2500 Du        
   1576 ****       117.5000 246.2500 359.5000 Du        
   1577 ****       117.5000 246.2500 359.7500 Du        
   1578 ****       117.5000 246.2500 360.0000 Du        
   1579 ****       117.5000 246.2500 360.2500 Du        
   1580 ****       117.5000 246.2500 360.5000 Du        
   1581 ****       117.5000 246.2500 360.7500 Du        
   1582 ****       117.5000 246.2500 361.0000 Du        
   1583 ****       117.5000 246.2500 361.2500 Du        
   1584 ****       117.5000 246.2500 361.5000 Du        
   1585 ****       117.5000 246.2500 361.7500 Du        
   1586 ****       117.5000 246.5000 358.7500 Du        
   1587 ****       117.5000 246.5000 359.0000 Du        
   1588 ****       117.5000 246.5000 359.2500 Du        
   1589 ****       117.5000 246.5000 359.5000 Du        
   1590 ****       117.5000 246.5000 359.7500 Du        
   1591 ****       117.5000 246.5000 360.0000 Du        
   1592 ****       117.5000 246.5000 360.2500 Du        
   1593 ****       117.5000 246.5000 360.5000 Du        
   1594 ****       117.5000 246.5000 360.7500 Du        
   1595 ****       117.5000 246.5000 361.0000 Du        
   1596 ****       117.5000 246.5000 361.2500 Du        
   1597 ****       117.5000 246.5000 361.5000 Du        
   1598 ****       117.5000 246.5000 361.7500 Du        
   1599 ****       117.5000 246.5000 362.0000 Du        
   1600 ****       117.5000 246.5000 362.2500 Du        
   1601 ****       117.5000 246.7500 358.7500 Du        
   1602 ****       117.5000 246.7500 359.0000 Du        
   1603 ****       117.5000 246.7500 359.2500 Du        
   1604 ****       117.5000 246.7500 359.5000 Du        
   1605 ****       117.5000 246.7500 359.7500 Du        
   1606 ****       117.5000 246.7500 360.0000 Du        
   1607 ****       117.5000 246.7500 360.2500 Du        
   1608 ****       117.5000 246.7500 360.5000 Du        
   1609 ****       117.5000 246.7500 360.7500 Du        
   1610 ****       117.5000 246.7500 361.0000 Du        
   1611 ****       117.5000 246.7500 361.2500 Du        
   1612 ****       117.5000 246.7500 361.5000 Du        
   1613 ****       117.5000 246.7500 361.7500 Du        
   1614 ****       117.5000 246.7500 362.0000 Du        
   1615 ****       117.5000 246.7500 362.2500 Du        
   1616 ****       117.5000 246.7500 362.5000 Du        
   1617 ****       117.5000 247.0000 358.7500 Du        
   1618 ****       117.5000 247.0000 359.0000 Du        
   1619 ****       117.5000 247.0000 359.2500 Du        
   1620 ****       117.5000 247.0000 359.5000 Du        
   1621 ****       117.5000 247.0000 359.7500 Du        
   1622 ****       117.5000 247.0000 360.0000 Du        
   1623 ****       117.5000 247.0000 360.2500 Du        
   1624 ****       117.5000 247.0000 360.5000 Du        
   1625 ****       117.5000 247.0000 360.7500 Du        
   1626 ****       117.5000 247.0000 361.0000 Du        
   1627 ****       117.5000 247.0000 361.2500 Du        
   1628 ****       117.5000 247.0000 361.5000 Du        
   1629 ****       117.5000 247.0000 361.7500 Du        
   1630 ****       117.5000 247.0000 362.0000 Du        
   1631 ****       117.5000 247.0000 362.2500 Du        
   1632 ****       117.5000 247.2500 358.7500 Du        
   1633 ****       117.5000 247.2500 359.0000 Du        
   1634 ****       117.5000 247.2500 359.2500 Du        
   1635 ****       117.5000 247.2500 359.5000 Du        
   1636 ****       117.5000 247.2500 359.7500 Du        
   1637 ****       117.5000 247.2500 360.0000 Du        
   1638 ****       117.5000 247.2500 360.2500 Du        
   1639 ****       117.5000 247.2500 360.5000 Du        
   1640 ****       117.5000 247.2500 360.7500 Du        
   1641 ****       117.5000 247.2500 361.0000 Du        
   1642 ****       117.5000 247.2500 361.2500 Du        
   1643 ****       117.5000 247.5000 359.0000 Du        
   1644 ****       117.5000 247.5000 359.2500 Du        
   1645 ****       117.5000 247.5000 359.5000 Du        
   1646 ****       117.5000 247.5000 359.7500 Du        
   1647 ****       117.5000 247.5000 360.0000 Du        
   1648 ****       117.5000 247.5000 360.2500 Du        
   1649 ****       117.5000 247.5000 360.5000 Du        
   1650 ****       117.5000 247.5000 360.7500 Du        
   1651 ****       117.5000 247.7500 359.0000 Du        
   1652 ****       117.5000 247.7500 359.2500 Du        
   1653 ****       117.5000 247.7500 359.5000 Du        
   1654 ****       117.5000 247.7500 359.7500 Du        
   1655 ****       117.5000 247.7500 360.0000 Du        
   1656 ****       117.5000 247.7500 360.2500 Du        
   1657 ****       117.5000 247.7500 360.5000 Du        
   1658 ****       117.5000 248.0000 359.0000 Du        
   1659 ****       117.5000 248.0000 359.2500 Du        
   1660 ****       117.5000 248.0000 359.5000 Du        
   1661 ****       117.5000 248.0000 359.7500 Du        
   1662 ****       117.5000 248.0000 360.0000 Du        
   1663 ****       117.5000 248.0000 360.2500 Du        
   1664 ****       117.5000 248.2500 359.2500 Du        
   1665 ****       117.5000 248.2500 359.5000 Du        
   1666 ****       117.5000 248.2500 359.7500 Du        
   1667 ****       117.5000 248.2500 360.0000 Du        
   1668 ****       117.5000 248.5000 359.2500 Du        
   1669 ****       117.5000 248.5000 359.5000 Du        
   1670 ****       117.7500 244.7500 359.5000 Du        
   1671 ****       117.7500 244.7500 359.7500 Du        
   1672 ****       117.7500 245.0000 359.2500 Du        
   1673 ****       117.7500 245.0000 359.5000 Du        
   1674 ****       117.7500 245.0000 359.7500 Du        
   1675 ****       117.7500 245.2500 359.2500 Du        
   1676 ****       117.7500 245.2500 359.5000 Du        
   1677 ****       117.7500 245.2500 359.7500 Du        
   1678 ****       117.7500 245.2500 360.0000 Du        
   1679 ****       117.7500 245.5000 359.0000 Du        
   1680 ****       117.7500 245.5000 359.2500 Du        
   1681 ****       117.7500 245.5000 359.5000 Du        
   1682 ****       117.7500 245.5000 359.7500 Du        
   1683 ****       117.7500 245.5000 360.0000 Du        
   1684 ****       117.7500 245.7500 359.0000 Du        
   1685 ****       117.7500 245.7500 359.2500 Du        
   1686 ****       117.7500 245.7500 359.5000 Du        
   1687 ****       117.7500 245.7500 359.7500 Du        
   1688 ****       117.7500 245.7500 360.0000 Du        
   1689 ****       117.7500 245.7500 360.2500 Du        
   1690 ****       117.7500 245.7500 360.5000 Du        
   1691 ****       117.7500 246.0000 358.7500 Du        
   1692 ****       117.7500 246.0000 359.0000 Du        
   1693 ****       117.7500 246.0000 359.2500 Du        
   1694 ****       117.7500 246.0000 359.5000 Du        
   1695 ****       117.7500 246.0000 359.7500 Du        
   1696 ****       117.7500 246.0000 360.0000 Du        
   1697 ****       117.7500 246.0000 360.2500 Du        
   1698 ****       117.7500 246.0000 360.5000 Du        
   1699 ****       117.7500 246.0000 360.7500 Du        
   1700 ****       117.7500 246.2500 358.7500 Du        
   1701 ****       117.7500 246.2500 359.0000 Du        
   1702 ****       117.7500 246.2500 359.2500 Du        
   1703 ****       117.7500 246.2500 359.5000 Du        
   1704 ****       117.7500 246.2500 359.7500 Du        
   1705 ****       117.7500 246.2500 360.0000 Du        
   1706 ****       117.7500 246.2500 360.2500 Du        
   1707 ****       117.7500 246.2500 360.5000 Du        
   1708 ****       117.7500 246.2500 360.7500 Du        
   1709 ****       117.7500 246.2500 361.0000 Du        
   1710 ****       117.7500 246.2500 361.2500 Du        
   1711 ****       117.7500 246.5000 358.7500 Du        
   1712 ****       117.7500 246.5000 359.0000 Du        
   1713 ****       117.7500 246.5000 359.2500 Du        
   1714 ****       117.7500 246.5000 359.5000 Du        
   1715 ****       117.7500 246.5000 359.7500 Du        
   1716 ****       117.7500 246.5000 360.0000 Du        
   1717 ****       117.7500 246.5000 360.2500 Du        
   1718 ****       117.7500 246.5000 360.5000 Du        
   1719 ****       117.7500 246.5000 360.7500 Du        
   1720 ****       117.7500 246.5000 361.0000 Du        
   1721 ****       117.7500 246.5000 361.2500 Du        
   1722 ****       117.7500 246.5000 361.5000 Du        
   1723 ****       117.7500 246.5000 361.7500 Du        
   1724 ****       117.7500 246.7500 358.7500 Du        
   1725 ****       117.7500 246.7500 359.0000 Du        
   1726 ****       117.7500 246.7500 359.2500 Du        
   1727 ****       117.7500 246.7500 359.5000 Du        
   1728 ****       117.7500 246.7500 359.7500 Du        
   1729 ****       117.7500 246.7500 360.0000 Du        
   1730 ****       117.7500 246.7500 360.2500 Du        
   1731 ****       117.7500 246.7500 360.5000 Du        
   1732 ****       117.7500 246.7500 360.7500 Du        
   1733 ****       117.7500 246.7500 361.0000 Du        
   1734 ****       117.7500 246.7500 361.2500 Du        
   1735 ****       117.7500 246.7500 361.5000 Du        
   1736 ****       117.7500 247.0000 358.7500 Du        
   1737 ****       117.7500 247.0000 359.0000 Du        
   1738 ****       117.7500 247.0000 359.2500 Du        
   1739 ****       117.7500 247.0000 359.5000 Du        
   1740 ****       117.7500 247.0000 359.7500 Du        
   1741 ****       117.7500 247.0000 360.0000 Du        
   1742 ****       117.7500 247.0000 360.2500 Du        
   1743 ****       117.7500 247.0000 360.5000 Du        
   1744 ****       117.7500 247.0000 360.7500 Du        
   1745 ****       117.7500 247.0000 361.0000 Du        
   1746 ****       117.7500 247.2500 358.7500 Du        
   1747 ****       117.7500 247.2500 359.0000 Du        
   1748 ****       117.7500 247.2500 359.2500 Du        
   1749 ****       117.7500 247.2500 359.5000 Du        
   1750 ****       117.7500 247.2500 359.7500 Du        
   1751 ****       117.7500 247.2500 360.0000 Du        
   1752 ****       117.7500 247.2500 360.2500 Du        
   1753 ****       117.7500 247.2500 360.5000 Du        
   1754 ****       117.7500 247.5000 358.7500 Du        
   1755 ****       117.7500 247.5000 359.0000 Du        
   1756 ****       117.7500 247.5000 359.2500 Du        
   1757 ****       117.7500 247.5000 359.5000 Du        
   1758 ****       117.7500 247.5000 359.7500 Du        
   1759 ****       117.7500 247.5000 360.0000 Du        
   1760 ****       117.7500 247.5000 360.2500 Du        
   1761 ****       117.7500 247.7500 358.7500 Du        
   1762 ****       117.7500 247.7500 359.0000 Du        
   1763 ****       117.7500 247.7500 359.2500 Du        
   1764 ****       117.7500 247.7500 359.5000 Du        
   1765 ****       117.7500 247.7500 359.7500 Du        
   1766 ****       117.7500 247.7500 360.0000 Du        
   1767 ****       117.7500 248.0000 359.0000 Du        
   1768 ****       117.7500 248.0000 359.2500 Du        
   1769 ****       117.7500 248.0000 359.5000 Du        
   1770 ****       117.7500 248.0000 359.7500 Du        
   1771 ****       117.7500 248.2500 359.0000 Du        
   1772 ****       117.7500 248.2500 359.2500 Du        
   1773 ****       117.7500 248.2500 359.5000 Du        
   1774 ****       117.7500 248.5000 359.0000 Du        
   1775 ****       117.7500 248.5000 359.2500 Du        
   1776 ****       118.0000 245.0000 359.5000 Du        
   1777 ****       118.0000 245.0000 359.7500 Du        
   1778 ****       118.0000 245.2500 359.5000 Du        
   1779 ****       118.0000 245.2500 359.7500 Du        
   1780 ****       118.0000 245.5000 359.2500 Du        
   1781 ****       118.0000 245.5000 359.5000 Du        
   1782 ****       118.0000 245.5000 359.7500 Du        
   1783 ****       118.0000 245.5000 360.0000 Du        
   1784 ****       118.0000 245.7500 359.0000 Du        
   1785 ****       118.0000 245.7500 359.2500 Du        
   1786 ****       118.0000 245.7500 359.5000 Du        
   1787 ****       118.0000 245.7500 359.7500 Du        
   1788 ****       118.0000 245.7500 360.0000 Du        
   1789 ****       118.0000 245.7500 360.2500 Du        
   1790 ****       118.0000 246.0000 358.7500 Du        
   1791 ****       118.0000 246.0000 359.0000 Du        
   1792 ****       118.0000 246.0000 359.2500 Du        
   1793 ****       118.0000 246.0000 359.5000 Du        
   1794 ****       118.0000 246.0000 359.7500 Du        
   1795 ****       118.0000 246.0000 360.0000 Du        
   1796 ****       118.0000 246.0000 360.2500 Du        
   1797 ****       118.0000 246.0000 360.5000 Du        
   1798 ****       118.0000 246.2500 358.7500 Du        
   1799 ****       118.0000 246.2500 359.0000 Du        
   1800 ****       118.0000 246.2500 359.2500 Du        
   1801 ****       118.0000 246.2500 359.5000 Du        
   1802 ****       118.0000 246.2500 359.7500 Du        
   1803 ****       118.0000 246.2500 360.0000 Du        
   1804 ****       118.0000 246.2500 360.2500 Du        
   1805 ****       118.0000 246.2500 360.5000 Du        
   1806 ****       118.0000 246.2500 360.7500 Du        
   1807 ****       118.0000 246.2500 361.0000 Du        
   1808 ****       118.0000 246.5000 358.7500 Du        
   1809 ****       118.0000 246.5000 359.0000 Du        
   1810 ****       118.0000 246.5000 359.2500 Du        
   1811 ****       118.0000 246.5000 359.5000 Du        
   1812 ****       118.0000 246.5000 359.7500 Du        
   1813 ****       118.0000 246.5000 360.0000 Du        
   1814 ****       118.0000 246.5000 360.2500 Du        
   1815 ****       118.0000 246.5000 360.5000 Du        
   1816 ****       118.0000 246.5000 360.7500 Du        
   1817 ****       118.0000 246.5000 361.0000 Du        
   1818 ****       118.0000 246.5000 361.2500 Du        
   1819 ****       118.0000 246.7500 358.7500 Du        
   1820 ****       118.0000 246.7500 359.0000 Du        
   1821 ****       118.0000 246.7500 359.2500 Du        
   1822 ****       118.0000 246.7500 359.5000 Du        
   1823 ****       118.0000 246.7500 359.7500 Du        
   1824 ****       118.0000 246.7500 360.0000 Du        
   1825 ****       118.0000 246.7500 360.2500 Du        
   1826 ****       118.0000 246.7500 360.5000 Du        
   1827 ****       118.0000 246.7500 360.7500 Du        
   1828 ****       118.0000 246.7500 361.0000 Du        
   1829 ****       118.0000 247.0000 358.7500 Du        
   1830 ****       118.0000 247.0000 359.0000 Du        
   1831 ****       118.0000 247.0000 359.2500 Du        
   1832 ****       118.0000 247.0000 359.5000 Du        
   1833 ****       118.0000 247.0000 359.7500 Du        
   1834 ****       118.0000 247.0000 360.0000 Du        
   1835 ****       118.0000 247.0000 360.2500 Du        
   1836 ****       118.0000 247.0000 360.5000 Du        
   1837 ****       118.0000 247.2500 358.7500 Du        
   1838 ****       118.0000 247.2500 359.0000 Du        
   1839 ****       118.0000 247.2500 359.2500 Du        
   1840 ****       118.0000 247.2500 359.5000 Du        
   1841 ****       118.0000 247.2500 359.7500 Du        
   1842 ****       118.0000 247.2500 360.0000 Du        
   1843 ****       118.0000 247.2500 360.2500 Du        
   1844 ****       118.0000 247.5000 358.7500 Du        
   1845 ****       118.0000 247.5000 359.0000 Du        
   1846 ****       118.0000 247.5000 359.2500 Du        
   1847 ****       118.0000 247.5000 359.5000 Du        
   1848 ****       118.0000 247.5000 359.7500 Du        
   1849 ****       118.0000 247.5000 360.0000 Du        
   1850 ****       118.0000 247.7500 358.7500 Du        
   1851 ****       118.0000 247.7500 359.0000 Du        
   1852 ****       118.0000 247.7500 359.2500 Du        
   1853 ****       118.0000 247.7500 359.5000 Du        
   1854 ****       118.0000 247.7500 359.7500 Du        
   1855 ****       118.0000 248.0000 358.7500 Du        
   1856 ****       118.0000 248.0000 359.0000 Du        
   1857 ****       118.0000 248.0000 359.2500 Du        
   1858 ****       118.0000 248.0000 359.5000 Du        
   1859 ****       118.0000 248.2500 359.0000 Du        
   1860 ****       118.0000 248.2500 359.2500 Du        
   1861 ****       118.0000 248.5000 359.0000 Du        
   1862 ****       118.2500 245.2500 359.5000 Du        
   1863 ****       118.2500 245.2500 359.7500 Du        
   1864 ****       118.2500 245.5000 359.2500 Du        
   1865 ****       118.2500 245.5000 359.5000 Du        
   1866 ****       118.2500 245.5000 359.7500 Du        
   1867 ****       118.2500 245.5000 360.0000 Du        
   1868 ****       118.2500 245.7500 359.2500 Du        
   1869 ****       118.2500 245.7500 359.5000 Du        
   1870 ****       118.2500 245.7500 359.7500 Du        
   1871 ****       118.2500 245.7500 360.0000 Du        
   1872 ****       118.2500 245.7500 360.2500 Du        
   1873 ****       118.2500 246.0000 359.0000 Du        
   1874 ****       118.2500 246.0000 359.2500 Du        
   1875 ****       118.2500 246.0000 359.5000 Du        
   1876 ****       118.2500 246.0000 359.7500 Du        
   1877 ****       118.2500 246.0000 360.0000 Du        
   1878 ****       118.2500 246.0000 360.2500 Du        
   1879 ****       118.2500 246.0000 360.5000 Du        
   1880 ****       118.2500 246.2500 358.7500 Du        
   1881 ****       118.2500 246.2500 359.0000 Du        
   1882 ****       118.2500 246.2500 359.2500 Du        
   1883 ****       118.2500 246.2500 359.5000 Du        
   1884 ****       118.2500 246.2500 359.7500 Du        
   1885 ****       118.2500 246.2500 360.0000 Du        
   1886 ****       118.2500 246.2500 360.2500 Du        
   1887 ****       118.2500 246.2500 360.5000 Du        
   1888 ****       118.2500 246.2500 360.7500 Du        
   1889 ****       118.2500 246.5000 358.7500 Du        
   1890 ****       118.2500 246.5000 359.0000 Du        
   1891 ****       118.2500 246.5000 359.2500 Du        
   1892 ****       118.2500 246.5000 359.5000 Du        
   1893 ****       118.2500 246.5000 359.7500 Du        
   1894 ****       118.2500 246.5000 360.0000 Du        
   1895 ****       118.2500 246.5000 360.2500 Du        
   1896 ****       118.2500 246.5000 360.5000 Du        
   1897 ****       118.2500 246.5000 360.7500 Du        
   1898 ****       118.2500 246.7500 358.7500 Du        
   1899 ****       118.2500 246.7500 359.0000 Du        
   1900 ****       118.2500 246.7500 359.2500 Du        
   1901 ****       118.2500 246.7500 359.5000 Du        
   1902 ****       118.2500 246.7500 359.7500 Du        
   1903 ****       118.2500 246.7500 360.0000 Du        
   1904 ****       118.2500 246.7500 360.2500 Du        
   1905 ****       118.2500 246.7500 360.5000 Du        
   1906 ****       118.2500 247.0000 358.7500 Du        
   1907 ****       118.2500 247.0000 359.0000 Du        
   1908 ****       118.2500 247.0000 359.2500 Du        
   1909 ****       118.2500 247.0000 359.5000 Du        
   1910 ****       118.2500 247.0000 359.7500 Du        
   1911 ****       118.2500 247.0000 360.0000 Du        
   1912 ****       118.2500 247.0000 360.2500 Du        
   1913 ****       118.2500 247.2500 358.7500 Du        
   1914 ****       118.2500 247.2500 359.0000 Du        
   1915 ****       118.2500 247.2500 359.2500 Du        
   1916 ****       118.2500 247.2500 359.5000 Du        
   1917 ****       118.2500 247.2500 359.7500 Du        
   1918 ****       118.2500 247.2500 360.0000 Du        
   1919 ****       118.2500 247.5000 358.7500 Du        
   1920 ****       118.2500 247.5000 359.0000 Du        
   1921 ****       118.2500 247.5000 359.2500 Du        
   1922 ****       118.2500 247.5000 359.5000 Du        
   1923 ****       118.2500 247.5000 359.7500 Du        
   1924 ****       118.2500 247.7500 358.7500 Du        
   1925 ****       118.2500 247.7500 359.0000 Du        
   1926 ****       118.2500 247.7500 359.2500 Du        
   1927 ****       118.2500 247.7500 359.5000 Du        
   1928 ****       118.2500 248.0000 358.7500 Du        
   1929 ****       118.2500 248.0000 359.0000 Du        
   1930 ****       118.2500 248.0000 359.2500 Du        
   1931 ****       118.2500 248.2500 358.7500 Du        
   1932 ****       118.2500 248.2500 359.0000 Du        
   1933 ****       118.5000 245.5000 359.5000 Du        
   1934 ****       118.5000 245.5000 359.7500 Du        
   1935 ****       118.5000 245.7500 359.2500 Du        
   1936 ****       118.5000 245.7500 359.5000 Du        
   1937 ****       118.5000 245.7500 359.7500 Du        
   1938 ****       118.5000 245.7500 360.0000 Du        
   1939 ****       118.5000 246.0000 359.0000 Du        
   1940 ****       118.5000 246.0000 359.2500 Du        
   1941 ****       118.5000 246.0000 359.5000 Du        
   1942 ****       118.5000 246.0000 359.7500 Du        
   1943 ****       118.5000 246.0000 360.0000 Du        
   1944 ****       118.5000 246.0000 360.2500 Du        
   1945 ****       118.5000 246.2500 358.7500 Du        
   1946 ****       118.5000 246.2500 359.0000 Du        
   1947 ****       118.5000 246.2500 359.2500 Du        
   1948 ****       118.5000 246.2500 359.5000 Du        
   1949 ****       118.5000 246.2500 359.7500 Du        
   1950 ****       118.5000 246.2500 360.0000 Du        
   1951 ****       118.5000 246.2500 360.2500 Du        
   1952 ****       118.5000 246.2500 360.5000 Du        
   1953 ****       118.5000 246.5000 358.7500 Du        
   1954 ****       118.5000 246.5000 359.0000 Du        
   1955 ****       118.5000 246.5000 359.2500 Du        
   1956 ****       118.5000 246.5000 359.5000 Du        
   1957 ****       118.5000 246.5000 359.7500 Du        
   1958 ****       118.5000 246.5000 360.0000 Du        
   1959 ****       118.5000 246.5000 360.2500 Du        
   1960 ****       118.5000 246.5000 360.5000 Du        
   1961 ****       118.5000 246.7500 358.7500 Du        
   1962 ****       118.5000 246.7500 359.0000 Du        
   1963 ****       118.5000 246.7500 359.2500 Du        
   1964 ****       118.5000 246.7500 359.5000 Du        
   1965 ****       118.5000 246.7500 359.7500 Du        
   1966 ****       118.5000 246.7500 360.0000 Du        
   1967 ****       118.5000 246.7500 360.2500 Du        
   1968 ****       118.5000 247.0000 358.7500 Du        
   1969 ****       118.5000 247.0000 359.0000 Du        
   1970 ****       118.5000 247.0000 359.2500 Du        
   1971 ****       118.5000 247.0000 359.5000 Du        
   1972 ****       118.5000 247.0000 359.7500 Du        
   1973 ****       118.5000 247.0000 360.0000 Du        
   1974 ****       118.5000 247.2500 358.7500 Du        
   1975 ****       118.5000 247.2500 359.0000 Du        
   1976 ****       118.5000 247.2500 359.2500 Du        
   1977 ****       118.5000 247.2500 359.5000 Du        
   1978 ****       118.5000 247.2500 359.7500 Du        
   1979 ****       118.5000 247.5000 358.7500 Du        
   1980 ****       118.5000 247.5000 359.0000 Du        
   1981 ****       118.5000 247.5000 359.2500 Du        
   1982 ****       118.5000 247.5000 359.5000 Du        
   1983 ****       118.5000 247.7500 358.7500 Du        
   1984 ****       118.5000 247.7500 359.0000 Du        
   1985 ****       118.5000 247.7500 359.2500 Du        
   1986 ****       118.5000 248.0000 358.7500 Du        
   1987 ****       118.5000 248.0000 359.0000 Du        
   1988 ****       118.7500 245.5000 359.5000 Du        
   1989 ****       118.7500 245.5000 359.7500 Du        
   1990 ****       118.7500 245.7500 359.2500 Du        
   1991 ****       118.7500 245.7500 359.5000 Du        
   1992 ****       118.7500 245.7500 359.7500 Du        
   1993 ****       118.7500 245.7500 360.0000 Du        
   1994 ****       118.7500 246.0000 359.0000 Du        
   1995 ****       118.7500 246.0000 359.2500 Du        
   1996 ****       118.7500 246.0000 359.5000 Du        
   1997 ****       118.7500 246.0000 359.7500 Du        
   1998 ****       118.7500 246.0000 360.0000 Du        
   1999 ****       118.7500 246.0000 360.2500 Du        
   2000 ****       118.7500 246.2500 358.7500 Du        
   2001 ****       118.7500 246.2500 359.0000 Du        
   2002 ****       118.7500 246.2500 359.2500 Du        
   2003 ****       118.7500 246.2500 359.5000 Du        
   2004 ****       118.7500 246.2500 359.7500 Du        
   2005 ****       118.7500 246.2500 360.0000 Du        
   2006 ****       118.7500 246.2500 360.2500 Du        
   2007 ****       118.7500 246.2500 360.5000 Du        
   2008 ****       118.7500 246.5000 358.7500 Du        
   2009 ****       118.7500 246.5000 359.0000 Du        
   2010 ****       118.7500 246.5000 359.2500 Du        
   2011 ****       118.7500 246.5000 359.5000 Du        
   2012 ****       118.7500 246.5000 359.7500 Du        
   2013 ****       118.7500 246.5000 360.0000 Du        
   2014 ****       118.7500 246.5000 360.2500 Du        
   2015 ****       118.7500 246.7500 358.7500 Du        
   2016 ****       118.7500 246.7500 359.0000 Du        
   2017 ****       118.7500 246.7500 359.2500 Du        
   2018 ****       118.7500 246.7500 359.5000 Du        
   2019 ****       118.7500 246.7500 359.7500 Du        
   2020 ****       118.7500 246.7500 360.0000 Du        
   2021 ****       118.7500 246.7500 360.2500 Du        
   2022 ****       118.7500 247.0000 358.7500 Du        
   2023 ****       118.7500 247.0000 359.0000 Du        
   2024 ****       118.7500 247.0000 359.2500 Du        
   2025 ****       118.7500 247.0000 359.5000 Du        
   2026 ****       118.7500 247.0000 359.7500 Du        
   2027 ****       118.7500 247.0000 360.0000 Du        
   2028 ****       118.7500 247.2500 358.7500 Du        
   2029 ****       118.7500 247.2500 359.0000 Du        
   2030 ****       118.7500 247.2500 359.2500 Du        
   2031 ****       118.7500 247.2500 359.5000 Du        
   2032 ****       118.7500 247.2500 359.7500 Du        
   2033 ****       118.7500 247.5000 358.7500 Du        
   2034 ****       118.7500 247.5000 359.0000 Du        
   2035 ****       118.7500 247.5000 359.2500 Du        
   2036 ****       118.7500 247.5000 359.5000 Du        
   2037 ****       118.7500 247.7500 358.7500 Du        
   2038 ****       118.7500 247.7500 359.0000 Du        
   2039 ****       118.7500 247.7500 359.2500 Du        
   2040 ****       118.7500 248.0000 358.7500 Du        
   2041 ****       118.7500 248.0000 359.0000 Du        
   2042 ****       119.0000 243.0000 351.7500 Du        
   2043 ****       119.0000 243.0000 352.0000 Du        
   2044 ****       119.0000 243.2500 351.7500 Du        
   2045 ****       119.0000 243.2500 352.0000 Du        
   2046 ****       119.0000 243.2500 352.2500 Du        
   2047 ****       119.0000 243.5000 351.5000 Du        
   2048 ****       119.0000 243.5000 351.7500 Du        
   2049 ****       119.0000 243.5000 352.0000 Du        
   2050 ****       119.0000 243.5000 352.2500 Du        
   2051 ****       119.0000 243.7500 351.5000 Du        
   2052 ****       119.0000 243.7500 351.7500 Du        
   2053 ****       119.0000 243.7500 352.0000 Du        
   2054 ****       119.0000 243.7500 352.2500 Du        
   2055 ****       119.0000 244.0000 351.5000 Du        
   2056 ****       119.0000 244.0000 351.7500 Du        
   2057 ****       119.0000 244.0000 352.0000 Du        
   2058 ****       119.0000 244.0000 352.2500 Du        
   2059 ****       119.0000 244.2500 351.5000 Du        
   2060 ****       119.0000 244.2500 351.7500 Du        
   2061 ****       119.0000 244.2500 352.0000 Du        
   2062 ****       119.0000 244.2500 352.2500 Du        
   2063 ****       119.0000 244.5000 351.5000 Du        
   2064 ****       119.0000 244.5000 351.7500 Du        
   2065 ****       119.0000 244.5000 352.0000 Du        
   2066 ****       119.0000 245.2500 359.5000 Du        
   2067 ****       119.0000 245.2500 359.7500 Du        
   2068 ****       119.0000 245.5000 359.5000 Du        
   2069 ****       119.0000 245.5000 359.7500 Du        
   2070 ****       119.0000 245.7500 359.2500 Du        
   2071 ****       119.0000 245.7500 359.5000 Du        
   2072 ****       119.0000 245.7500 359.7500 Du        
   2073 ****       119.0000 245.7500 360.0000 Du        
   2074 ****       119.0000 246.0000 359.0000 Du        
   2075 ****       119.0000 246.0000 359.2500 Du        
   2076 ****       119.0000 246.0000 359.5000 Du        
   2077 ****       119.0000 246.0000 359.7500 Du        
   2078 ****       119.0000 246.0000 360.0000 Du        
   2079 ****       119.0000 246.0000 360.2500 Du        
   2080 ****       119.0000 246.2500 358.7500 Du        
   2081 ****       119.0000 246.2500 359.0000 Du        
   2082 ****       119.0000 246.2500 359.2500 Du        
   2083 ****       119.0000 246.2500 359.5000 Du        
   2084 ****       119.0000 246.2500 359.7500 Du        
   2085 ****       119.0000 246.2500 360.0000 Du        
   2086 ****       119.0000 246.2500 360.2500 Du        
   2087 ****       119.0000 246.5000 358.7500 Du        
   2088 ****       119.0000 246.5000 359.0000 Du        
   2089 ****       119.0000 246.5000 359.2500 Du        
   2090 ****       119.0000 246.5000 359.5000 Du        
   2091 ****       119.0000 246.5000 359.7500 Du        
   2092 ****       119.0000 246.5000 360.0000 Du        
   2093 ****       119.0000 246.5000 360.2500 Du        
   2094 ****       119.0000 246.7500 358.7500 Du        
   2095 ****       119.0000 246.7500 359.0000 Du        
   2096 ****       119.0000 246.7500 359.2500 Du        
   2097 ****       119.0000 246.7500 359.5000 Du        
   2098 ****       119.0000 246.7500 359.7500 Du        
   2099 ****       119.0000 246.7500 360.0000 Du        
   2100 ****       119.0000 247.0000 358.7500 Du        
   2101 ****       119.0000 247.0000 359.0000 Du        
   2102 ****       119.0000 247.0000 359.2500 Du        
   2103 ****       119.0000 247.0000 359.5000 Du        
   2104 ****       119.0000 247.0000 359.7500 Du        
   2105 ****       119.0000 247.2500 358.7500 Du        
   2106 ****       119.0000 247.2500 359.0000 Du        
   2107 ****       119.0000 247.2500 359.2500 Du        
   2108 ****       119.0000 247.2500 359.5000 Du        
   2109 ****       119.0000 247.5000 358.7500 Du        
   2110 ****       119.0000 247.5000 359.0000 Du        
   2111 ****       119.0000 247.5000 359.2500 Du        
   2112 ****       119.0000 247.7500 358.7500 Du        
   2113 ****       119.0000 247.7500 359.0000 Du        
   2114 ****       119.2500 243.0000 351.7500 Du        
   2115 ****       119.2500 243.0000 352.0000 Du        
   2116 ****       119.2500 243.2500 351.7500 Du        
   2117 ****       119.2500 243.2500 352.0000 Du        
   2118 ****       119.2500 243.2500 352.2500 Du        
   2119 ****       119.2500 243.5000 351.5000 Du        
   2120 ****       119.2500 243.5000 351.7500 Du        
   2121 ****       119.2500 243.5000 352.0000 Du        
   2122 ****       119.2500 243.5000 352.2500 Du        
   2123 ****       119.2500 243.7500 351.5000 Du        
   2124 ****       119.2500 243.7500 351.7500 Du        
   2125 ****       119.2500 243.7500 352.0000 Du        
   2126 ****       119.2500 243.7500 352.2500 Du        
   2127 ****       119.2500 244.0000 351.5000 Du        
   2128 ****       119.2500 244.0000 351.7500 Du        
   2129 ****       119.2500 244.0000 352.0000 Du        
   2130 ****       119.2500 244.0000 352.2500 Du        
   2131 ****       119.2500 244.2500 351.5000 Du        
   2132 ****       119.2500 244.2500 351.7500 Du        
   2133 ****       119.2500 244.2500 352.0000 Du        
   2134 ****       119.2500 244.2500 352.2500 Du        
   2135 ****       119.2500 244.5000 351.5000 Du        
   2136 ****       119.2500 244.5000 351.7500 Du        
   2137 ****       119.2500 244.5000 352.0000 Du        
   2138 ****       119.2500 244.5000 352.2500 Du        
   2139 ****       119.2500 245.2500 359.5000 Du        
   2140 ****       119.2500 245.2500 359.7500 Du        
   2141 ****       119.2500 245.5000 359.5000 Du        
   2142 ****       119.2500 245.5000 359.7500 Du        
   2143 ****       119.2500 245.5000 360.0000 Du        
   2144 ****       119.2500 245.7500 359.2500 Du        
   2145 ****       119.2500 245.7500 359.5000 Du        
   2146 ****       119.2500 245.7500 359.7500 Du        
   2147 ****       119.2500 245.7500 360.0000 Du        
   2148 ****       119.2500 246.0000 359.0000 Du        
   2149 ****       119.2500 246.0000 359.2500 Du        
   2150 ****       119.2500 246.0000 359.5000 Du        
   2151 ****       119.2500 246.0000 359.7500 Du        
   2152 ****       119.2500 246.0000 360.0000 Du        
   2153 ****       119.2500 246.0000 360.2500 Du        
   2154 ****       119.2500 246.2500 358.7500 Du        
   2155 ****       119.2500 246.2500 359.0000 Du        
   2156 ****       119.2500 246.2500 359.2500 Du        
   2157 ****       119.2500 246.2500 359.5000 Du        
   2158 ****       119.2500 246.2500 359.7500 Du        
   2159 ****       119.2500 246.2500 360.0000 Du        
   2160 ****       119.2500 246.2500 360.2500 Du        
   2161 ****       119.2500 246.5000 358.7500 Du        
   2162 ****       119.2500 246.5000 359.0000 Du        
   2163 ****       119.2500 246.5000 359.2500 Du        
   2164 ****       119.2500 246.5000 359.5000 Du        
   2165 ****       119.2500 246.5000 359.7500 Du        
   2166 ****       119.2500 246.5000 360.0000 Du        
   2167 ****       119.2500 246.5000 360.2500 Du        
   2168 ****       119.2500 246.7500 358.7500 Du        
   2169 ****       119.2500 246.7500 359.0000 Du        
   2170 ****       119.2500 246.7500 359.2500 Du        
   2171 ****       119.2500 246.7500 359.5000 Du        
   2172 ****       119.2500 246.7500 359.7500 Du        
   2173 ****       119.2500 246.7500 360.0000 Du        
   2174 ****       119.2500 247.0000 358.7500 Du        
   2175 ****       119.2500 247.0000 359.0000 Du        
   2176 ****       119.2500 247.0000 359.2500 Du        
   2177 ****       119.2500 247.0000 359.5000 Du        
   2178 ****       119.2500 247.0000 359.7500 Du        
   2179 ****       119.2500 247.2500 358.7500 Du        
   2180 ****       119.2500 247.2500 359.0000 Du        
   2181 ****       119.2500 247.2500 359.2500 Du        
   2182 ****       119.2500 247.2500 359.5000 Du        
   2183 ****       119.2500 247.5000 358.7500 Du        
   2184 ****       119.2500 247.5000 359.0000 Du        
   2185 ****       119.2500 247.7500 358.7500 Du        
   2186 ****       119.2500 247.7500 359.0000 Du        
   2187 ****       119.5000 243.0000 351.7500 Du        
   2188 ****       119.5000 243.0000 352.0000 Du        
   2189 ****       119.5000 243.2500 351.7500 Du        
   2190 ****       119.5000 243.2500 352.0000 Du        
   2191 ****       119.5000 243.5000 351.5000 Du        
   2192 ****       119.5000 243.5000 351.7500 Du        
   2193 ****       119.5000 243.5000 352.0000 Du        
   2194 ****       119.5000 243.5000 352.2500 Du        
   2195 ****       119.5000 243.7500 351.5000 Du        
   2196 ****       119.5000 243.7500 351.7500 Du        
   2197 ****       119.5000 243.7500 352.0000 Du        
   2198 ****       119.5000 243.7500 352.2500 Du        
   2199 ****       119.5000 244.0000 351.5000 Du        
   2200 ****       119.5000 244.0000 351.7500 Du        
   2201 ****       119.5000 244.0000 352.0000 Du        
   2202 ****       119.5000 244.0000 352.2500 Du        
   2203 ****       119.5000 244.2500 351.5000 Du        
   2204 ****       119.5000 244.2500 351.7500 Du        
   2205 ****       119.5000 244.2500 352.0000 Du        
   2206 ****       119.5000 244.2500 352.2500 Du        
   2207 ****       119.5000 244.5000 351.5000 Du        
   2208 ****       119.5000 244.5000 351.7500 Du        
   2209 ****       119.5000 244.5000 352.0000 Du        
   2210 ****       119.5000 244.5000 352.2500 Du        
   2211 ****       119.5000 245.2500 359.7500 Du        
   2212 ****       119.5000 245.5000 359.2500 Du        
   2213 ****       119.5000 245.5000 359.5000 Du        
   2214 ****       119.5000 245.5000 359.7500 Du        
   2215 ****       119.5000 245.5000 360.0000 Du        
   2216 ****       119.5000 245.7500 359.2500 Du        
   2217 ****       119.5000 245.7500 359.5000 Du        
   2218 ****       119.5000 245.7500 359.7500 Du        
   2219 ****       119.5000 245.7500 360.0000 Du        
   2220 ****       119.5000 245.7500 360.2500 Du        
   2221 ****       119.5000 246.0000 359.0000 Du        
   2222 ****       119.5000 246.0000 359.2500 Du        
   2223 ****       119.5000 246.0000 359.5000 Du        
   2224 ****       119.5000 246.0000 359.7500 Du        
   2225 ****       119.5000 246.0000 360.0000 Du        
   2226 ****       119.5000 246.0000 360.2500 Du        
   2227 ****       119.5000 246.2500 358.7500 Du        
   2228 ****       119.5000 246.2500 359.0000 Du        
   2229 ****       119.5000 246.2500 359.2500 Du        
   2230 ****       119.5000 246.2500 359.5000 Du        
   2231 ****       119.5000 246.2500 359.7500 Du        
   2232 ****       119.5000 246.2500 360.0000 Du        
   2233 ****       119.5000 246.2500 360.2500 Du        
   2234 ****       119.5000 246.5000 358.7500 Du        
   2235 ****       119.5000 246.5000 359.0000 Du        
   2236 ****       119.5000 246.5000 359.2500 Du        
   2237 ****       119.5000 246.5000 359.5000 Du        
   2238 ****       119.5000 246.5000 359.7500 Du        
   2239 ****       119.5000 246.5000 360.0000 Du        
   2240 ****       119.5000 246.5000 360.2500 Du        
   2241 ****       119.5000 246.7500 358.7500 Du        
   2242 ****       119.5000 246.7500 359.0000 Du        
   2243 ****       119.5000 246.7500 359.2500 Du        
   2244 ****       119.5000 246.7500 359.5000 Du        
   2245 ****       119.5000 246.7500 359.7500 Du        
   2246 ****       119.5000 246.7500 360.0000 Du        
   2247 ****       119.5000 247.0000 358.7500 Du        
   2248 ****       119.5000 247.0000 359.0000 Du        
   2249 ****       119.5000 247.0000 359.2500 Du        
   2250 ****       119.5000 247.0000 359.5000 Du        
   2251 ****       119.5000 247.2500 358.7500 Du        
   2252 ****       119.5000 247.2500 359.0000 Du        
   2253 ****       119.5000 247.2500 359.2500 Du        
   2254 ****       119.5000 247.5000 358.7500 Du        
   2255 ****       119.5000 247.5000 359.0000 Du        
   2256 ****       119.5000 247.7500 358.7500 Du        
   2257 ****       119.5000 247.7500 359.0000 Du        
   2258 ****       119.7500 243.2500 351.7500 Du        
   2259 ****       119.7500 243.2500 352.0000 Du        
   2260 ****       119.7500 243.5000 351.5000 Du        
   2261 ****       119.7500 243.5000 351.7500 Du        
   2262 ****       119.7500 243.5000 352.0000 Du        
   2263 ****       119.7500 243.5000 352.2500 Du        
   2264 ****       119.7500 243.7500 351.5000 Du        
   2265 ****       119.7500 243.7500 351.7500 Du        
   2266 ****       119.7500 243.7500 352.0000 Du        
   2267 ****       119.7500 243.7500 352.2500 Du        
   2268 ****       119.7500 244.0000 351.5000 Du        
   2269 ****       119.7500 244.0000 351.7500 Du        
   2270 ****       119.7500 244.0000 352.0000 Du        
   2271 ****       119.7500 244.0000 352.2500 Du        
   2272 ****       119.7500 244.2500 351.5000 Du        
   2273 ****       119.7500 244.2500 351.7500 Du        
   2274 ****       119.7500 244.2500 352.0000 Du        
   2275 ****       119.7500 244.2500 352.2500 Du        
   2276 ****       119.7500 244.5000 351.5000 Du        
   2277 ****       119.7500 244.5000 351.7500 Du        
   2278 ****       119.7500 244.5000 352.0000 Du        
   2279 ****       119.7500 244.5000 352.2500 Du        
   2280 ****       119.7500 244.7500 351.5000 Du        
   2281 ****       119.7500 245.2500 359.5000 Du        
   2282 ****       119.7500 245.2500 359.7500 Du        
   2283 ****       119.7500 245.5000 359.2500 Du        
   2284 ****       119.7500 245.5000 359.5000 Du        
   2285 ****       119.7500 245.5000 359.7500 Du        
   2286 ****       119.7500 245.5000 360.0000 Du        
   2287 ****       119.7500 245.7500 359.0000 Du        
   2288 ****       119.7500 245.7500 359.2500 Du        
   2289 ****       119.7500 245.7500 359.5000 Du        
   2290 ****       119.7500 245.7500 359.7500 Du        
   2291 ****       119.7500 245.7500 360.0000 Du        
   2292 ****       119.7500 245.7500 360.2500 Du        
   2293 ****       119.7500 246.0000 358.7500 Du        
   2294 ****       119.7500 246.0000 359.0000 Du        
   2295 ****       119.7500 246.0000 359.2500 Du        
   2296 ****       119.7500 246.0000 359.5000 Du        
   2297 ****       119.7500 246.0000 359.7500 Du        
   2298 ****       119.7500 246.0000 360.0000 Du        
   2299 ****       119.7500 246.0000 360.2500 Du        
   2300 ****       119.7500 246.0000 360.5000 Du        
   2301 ****       119.7500 246.2500 358.7500 Du        
   2302 ****       119.7500 246.2500 359.0000 Du        
   2303 ****       119.7500 246.2500 359.2500 Du        
   2304 ****       119.7500 246.2500 359.5000 Du        
   2305 ****       119.7500 246.2500 359.7500 Du        
   2306 ****       119.7500 246.2500 360.0000 Du        
   2307 ****       119.7500 246.2500 360.2500 Du        
   2308 ****       119.7500 246.5000 358.7500 Du        
   2309 ****       119.7500 246.5000 359.0000 Du        
   2310 ****       119.7500 246.5000 359.2500 Du        
   2311 ****       119.7500 246.5000 359.5000 Du        
   2312 ****       119.7500 246.5000 359.7500 Du        
   2313 ****       119.7500 246.5000 360.0000 Du        
   2314 ****       119.7500 246.5000 360.2500 Du        
   2315 ****       119.7500 246.7500 358.7500 Du        
   2316 ****       119.7500 246.7500 359.0000 Du        
   2317 ****       119.7500 246.7500 359.2500 Du        
   2318 ****       119.7500 246.7500 359.5000 Du        
   2319 ****       119.7500 246.7500 359.7500 Du        
   2320 ****       119.7500 246.7500 360.0000 Du        
   2321 ****       119.7500 247.0000 358.7500 Du        
   2322 ****       119.7500 247.0000 359.0000 Du        
   2323 ****       119.7500 247.0000 359.2500 Du        
   2324 ****       119.7500 247.0000 359.5000 Du        
   2325 ****       119.7500 247.2500 358.7500 Du        
   2326 ****       119.7500 247.2500 359.0000 Du        
   2327 ****       119.7500 247.2500 359.2500 Du        
   2328 ****       119.7500 247.5000 358.7500 Du        
   2329 ****       119.7500 247.5000 359.0000 Du        
   2330 ****       119.7500 247.7500 358.7500 Du        
   2331 ****       119.7500 248.0000 358.7500 Du        
   2332 ****       120.0000 243.5000 351.7500 Du        
   2333 ****       120.0000 243.5000 352.0000 Du        
   2334 ****       120.0000 243.7500 351.5000 Du        
   2335 ****       120.0000 243.7500 351.7500 Du        
   2336 ****       120.0000 243.7500 352.0000 Du        
   2337 ****       120.0000 243.7500 352.2500 Du        
   2338 ****       120.0000 244.0000 351.2500 Du        
   2339 ****       120.0000 244.0000 351.5000 Du        
   2340 ****       120.0000 244.0000 351.7500 Du        
   2341 ****       120.0000 244.0000 352.0000 Du        
   2342 ****       120.0000 244.0000 352.2500 Du        
   2343 ****       120.0000 244.2500 351.0000 Du        
   2344 ****       120.0000 244.2500 351.2500 Du        
   2345 ****       120.0000 244.2500 351.5000 Du        
   2346 ****       120.0000 244.2500 351.7500 Du        
   2347 ****       120.0000 244.2500 352.0000 Du        
   2348 ****       120.0000 244.2500 352.2500 Du        
   2349 ****       120.0000 244.5000 350.7500 Du        
   2350 ****       120.0000 244.5000 351.0000 Du        
   2351 ****       120.0000 244.5000 351.2500 Du        
   2352 ****       120.0000 244.5000 351.5000 Du        
   2353 ****       120.0000 244.5000 351.7500 Du        
   2354 ****       120.0000 244.5000 352.0000 Du        
   2355 ****       120.0000 244.5000 352.2500 Du        
   2356 ****       120.0000 244.7500 350.7500 Du        
   2357 ****       120.0000 244.7500 351.0000 Du        
   2358 ****       120.0000 244.7500 351.2500 Du        
   2359 ****       120.0000 244.7500 351.5000 Du        
   2360 ****       120.0000 244.7500 351.7500 Du        
   2361 ****       120.0000 245.0000 359.5000 Du        
   2362 ****       120.0000 245.0000 359.7500 Du        
   2363 ****       120.0000 245.2500 359.2500 Du        
   2364 ****       120.0000 245.2500 359.5000 Du        
   2365 ****       120.0000 245.2500 359.7500 Du        
   2366 ****       120.0000 245.2500 360.0000 Du        
   2367 ****       120.0000 245.5000 359.0000 Du        
   2368 ****       120.0000 245.5000 359.2500 Du        
   2369 ****       120.0000 245.5000 359.5000 Du        
   2370 ****       120.0000 245.5000 359.7500 Du        
   2371 ****       120.0000 245.5000 360.0000 Du        
   2372 ****       120.0000 245.5000 360.2500 Du        
   2373 ****       120.0000 245.7500 359.0000 Du        
   2374 ****       120.0000 245.7500 359.2500 Du        
   2375 ****       120.0000 245.7500 359.5000 Du        
   2376 ****       120.0000 245.7500 359.7500 Du        
   2377 ****       120.0000 245.7500 360.0000 Du        
   2378 ****       120.0000 245.7500 360.2500 Du        
   2379 ****       120.0000 246.0000 358.7500 Du        
   2380 ****       120.0000 246.0000 359.0000 Du        
   2381 ****       120.0000 246.0000 359.2500 Du        
   2382 ****       120.0000 246.0000 359.5000 Du        
   2383 ****       120.0000 246.0000 359.7500 Du        
   2384 ****       120.0000 246.0000 360.0000 Du        
   2385 ****       120.0000 246.0000 360.2500 Du        
   2386 ****       120.0000 246.0000 360.5000 Du        
   2387 ****       120.0000 246.2500 358.5000 Du        
   2388 ****       120.0000 246.2500 358.7500 Du        
   2389 ****       120.0000 246.2500 359.0000 Du        
   2390 ****       120.0000 246.2500 359.2500 Du        
   2391 ****       120.0000 246.2500 359.5000 Du        
   2392 ****       120.0000 246.2500 359.7500 Du        
   2393 ****       120.0000 246.2500 360.0000 Du        
   2394 ****       120.0000 246.2500 360.2500 Du        
   2395 ****       120.0000 246.2500 360.5000 Du        
   2396 ****       120.0000 246.5000 358.5000 Du        
   2397 ****       120.0000 246.5000 358.7500 Du        
   2398 ****       120.0000 246.5000 359.0000 Du        
   2399 ****       120.0000 246.5000 359.2500 Du        
   2400 ****       120.0000 246.5000 359.5000 Du        
   2401 ****       120.0000 246.5000 359.7500 Du        
   2402 ****       120.0000 246.5000 360.0000 Du        
   2403 ****       120.0000 246.5000 360.2500 Du        
   2404 ****       120.0000 246.7500 358.5000 Du        
   2405 ****       120.0000 246.7500 358.7500 Du        
   2406 ****       120.0000 246.7500 359.0000 Du        
   2407 ****       120.0000 246.7500 359.2500 Du        
   2408 ****       120.0000 246.7500 359.5000 Du        
   2409 ****       120.0000 246.7500 359.7500 Du        
   2410 ****       120.0000 246.7500 360.0000 Du        
   2411 ****       120.0000 247.0000 358.5000 Du        
   2412 ****       120.0000 247.0000 358.7500 Du        
   2413 ****       120.0000 247.0000 359.0000 Du        
   2414 ****       120.0000 247.0000 359.2500 Du        
   2415 ****       120.0000 247.0000 359.5000 Du        
   2416 ****       120.0000 247.2500 358.5000 Du        
   2417 ****       120.0000 247.2500 358.7500 Du        
   2418 ****       120.0000 247.2500 359.0000 Du        
   2419 ****       120.0000 247.2500 359.2500 Du        
   2420 ****       120.0000 247.5000 358.5000 Du        
   2421 ****       120.0000 247.5000 358.7500 Du        
   2422 ****       120.0000 247.5000 359.0000 Du        
   2423 ****       120.0000 247.7500 358.7500 Du        
   2424 ****       120.0000 248.0000 358.7500 Du        
   2425 ****       120.2500 244.0000 351.7500 Du        
   2426 ****       120.2500 244.0000 352.0000 Du        
   2427 ****       120.2500 244.0000 352.2500 Du        
   2428 ****       120.2500 244.2500 351.5000 Du        
   2429 ****       120.2500 244.2500 351.7500 Du        
   2430 ****       120.2500 244.2500 352.0000 Du        
   2431 ****       120.2500 244.2500 352.2500 Du        
   2432 ****       120.2500 244.5000 351.2500 Du        
   2433 ****       120.2500 244.5000 351.5000 Du        
   2434 ****       120.2500 244.5000 351.7500 Du        
   2435 ****       120.2500 244.5000 352.0000 Du        
   2436 ****       120.2500 244.7500 351.2500 Du        
   2437 ****       120.2500 245.0000 359.2500 Du        
   2438 ****       120.2500 245.0000 359.5000 Du        
   2439 ****       120.2500 245.0000 359.7500 Du        
   2440 ****       120.2500 245.2500 359.0000 Du        
   2441 ****       120.2500 245.2500 359.2500 Du        
   2442 ****       120.2500 245.2500 359.5000 Du        
   2443 ****       120.2500 245.2500 359.7500 Du        
   2444 ****       120.2500 245.2500 360.0000 Du        
   2445 ****       120.2500 245.5000 359.0000 Du        
   2446 ****       120.2500 245.5000 359.2500 Du        
   2447 ****       120.2500 245.5000 359.5000 Du        
   2448 ****       120.2500 245.5000 359.7500 Du        
   2449 ****       120.2500 245.5000 360.0000 Du        
   2450 ****       120.2500 245.5000 360.2500 Du        
   2451 ****       120.2500 245.7500 358.7500 Du        
   2452 ****       120.2500 245.7500 359.0000 Du        
   2453 ****       120.2500 245.7500 359.2500 Du        
   2454 ****       120.2500 245.7500 359.5000 Du        
   2455 ****       120.2500 245.7500 359.7500 Du        
   2456 ****       120.2500 245.7500 360.0000 Du        
   2457 ****       120.2500 245.7500 360.2500 Du        
   2458 ****       120.2500 246.0000 358.5000 Du        
   2459 ****       120.2500 246.0000 358.7500 Du        
   2460 ****       120.2500 246.0000 359.0000 Du        
   2461 ****       120.2500 246.0000 359.2500 Du        
   2462 ****       120.2500 246.0000 359.5000 Du        
   2463 ****       120.2500 246.0000 359.7500 Du        
   2464 ****       120.2500 246.0000 360.0000 Du        
   2465 ****       120.2500 246.0000 360.2500 Du        
   2466 ****       120.2500 246.0000 360.5000 Du        
   2467 ****       120.2500 246.2500 358.5000 Du        
   2468 ****       120.2500 246.2500 358.7500 Du        
   2469 ****       120.2500 246.2500 359.0000 Du        
   2470 ****       120.2500 246.2500 359.2500 Du        
   2471 ****       120.2500 246.2500 359.5000 Du        
   2472 ****       120.2500 246.2500 359.7500 Du        
   2473 ****       120.2500 246.2500 360.0000 Du        
   2474 ****       120.2500 246.2500 360.2500 Du        
   2475 ****       120.2500 246.2500 360.5000 Du        
   2476 ****       120.2500 246.5000 358.5000 Du        
   2477 ****       120.2500 246.5000 358.7500 Du        
   2478 ****       120.2500 246.5000 359.0000 Du        
   2479 ****       120.2500 246.5000 359.2500 Du        
   2480 ****       120.2500 246.5000 359.5000 Du        
   2481 ****       120.2500 246.5000 359.7500 Du        
   2482 ****       120.2500 246.5000 360.0000 Du        
   2483 ****       120.2500 246.5000 360.2500 Du        
   2484 ****       120.2500 246.7500 358.5000 Du        
   2485 ****       120.2500 246.7500 358.7500 Du        
   2486 ****       120.2500 246.7500 359.0000 Du        
   2487 ****       120.2500 246.7500 359.2500 Du        
   2488 ****       120.2500 246.7500 359.5000 Du        
   2489 ****       120.2500 246.7500 359.7500 Du        
   2490 ****       120.2500 246.7500 360.0000 Du        
   2491 ****       120.2500 247.0000 358.5000 Du        
   2492 ****       120.2500 247.0000 358.7500 Du        
   2493 ****       120.2500 247.0000 359.0000 Du        
   2494 ****       120.2500 247.0000 359.2500 Du        
   2495 ****       120.2500 247.0000 359.5000 Du        
   2496 ****       120.2500 247.2500 358.5000 Du        
   2497 ****       120.2500 247.2500 358.7500 Du        
   2498 ****       120.2500 247.2500 359.0000 Du        
   2499 ****       120.2500 247.2500 359.2500 Du        
   2500 ****       120.2500 247.5000 358.5000 Du        
   2501 ****       120.2500 247.5000 358.7500 Du        
   2502 ****       120.2500 247.5000 359.0000 Du        
   2503 ****       120.2500 247.7500 358.5000 Du        
   2504 ****       120.2500 247.7500 358.7500 Du        
   2505 ****       120.2500 248.0000 358.5000 Du        
   2506 ****       120.2500 248.0000 358.7500 Du        
   2507 ****       120.5000 245.0000 359.2500 Du        
   2508 ****       120.5000 245.0000 359.5000 Du        
   2509 ****       120.5000 245.0000 359.7500 Du        
   2510 ****       120.5000 245.2500 359.0000 Du        
   2511 ****       120.5000 245.2500 359.2500 Du        
   2512 ****       120.5000 245.2500 359.5000 Du        
   2513 ****       120.5000 245.2500 359.7500 Du        
   2514 ****       120.5000 245.2500 360.0000 Du        
   2515 ****       120.5000 245.5000 358.7500 Du        
   2516 ****       120.5000 245.5000 359.0000 Du        
   2517 ****       120.5000 245.5000 359.2500 Du        
   2518 ****       120.5000 245.5000 359.5000 Du        
   2519 ****       120.5000 245.5000 359.7500 Du        
   2520 ****       120.5000 245.5000 360.0000 Du        
   2521 ****       120.5000 245.7500 358.7500 Du        
   2522 ****       120.5000 245.7500 359.0000 Du        
   2523 ****       120.5000 245.7500 359.2500 Du        
   2524 ****       120.5000 245.7500 359.5000 Du        
   2525 ****       120.5000 245.7500 359.7500 Du        
   2526 ****       120.5000 245.7500 360.0000 Du        
   2527 ****       120.5000 245.7500 360.2500 Du        
   2528 ****       120.5000 246.0000 358.5000 Du        
   2529 ****       120.5000 246.0000 358.7500 Du        
   2530 ****       120.5000 246.0000 359.0000 Du        
   2531 ****       120.5000 246.0000 359.2500 Du        
   2532 ****       120.5000 246.0000 359.5000 Du        
   2533 ****       120.5000 246.0000 359.7500 Du        
   2534 ****       120.5000 246.0000 360.0000 Du        
   2535 ****       120.5000 246.0000 360.2500 Du        
   2536 ****       120.5000 246.2500 358.5000 Du        
   2537 ****       120.5000 246.2500 358.7500 Du        
   2538 ****       120.5000 246.2500 359.0000 Du        
   2539 ****       120.5000 246.2500 359.2500 Du        
   2540 ****       120.5000 246.2500 359.5000 Du        
   2541 ****       120.5000 246.2500 359.7500 Du        
   2542 ****       120.5000 246.2500 360.0000 Du        
   2543 ****       120.5000 246.2500 360.2500 Du        
   2544 ****       120.5000 246.5000 358.5000 Du        
   2545 ****       120.5000 246.5000 358.7500 Du        
   2546 ****       120.5000 246.5000 359.0000 Du        
   2547 ****       120.5000 246.5000 359.2500 Du        
   2548 ****       120.5000 246.5000 359.5000 Du        
   2549 ****       120.5000 246.5000 359.7500 Du        
   2550 ****       120.5000 246.5000 360.0000 Du        
   2551 ****       120.5000 246.7500 358.5000 Du        
   2552 ****       120.5000 246.7500 358.7500 Du        
   2553 ****       120.5000 246.7500 359.0000 Du        
   2554 ****       120.5000 246.7500 359.2500 Du        
   2555 ****       120.5000 246.7500 359.5000 Du        
   2556 ****       120.5000 246.7500 359.7500 Du        
   2557 ****       120.5000 247.0000 358.5000 Du        
   2558 ****       120.5000 247.0000 358.7500 Du        
   2559 ****       120.5000 247.0000 359.0000 Du        
   2560 ****       120.5000 247.0000 359.2500 Du        
   2561 ****       120.5000 247.0000 359.5000 Du        
   2562 ****       120.5000 247.2500 358.5000 Du        
   2563 ****       120.5000 247.2500 358.7500 Du        
   2564 ****       120.5000 247.2500 359.0000 Du        
   2565 ****       120.5000 247.2500 359.2500 Du        
   2566 ****       120.5000 247.5000 358.5000 Du        
   2567 ****       120.5000 247.5000 358.7500 Du        
   2568 ****       120.5000 247.5000 359.0000 Du        
   2569 ****       120.5000 247.7500 358.7500 Du        
   2570 ****       120.7500 245.0000 359.0000 Du        
   2571 ****       120.7500 245.0000 359.2500 Du        
   2572 ****       120.7500 245.0000 359.5000 Du        
   2573 ****       120.7500 245.0000 359.7500 Du        
   2574 ****       120.7500 245.2500 358.7500 Du        
   2575 ****       120.7500 245.2500 359.0000 Du        
   2576 ****       120.7500 245.2500 359.2500 Du        
   2577 ****       120.7500 245.2500 359.5000 Du        
   2578 ****       120.7500 245.2500 359.7500 Du        
   2579 ****       120.7500 245.2500 360.0000 Du        
   2580 ****       120.7500 245.5000 358.5000 Du        
   2581 ****       120.7500 245.5000 358.7500 Du        
   2582 ****       120.7500 245.5000 359.0000 Du        
   2583 ****       120.7500 245.5000 359.2500 Du        
   2584 ****       120.7500 245.5000 359.5000 Du        
   2585 ****       120.7500 245.5000 359.7500 Du        
   2586 ****       120.7500 245.5000 360.0000 Du        
   2587 ****       120.7500 245.7500 358.2500 Du        
   2588 ****       120.7500 245.7500 358.5000 Du        
   2589 ****       120.7500 245.7500 358.7500 Du        
   2590 ****       120.7500 245.7500 359.0000 Du        
   2591 ****       120.7500 245.7500 359.2500 Du        
   2592 ****       120.7500 245.7500 359.5000 Du        
   2593 ****       120.7500 245.7500 359.7500 Du        
   2594 ****       120.7500 245.7500 360.0000 Du        
   2595 ****       120.7500 246.0000 358.2500 Du        
   2596 ****       120.7500 246.0000 358.5000 Du        
   2597 ****       120.7500 246.0000 358.7500 Du        
   2598 ****       120.7500 246.0000 359.0000 Du        
   2599 ****       120.7500 246.0000 359.2500 Du        
   2600 ****       120.7500 246.0000 359.5000 Du        
   2601 ****       120.7500 246.0000 359.7500 Du        
   2602 ****       120.7500 246.0000 360.0000 Du        
   2603 ****       120.7500 246.0000 360.2500 Du        
   2604 ****       120.7500 246.2500 358.2500 Du        
   2605 ****       120.7500 246.2500 358.5000 Du        
   2606 ****       120.7500 246.2500 358.7500 Du        
   2607 ****       120.7500 246.2500 359.0000 Du        
   2608 ****       120.7500 246.2500 359.2500 Du        
   2609 ****       120.7500 246.2500 359.5000 Du        
   2610 ****       120.7500 246.2500 359.7500 Du        
   2611 ****       120.7500 246.2500 360.0000 Du        
   2612 ****       120.7500 246.2500 360.2500 Du        
   2613 ****       120.7500 246.5000 358.2500 Du        
   2614 ****       120.7500 246.5000 358.5000 Du        
   2615 ****       120.7500 246.5000 358.7500 Du        
   2616 ****       120.7500 246.5000 359.0000 Du        
   2617 ****       120.7500 246.5000 359.2500 Du        
   2618 ****       120.7500 246.5000 359.5000 Du        
   2619 ****       120.7500 246.5000 359.7500 Du        
   2620 ****       120.7500 246.5000 360.0000 Du        
   2621 ****       120.7500 246.7500 358.2500 Du        
   2622 ****       120.7500 246.7500 358.5000 Du        
   2623 ****       120.7500 246.7500 358.7500 Du        
   2624 ****       120.7500 246.7500 359.0000 Du        
   2625 ****       120.7500 246.7500 359.2500 Du        
   2626 ****       120.7500 246.7500 359.5000 Du        
   2627 ****       120.7500 246.7500 359.7500 Du        
   2628 ****       120.7500 247.0000 358.2500 Du        
   2629 ****       120.7500 247.0000 358.5000 Du        
   2630 ****       120.7500 247.0000 358.7500 Du        
   2631 ****       120.7500 247.0000 359.0000 Du        
   2632 ****       120.7500 247.0000 359.2500 Du        
   2633 ****       120.7500 247.0000 359.5000 Du        
   2634 ****       120.7500 247.2500 358.5000 Du        
   2635 ****       120.7500 247.2500 358.7500 Du        
   2636 ****       120.7500 247.2500 359.0000 Du        
   2637 ****       120.7500 247.2500 359.2500 Du        
   2638 ****       120.7500 247.5000 358.5000 Du        
   2639 ****       120.7500 247.5000 358.7500 Du        
   2640 ****       120.7500 247.5000 359.0000 Du        
   2641 ****       120.7500 247.7500 358.5000 Du        
   2642 ****       120.7500 247.7500 358.7500 Du        
   2643 ****       121.0000 245.0000 358.7500 Du        
   2644 ****       121.0000 245.0000 359.0000 Du        
   2645 ****       121.0000 245.0000 359.2500 Du        
   2646 ****       121.0000 245.0000 359.5000 Du        
   2647 ****       121.0000 245.2500 358.2500 Du        
   2648 ****       121.0000 245.2500 358.5000 Du        
   2649 ****       121.0000 245.2500 358.7500 Du        
   2650 ****       121.0000 245.2500 359.0000 Du        
   2651 ****       121.0000 245.2500 359.2500 Du        
   2652 ****       121.0000 245.2500 359.5000 Du        
   2653 ****       121.0000 245.2500 359.7500 Du        
   2654 ****       121.0000 245.5000 358.2500 Du        
   2655 ****       121.0000 245.5000 358.5000 Du        
   2656 ****       121.0000 245.5000 358.7500 Du        
   2657 ****       121.0000 245.5000 359.0000 Du        
   2658 ****       121.0000 245.5000 359.2500 Du        
   2659 ****       121.0000 245.5000 359.5000 Du        
   2660 ****       121.0000 245.5000 359.7500 Du        
   2661 ****       121.0000 245.7500 358.0000 Du        
   2662 ****       121.0000 245.7500 358.2500 Du        
   2663 ****       121.0000 245.7500 358.5000 Du        
   2664 ****       121.0000 245.7500 358.7500 Du        
   2665 ****       121.0000 245.7500 359.0000 Du        
   2666 ****       121.0000 245.7500 359.2500 Du        
   2667 ****       121.0000 245.7500 359.5000 Du        
   2668 ****       121.0000 245.7500 359.7500 Du        
   2669 ****       121.0000 245.7500 360.0000 Du        
   2670 ****       121.0000 246.0000 358.0000 Du        
   2671 ****       121.0000 246.0000 358.2500 Du        
   2672 ****       121.0000 246.0000 358.5000 Du        
   2673 ****       121.0000 246.0000 358.7500 Du        
   2674 ****       121.0000 246.0000 359.0000 Du        
   2675 ****       121.0000 246.0000 359.2500 Du        
   2676 ****       121.0000 246.0000 359.5000 Du        
   2677 ****       121.0000 246.0000 359.7500 Du        
   2678 ****       121.0000 246.0000 360.0000 Du        
   2679 ****       121.0000 246.2500 358.0000 Du        
   2680 ****       121.0000 246.2500 358.2500 Du        
   2681 ****       121.0000 246.2500 358.5000 Du        
   2682 ****       121.0000 246.2500 358.7500 Du        
   2683 ****       121.0000 246.2500 359.0000 Du        
   2684 ****       121.0000 246.2500 359.2500 Du        
   2685 ****       121.0000 246.2500 359.5000 Du        
   2686 ****       121.0000 246.2500 359.7500 Du        
   2687 ****       121.0000 246.2500 360.0000 Du        
   2688 ****       121.0000 246.5000 358.2500 Du        
   2689 ****       121.0000 246.5000 358.5000 Du        
   2690 ****       121.0000 246.5000 358.7500 Du        
   2691 ****       121.0000 246.5000 359.0000 Du        
   2692 ****       121.0000 246.5000 359.2500 Du        
   2693 ****       121.0000 246.5000 359.5000 Du        
   2694 ****       121.0000 246.5000 359.7500 Du        
   2695 ****       121.0000 246.5000 360.0000 Du        
   2696 ****       121.0000 246.7500 358.2500 Du        
   2697 ****       121.0000 246.7500 358.5000 Du        
   2698 ****       121.0000 246.7500 358.7500 Du        
   2699 ****       121.0000 246.7500 359.0000 Du        
   2700 ****       121.0000 246.7500 359.2500 Du        
   2701 ****       121.0000 246.7500 359.5000 Du        
   2702 ****       121.0000 246.7500 359.7500 Du        
   2703 ****       121.0000 247.0000 358.2500 Du        
   2704 ****       121.0000 247.0000 358.5000 Du        
   2705 ****       121.0000 247.0000 358.7500 Du        
   2706 ****       121.0000 247.0000 359.0000 Du        
   2707 ****       121.0000 247.0000 359.2500 Du        
   2708 ****       121.0000 247.0000 359.5000 Du        
   2709 ****       121.0000 247.2500 358.5000 Du        
   2710 ****       121.0000 247.2500 358.7500 Du        
   2711 ****       121.0000 247.2500 359.0000 Du        
   2712 ****       121.0000 247.2500 359.2500 Du        
   2713 ****       121.0000 247.5000 358.5000 Du        
   2714 ****       121.0000 247.5000 358.7500 Du        
   2715 ****       121.0000 247.5000 359.0000 Du        
   2716 ****       121.0000 247.7500 358.5000 Du        
   2717 ****       121.0000 247.7500 358.7500 Du        
   2718 ****       121.0000 249.0000 358.2500 Du        
   2719 ****       121.0000 249.2500 358.2500 Du        
   2720 ****       121.2500 245.0000 358.2500 Du        
   2721 ****       121.2500 245.0000 358.5000 Du        
   2722 ****       121.2500 245.0000 358.7500 Du        
   2723 ****       121.2500 245.0000 359.0000 Du        
   2724 ****       121.2500 245.0000 359.2500 Du        
   2725 ****       121.2500 245.2500 358.0000 Du        
   2726 ****       121.2500 245.2500 358.2500 Du        
   2727 ****       121.2500 245.2500 358.5000 Du        
   2728 ****       121.2500 245.2500 358.7500 Du        
   2729 ****       121.2500 245.2500 359.0000 Du        
   2730 ****       121.2500 245.2500 359.2500 Du        
   2731 ****       121.2500 245.2500 359.5000 Du        
   2732 ****       121.2500 245.5000 358.0000 Du        
   2733 ****       121.2500 245.5000 358.2500 Du        
   2734 ****       121.2500 245.5000 358.5000 Du        
   2735 ****       121.2500 245.5000 358.7500 Du        
   2736 ****       121.2500 245.5000 359.0000 Du        
   2737 ****       121.2500 245.5000 359.2500 Du        
   2738 ****       121.2500 245.5000 359.5000 Du        
   2739 ****       121.2500 245.5000 359.7500 Du        
   2740 ****       121.2500 245.7500 357.7500 Du        
   2741 ****       121.2500 245.7500 358.0000 Du        
   2742 ****       121.2500 245.7500 358.2500 Du        
   2743 ****       121.2500 245.7500 358.5000 Du        
   2744 ****       121.2500 245.7500 358.7500 Du        
   2745 ****       121.2500 245.7500 359.0000 Du        
   2746 ****       121.2500 245.7500 359.2500 Du        
   2747 ****       121.2500 245.7500 359.5000 Du        
   2748 ****       121.2500 245.7500 359.7500 Du        
   2749 ****       121.2500 246.0000 358.0000 Du        
   2750 ****       121.2500 246.0000 358.2500 Du        
   2751 ****       121.2500 246.0000 358.5000 Du        
   2752 ****       121.2500 246.0000 358.7500 Du        
   2753 ****       121.2500 246.0000 359.0000 Du        
   2754 ****       121.2500 246.0000 359.2500 Du        
   2755 ****       121.2500 246.0000 359.5000 Du        
   2756 ****       121.2500 246.0000 359.7500 Du        
   2757 ****       121.2500 246.2500 358.0000 Du        
   2758 ****       121.2500 246.2500 358.2500 Du        
   2759 ****       121.2500 246.2500 358.5000 Du        
   2760 ****       121.2500 246.2500 358.7500 Du        
   2761 ****       121.2500 246.2500 359.0000 Du        
   2762 ****       121.2500 246.2500 359.2500 Du        
   2763 ****       121.2500 246.2500 359.5000 Du        
   2764 ****       121.2500 246.2500 359.7500 Du        
   2765 ****       121.2500 246.5000 358.2500 Du        
   2766 ****       121.2500 246.5000 358.5000 Du        
   2767 ****       121.2500 246.5000 358.7500 Du        
   2768 ****       121.2500 246.5000 359.0000 Du        
   2769 ****       121.2500 246.5000 359.2500 Du        
   2770 ****       121.2500 246.5000 359.5000 Du        
   2771 ****       121.2500 246.5000 359.7500 Du        
   2772 ****       121.2500 246.7500 358.2500 Du        
   2773 ****       121.2500 246.7500 358.5000 Du        
   2774 ****       121.2500 246.7500 358.7500 Du        
   2775 ****       121.2500 246.7500 359.0000 Du        
   2776 ****       121.2500 246.7500 359.2500 Du        
   2777 ****       121.2500 246.7500 359.5000 Du        
   2778 ****       121.2500 246.7500 359.7500 Du        
   2779 ****       121.2500 247.0000 358.5000 Du        
   2780 ****       121.2500 247.0000 358.7500 Du        
   2781 ****       121.2500 247.0000 359.0000 Du        
   2782 ****       121.2500 247.0000 359.2500 Du        
   2783 ****       121.2500 247.0000 359.5000 Du        
   2784 ****       121.2500 247.0000 359.7500 Du        
   2785 ****       121.2500 247.2500 358.5000 Du        
   2786 ****       121.2500 247.2500 358.7500 Du        
   2787 ****       121.2500 247.2500 359.0000 Du        
   2788 ****       121.2500 247.2500 359.2500 Du        
   2789 ****       121.2500 247.5000 358.5000 Du        
   2790 ****       121.2500 247.5000 358.7500 Du        
   2791 ****       121.2500 247.5000 359.0000 Du        
   2792 ****       121.2500 247.7500 358.5000 Du        
   2793 ****       121.2500 247.7500 358.7500 Du        
   2794 ****       121.2500 248.0000 358.5000 Du        
   2795 ****       121.2500 248.0000 358.7500 Du        
   2796 ****       121.2500 248.5000 358.5000 Du        
   2797 ****       121.2500 248.7500 358.5000 Du        
   2798 ****       121.2500 249.0000 358.2500 Du        
   2799 ****       121.2500 249.2500 358.2500 Du        
   2800 ****       121.2500 249.5000 358.0000 Du        
   2801 ****       121.2500 249.5000 358.2500 Du        
   2802 ****       121.5000 244.7500 358.7500 Du        
   2803 ****       121.5000 245.0000 357.7500 Du        
   2804 ****       121.5000 245.0000 358.0000 Du        
   2805 ****       121.5000 245.0000 358.2500 Du        
   2806 ****       121.5000 245.0000 358.5000 Du        
   2807 ****       121.5000 245.0000 358.7500 Du        
   2808 ****       121.5000 245.0000 359.0000 Du        
   2809 ****       121.5000 245.0000 359.2500 Du        
   2810 ****       121.5000 245.2500 357.5000 Du        
   2811 ****       121.5000 245.2500 357.7500 Du        
   2812 ****       121.5000 245.2500 358.0000 Du        
   2813 ****       121.5000 245.2500 358.2500 Du        
   2814 ****       121.5000 245.2500 358.5000 Du        
   2815 ****       121.5000 245.2500 358.7500 Du        
   2816 ****       121.5000 245.2500 359.0000 Du        
   2817 ****       121.5000 245.2500 359.2500 Du        
   2818 ****       121.5000 245.2500 359.5000 Du        
   2819 ****       121.5000 245.5000 357.7500 Du        
   2820 ****       121.5000 245.5000 358.0000 Du        
   2821 ****       121.5000 245.5000 358.2500 Du        
   2822 ****       121.5000 245.5000 358.5000 Du        
   2823 ****       121.5000 245.5000 358.7500 Du        
   2824 ****       121.5000 245.5000 359.0000 Du        
   2825 ****       121.5000 245.5000 359.2500 Du        
   2826 ****       121.5000 245.7500 357.7500 Du        
   2827 ****       121.5000 245.7500 358.0000 Du        
   2828 ****       121.5000 245.7500 358.2500 Du        
   2829 ****       121.5000 245.7500 358.5000 Du        
   2830 ****       121.5000 245.7500 358.7500 Du        
   2831 ****       121.5000 245.7500 359.0000 Du        
   2832 ****       121.5000 245.7500 359.2500 Du        
   2833 ****       121.5000 245.7500 359.5000 Du        
   2834 ****       121.5000 246.0000 358.0000 Du        
   2835 ****       121.5000 246.0000 358.2500 Du        
   2836 ****       121.5000 246.0000 358.5000 Du        
   2837 ****       121.5000 246.0000 358.7500 Du        
   2838 ****       121.5000 246.0000 359.0000 Du        
   2839 ****       121.5000 246.0000 359.2500 Du        
   2840 ****       121.5000 246.0000 359.5000 Du        
   2841 ****       121.5000 246.2500 358.2500 Du        
   2842 ****       121.5000 246.2500 358.5000 Du        
   2843 ****       121.5000 246.2500 358.7500 Du        
   2844 ****       121.5000 246.2500 359.0000 Du        
   2845 ****       121.5000 246.2500 359.2500 Du        
   2846 ****       121.5000 246.2500 359.5000 Du        
   2847 ****       121.5000 246.2500 359.7500 Du        
   2848 ****       121.5000 246.5000 358.7500 Du        
   2849 ****       121.5000 246.5000 359.0000 Du        
   2850 ****       121.5000 246.5000 359.2500 Du        
   2851 ****       121.5000 246.5000 359.5000 Du        
   2852 ****       121.5000 246.5000 359.7500 Du        
   2853 ****       121.5000 246.7500 359.0000 Du        
   2854 ****       121.5000 246.7500 359.2500 Du        
   2855 ****       121.5000 246.7500 359.5000 Du        
   2856 ****       121.5000 246.7500 359.7500 Du        
   2857 ****       121.5000 247.0000 358.7500 Du        
   2858 ****       121.5000 247.0000 359.0000 Du        
   2859 ****       121.5000 247.0000 359.2500 Du        
   2860 ****       121.5000 247.0000 359.5000 Du        
   2861 ****       121.5000 247.2500 359.0000 Du        
   2862 ****       121.7500 244.7500 357.2500 Du        
   2863 ****       121.7500 244.7500 357.5000 Du        
   2864 ****       121.7500 244.7500 357.7500 Du        
   2865 ****       121.7500 244.7500 358.0000 Du        
   2866 ****       121.7500 244.7500 358.2500 Du        
   2867 ****       121.7500 244.7500 358.5000 Du        
   2868 ****       121.7500 244.7500 358.7500 Du        
   2869 ****       121.7500 245.0000 356.7500 Du        
   2870 ****       121.7500 245.0000 357.0000 Du        
   2871 ****       121.7500 245.0000 357.2500 Du        
   2872 ****       121.7500 245.0000 357.5000 Du        
   2873 ****       121.7500 245.0000 357.7500 Du        
   2874 ****       121.7500 245.0000 358.0000 Du        
   2875 ****       121.7500 245.0000 358.2500 Du        
   2876 ****       121.7500 245.0000 358.5000 Du        
   2877 ****       121.7500 245.0000 358.7500 Du        
   2878 ****       121.7500 245.0000 359.0000 Du        
   2879 ****       121.7500 245.0000 359.2500 Du        
   2880 ****       121.7500 245.2500 357.0000 Du        
   2881 ****       121.7500 245.2500 357.2500 Du        
   2882 ****       121.7500 245.2500 357.5000 Du        
   2883 ****       121.7500 245.2500 357.7500 Du        
   2884 ****       121.7500 245.2500 358.0000 Du        
   2885 ****       121.7500 245.2500 358.2500 Du        
   2886 ****       121.7500 245.2500 358.5000 Du        
   2887 ****       121.7500 245.2500 358.7500 Du        
   2888 ****       121.7500 245.2500 359.0000 Du        
   2889 ****       121.7500 245.2500 359.2500 Du        
   2890 ****       121.7500 245.5000 357.2500 Du        
   2891 ****       121.7500 245.5000 357.5000 Du        
   2892 ****       121.7500 245.5000 357.7500 Du        
   2893 ****       121.7500 245.5000 358.0000 Du        
   2894 ****       121.7500 245.5000 358.2500 Du        
   2895 ****       121.7500 245.5000 358.5000 Du        
   2896 ****       121.7500 245.5000 358.7500 Du        
   2897 ****       121.7500 245.5000 359.0000 Du        
   2898 ****       121.7500 245.5000 359.2500 Du        
   2899 ****       121.7500 245.7500 357.5000 Du        
   2900 ****       121.7500 245.7500 357.7500 Du        
   2901 ****       121.7500 245.7500 358.0000 Du        
   2902 ****       121.7500 245.7500 358.2500 Du        
   2903 ****       121.7500 245.7500 358.5000 Du        
   2904 ****       121.7500 245.7500 358.7500 Du        
   2905 ****       121.7500 245.7500 359.0000 Du        
   2906 ****       121.7500 245.7500 359.2500 Du        
   2907 ****       121.7500 246.0000 357.7500 Du        
   2908 ****       121.7500 246.0000 358.0000 Du        
   2909 ****       121.7500 246.0000 358.2500 Du        
   2910 ****       121.7500 246.0000 358.5000 Du        
   2911 ****       121.7500 246.0000 358.7500 Du        
   2912 ****       121.7500 246.0000 359.0000 Du        
   2913 ****       121.7500 246.0000 359.2500 Du        
   2914 ****       121.7500 246.0000 359.5000 Du        
   2915 ****       121.7500 246.2500 358.2500 Du        
   2916 ****       121.7500 246.2500 358.5000 Du        
   2917 ****       121.7500 246.2500 358.7500 Du        
   2918 ****       121.7500 246.2500 359.0000 Du        
   2919 ****       121.7500 246.2500 359.2500 Du        
   2920 ****       121.7500 246.2500 359.5000 Du        
   2921 ****       121.7500 246.5000 358.7500 Du        
   2922 ****       121.7500 246.5000 359.0000 Du        
   2923 ****       121.7500 246.5000 359.2500 Du        
   2924 ****       121.7500 246.5000 359.5000 Du        
   2925 ****       121.7500 246.7500 359.0000 Du        
   2926 ****       121.7500 246.7500 359.2500 Du        
   2927 ****       121.7500 246.7500 359.5000 Du        
   2928 ****       121.7500 246.7500 359.7500 Du        
   2929 ****       121.7500 247.0000 359.0000 Du        
   2930 ****       121.7500 247.0000 359.2500 Du        
   2931 ****       121.7500 247.0000 359.5000 Du        
   2932 ****       121.7500 247.2500 359.0000 Du        
   2933 ****       121.7500 251.0000 359.0000 Du        
   2934 ****       121.7500 251.2500 359.0000 Du        
   2935 ****       121.7500 251.2500 359.2500 Du        
   2936 ****       121.7500 251.5000 359.2500 Du        
   2937 ****       121.7500 251.7500 359.2500 Du        
   2938 ****       121.7500 252.0000 359.2500 Du        
   2939 ****       121.7500 252.0000 359.5000 Du        
   2940 ****       121.7500 252.2500 359.2500 Du        
   2941 ****       121.7500 252.2500 359.5000 Du        
   2942 ****       121.7500 252.5000 359.2500 Du        
   2943 ****       121.7500 252.5000 359.5000 Du        
   2944 ****       121.7500 252.7500 359.2500 Du        
   2945 ****       121.7500 252.7500 359.5000 Du        
   2946 ****       121.7500 253.0000 359.2500 Du        
   2947 ****       121.7500 253.0000 359.5000 Du        
   2948 ****       122.0000 244.5000 354.2500 Du        
   2949 ****       122.0000 244.5000 354.5000 Du        
   2950 ****       122.0000 244.5000 354.7500 Du        
   2951 ****       122.0000 244.5000 355.0000 Du        
   2952 ****       122.0000 244.5000 355.2500 Du        
   2953 ****       122.0000 244.5000 357.5000 Du        
   2954 ****       122.0000 244.5000 357.7500 Du        
   2955 ****       122.0000 244.5000 358.0000 Du        
   2956 ****       122.0000 244.7500 354.2500 Du        
   2957 ****       122.0000 244.7500 354.5000 Du        
   2958 ****       122.0000 244.7500 354.7500 Du        
   2959 ****       122.0000 244.7500 355.0000 Du        
   2960 ****       122.0000 244.7500 355.2500 Du        
   2961 ****       122.0000 244.7500 355.5000 Du        
   2962 ****       122.0000 244.7500 355.7500 Du        
   2963 ****       122.0000 244.7500 356.0000 Du        
   2964 ****       122.0000 244.7500 356.2500 Du        
   2965 ****       122.0000 244.7500 356.5000 Du        
   2966 ****       122.0000 244.7500 356.7500 Du        
   2967 ****       122.0000 244.7500 357.0000 Du        
   2968 ****       122.0000 244.7500 357.2500 Du        
   2969 ****       122.0000 244.7500 357.5000 Du        
   2970 ****       122.0000 244.7500 357.7500 Du        
   2971 ****       122.0000 244.7500 358.0000 Du        
   2972 ****       122.0000 244.7500 358.2500 Du        
   2973 ****       122.0000 244.7500 358.5000 Du        
   2974 ****       122.0000 244.7500 358.7500 Du        
   2975 ****       122.0000 244.7500 359.0000 Du        
   2976 ****       122.0000 245.0000 354.5000 Du        
   2977 ****       122.0000 245.0000 354.7500 Du        
   2978 ****       122.0000 245.0000 355.0000 Du        
   2979 ****       122.0000 245.0000 355.2500 Du        
   2980 ****       122.0000 245.0000 355.7500 Du        
   2981 ****       122.0000 245.0000 356.0000 Du        
   2982 ****       122.0000 245.0000 356.2500 Du        
   2983 ****       122.0000 245.0000 356.5000 Du        
   2984 ****       122.0000 245.0000 356.7500 Du        
   2985 ****       122.0000 245.0000 357.0000 Du        
   2986 ****       122.0000 245.0000 357.2500 Du        
   2987 ****       122.0000 245.0000 357.5000 Du        
   2988 ****       122.0000 245.0000 357.7500 Du        
   2989 ****       122.0000 245.0000 358.0000 Du        
   2990 ****       122.0000 245.0000 358.2500 Du        
   2991 ****       122.0000 245.0000 358.5000 Du        
   2992 ****       122.0000 245.0000 358.7500 Du        
   2993 ****       122.0000 245.0000 359.0000 Du        
   2994 ****       122.0000 245.0000 359.2500 Du        
   2995 ****       122.0000 245.2500 356.5000 Du        
   2996 ****       122.0000 245.2500 356.7500 Du        
   2997 ****       122.0000 245.2500 357.0000 Du        
   2998 ****       122.0000 245.2500 357.2500 Du        
   2999 ****       122.0000 245.2500 357.5000 Du        
   3000 ****       122.0000 245.2500 357.7500 Du        
   3001 ****       122.0000 245.2500 358.0000 Du        
   3002 ****       122.0000 245.2500 358.2500 Du        
   3003 ****       122.0000 245.2500 358.5000 Du        
   3004 ****       122.0000 245.2500 358.7500 Du        
   3005 ****       122.0000 245.2500 359.0000 Du        
   3006 ****       122.0000 245.2500 359.2500 Du        
   3007 ****       122.0000 245.5000 357.0000 Du        
   3008 ****       122.0000 245.5000 357.2500 Du        
   3009 ****       122.0000 245.5000 357.5000 Du        
   3010 ****       122.0000 245.5000 357.7500 Du        
   3011 ****       122.0000 245.5000 358.0000 Du        
   3012 ****       122.0000 245.5000 358.2500 Du        
   3013 ****       122.0000 245.5000 358.5000 Du        
   3014 ****       122.0000 245.5000 358.7500 Du        
   3015 ****       122.0000 245.5000 359.0000 Du        
   3016 ****       122.0000 245.5000 359.2500 Du        
   3017 ****       122.0000 245.7500 357.2500 Du        
   3018 ****       122.0000 245.7500 357.5000 Du        
   3019 ****       122.0000 245.7500 357.7500 Du        
   3020 ****       122.0000 245.7500 358.0000 Du        
   3021 ****       122.0000 245.7500 358.2500 Du        
   3022 ****       122.0000 245.7500 358.5000 Du        
   3023 ****       122.0000 245.7500 358.7500 Du        
   3024 ****       122.0000 245.7500 359.0000 Du        
   3025 ****       122.0000 245.7500 359.2500 Du        
   3026 ****       122.0000 246.0000 357.7500 Du        
   3027 ****       122.0000 246.0000 358.0000 Du        
   3028 ****       122.0000 246.0000 358.2500 Du        
   3029 ****       122.0000 246.0000 358.5000 Du        
   3030 ****       122.0000 246.0000 358.7500 Du        
   3031 ****       122.0000 246.0000 359.0000 Du        
   3032 ****       122.0000 246.0000 359.2500 Du        
   3033 ****       122.0000 246.2500 358.0000 Du        
   3034 ****       122.0000 246.2500 358.2500 Du        
   3035 ****       122.0000 246.2500 358.5000 Du        
   3036 ****       122.0000 246.2500 358.7500 Du        
   3037 ****       122.0000 246.2500 359.0000 Du        
   3038 ****       122.0000 246.2500 359.2500 Du        
   3039 ****       122.0000 246.2500 359.5000 Du        
   3040 ****       122.0000 246.5000 358.7500 Du        
   3041 ****       122.0000 246.5000 359.0000 Du        
   3042 ****       122.0000 246.5000 359.2500 Du        
   3043 ****       122.0000 246.5000 359.5000 Du        
   3044 ****       122.0000 246.7500 358.7500 Du        
   3045 ****       122.0000 246.7500 359.0000 Du        
   3046 ****       122.0000 246.7500 359.2500 Du        
   3047 ****       122.0000 246.7500 359.5000 Du        
   3048 ****       122.0000 247.0000 359.0000 Du        
   3049 ****       122.0000 247.0000 359.2500 Du        
   3050 ****       122.0000 247.0000 359.5000 Du        
   3051 ****       122.0000 247.0000 359.7500 Du        
   3052 ****       122.0000 247.2500 359.0000 Du        
   3053 ****       122.0000 247.2500 359.2500 Du        
   3054 ****       122.0000 247.2500 359.5000 Du        
   3055 ****       122.0000 250.2500 358.5000 Du        
   3056 ****       122.0000 250.2500 358.7500 Du        
   3057 ****       122.0000 250.5000 358.7500 Du        
   3058 ****       122.0000 250.5000 359.0000 Du        
   3059 ****       122.0000 250.7500 358.7500 Du        
   3060 ****       122.0000 250.7500 359.0000 Du        
   3061 ****       122.0000 251.0000 358.7500 Du        
   3062 ****       122.0000 251.0000 359.0000 Du        
   3063 ****       122.0000 251.0000 359.2500 Du        
   3064 ****       122.0000 251.2500 359.0000 Du        
   3065 ****       122.0000 251.2500 359.2500 Du        
   3066 ****       122.0000 251.5000 359.0000 Du        
   3067 ****       122.0000 251.5000 359.2500 Du        
   3068 ****       122.0000 251.5000 359.5000 Du        
   3069 ****       122.0000 251.7500 359.0000 Du        
   3070 ****       122.0000 251.7500 359.2500 Du        
   3071 ****       122.0000 251.7500 359.5000 Du        
   3072 ****       122.0000 252.0000 359.0000 Du        
   3073 ****       122.0000 252.0000 359.2500 Du        
   3074 ****       122.0000 252.0000 359.5000 Du        
   3075 ****       122.0000 252.0000 359.7500 Du        
   3076 ****       122.0000 252.2500 359.0000 Du        
   3077 ****       122.0000 252.2500 359.2500 Du        
   3078 ****       122.0000 252.2500 359.5000 Du        
   3079 ****       122.0000 252.2500 359.7500 Du        
   3080 ****       122.0000 252.5000 359.0000 Du        
   3081 ****       122.0000 252.5000 359.2500 Du        
   3082 ****       122.0000 252.5000 359.5000 Du        
   3083 ****       122.0000 252.5000 359.7500 Du        
   3084 ****       122.0000 252.7500 359.0000 Du        
   3085 ****       122.0000 252.7500 359.2500 Du        
   3086 ****       122.0000 252.7500 359.5000 Du        
   3087 ****       122.0000 252.7500 359.7500 Du        
   3088 ****       122.0000 253.0000 359.0000 Du        
   3089 ****       122.0000 253.0000 359.2500 Du        
   3090 ****       122.0000 253.0000 359.5000 Du        
   3091 ****       122.0000 253.0000 359.7500 Du        
   3092 ****       122.0000 253.2500 359.2500 Du        
   3093 ****       122.0000 253.2500 359.5000 Du        
   3094 ****       122.2500 244.2500 354.5000 Du        
   3095 ****       122.2500 244.2500 354.7500 Du        
   3096 ****       122.2500 244.2500 355.0000 Du        
   3097 ****       122.2500 244.2500 355.2500 Du        
   3098 ****       122.2500 244.2500 357.2500 Du        
   3099 ****       122.2500 244.2500 357.5000 Du        
   3100 ****       122.2500 244.2500 357.7500 Du        
   3101 ****       122.2500 244.5000 354.2500 Du        
   3102 ****       122.2500 244.5000 354.5000 Du        
   3103 ****       122.2500 244.5000 354.7500 Du        
   3104 ****       122.2500 244.5000 355.0000 Du        
   3105 ****       122.2500 244.5000 355.2500 Du        
   3106 ****       122.2500 244.5000 355.5000 Du        
   3107 ****       122.2500 244.5000 355.7500 Du        
   3108 ****       122.2500 244.5000 356.0000 Du        
   3109 ****       122.2500 244.5000 356.2500 Du        
   3110 ****       122.2500 244.5000 356.5000 Du        
   3111 ****       122.2500 244.5000 356.7500 Du        
   3112 ****       122.2500 244.5000 357.0000 Du        
   3113 ****       122.2500 244.5000 357.2500 Du        
   3114 ****       122.2500 244.5000 357.5000 Du        
   3115 ****       122.2500 244.5000 357.7500 Du        
   3116 ****       122.2500 244.5000 358.0000 Du        
   3117 ****       122.2500 244.5000 358.2500 Du        
   3118 ****       122.2500 244.5000 358.5000 Du        
   3119 ****       122.2500 244.7500 354.2500 Du        
   3120 ****       122.2500 244.7500 354.5000 Du        
   3121 ****       122.2500 244.7500 354.7500 Du        
   3122 ****       122.2500 244.7500 355.0000 Du        
   3123 ****       122.2500 244.7500 355.2500 Du        
   3124 ****       122.2500 244.7500 355.5000 Du        
   3125 ****       122.2500 244.7500 355.7500 Du        
   3126 ****       122.2500 244.7500 356.0000 Du        
   3127 ****       122.2500 244.7500 356.2500 Du        
   3128 ****       122.2500 244.7500 356.5000 Du        
   3129 ****       122.2500 244.7500 356.7500 Du        
   3130 ****       122.2500 244.7500 357.0000 Du        
   3131 ****       122.2500 244.7500 357.2500 Du        
   3132 ****       122.2500 244.7500 357.5000 Du        
   3133 ****       122.2500 244.7500 357.7500 Du        
   3134 ****       122.2500 244.7500 358.0000 Du        
   3135 ****       122.2500 244.7500 358.2500 Du        
   3136 ****       122.2500 244.7500 358.5000 Du        
   3137 ****       122.2500 244.7500 358.7500 Du        
   3138 ****       122.2500 244.7500 359.0000 Du        
   3139 ****       122.2500 245.0000 354.2500 Du        
   3140 ****       122.2500 245.0000 354.5000 Du        
   3141 ****       122.2500 245.0000 354.7500 Du        
   3142 ****       122.2500 245.0000 355.0000 Du        
   3143 ****       122.2500 245.0000 355.2500 Du        
   3144 ****       122.2500 245.0000 355.5000 Du        
   3145 ****       122.2500 245.0000 355.7500 Du        
   3146 ****       122.2500 245.0000 356.0000 Du        
   3147 ****       122.2500 245.0000 356.2500 Du        
   3148 ****       122.2500 245.0000 356.5000 Du        
   3149 ****       122.2500 245.0000 356.7500 Du        
   3150 ****       122.2500 245.0000 357.0000 Du        
   3151 ****       122.2500 245.0000 357.2500 Du        
   3152 ****       122.2500 245.0000 357.5000 Du        
   3153 ****       122.2500 245.0000 357.7500 Du        
   3154 ****       122.2500 245.0000 358.0000 Du        
   3155 ****       122.2500 245.0000 358.2500 Du        
   3156 ****       122.2500 245.0000 358.5000 Du        
   3157 ****       122.2500 245.0000 358.7500 Du        
   3158 ****       122.2500 245.0000 359.0000 Du        
   3159 ****       122.2500 245.2500 354.7500 Du        
   3160 ****       122.2500 245.2500 355.0000 Du        
   3161 ****       122.2500 245.2500 355.2500 Du        
   3162 ****       122.2500 245.2500 356.0000 Du        
   3163 ****       122.2500 245.2500 356.2500 Du        
   3164 ****       122.2500 245.2500 356.5000 Du        
   3165 ****       122.2500 245.2500 356.7500 Du        
   3166 ****       122.2500 245.2500 357.0000 Du        
   3167 ****       122.2500 245.2500 357.2500 Du        
   3168 ****       122.2500 245.2500 357.5000 Du        
   3169 ****       122.2500 245.2500 357.7500 Du        
   3170 ****       122.2500 245.2500 358.0000 Du        
   3171 ****       122.2500 245.2500 358.2500 Du        
   3172 ****       122.2500 245.2500 358.5000 Du        
   3173 ****       122.2500 245.2500 358.7500 Du        
   3174 ****       122.2500 245.2500 359.0000 Du        
   3175 ****       122.2500 245.2500 359.2500 Du        
   3176 ****       122.2500 245.5000 356.7500 Du        
   3177 ****       122.2500 245.5000 357.0000 Du        
   3178 ****       122.2500 245.5000 357.2500 Du        
   3179 ****       122.2500 245.5000 357.5000 Du        
   3180 ****       122.2500 245.5000 357.7500 Du        
   3181 ****       122.2500 245.5000 358.0000 Du        
   3182 ****       122.2500 245.5000 358.2500 Du        
   3183 ****       122.2500 245.5000 358.5000 Du        
   3184 ****       122.2500 245.5000 358.7500 Du        
   3185 ****       122.2500 245.5000 359.0000 Du        
   3186 ****       122.2500 245.5000 359.2500 Du        
   3187 ****       122.2500 245.7500 357.2500 Du        
   3188 ****       122.2500 245.7500 357.5000 Du        
   3189 ****       122.2500 245.7500 357.7500 Du        
   3190 ****       122.2500 245.7500 358.0000 Du        
   3191 ****       122.2500 245.7500 358.2500 Du        
   3192 ****       122.2500 245.7500 358.5000 Du        
   3193 ****       122.2500 245.7500 358.7500 Du        
   3194 ****       122.2500 245.7500 359.0000 Du        
   3195 ****       122.2500 245.7500 359.2500 Du        
   3196 ****       122.2500 246.0000 357.7500 Du        
   3197 ****       122.2500 246.0000 358.0000 Du        
   3198 ****       122.2500 246.0000 358.2500 Du        
   3199 ****       122.2500 246.0000 358.5000 Du        
   3200 ****       122.2500 246.0000 358.7500 Du        
   3201 ****       122.2500 246.0000 359.0000 Du        
   3202 ****       122.2500 246.0000 359.2500 Du        
   3203 ****       122.2500 246.2500 358.0000 Du        
   3204 ****       122.2500 246.2500 358.2500 Du        
   3205 ****       122.2500 246.2500 358.5000 Du        
   3206 ****       122.2500 246.2500 358.7500 Du        
   3207 ****       122.2500 246.2500 359.0000 Du        
   3208 ****       122.2500 246.2500 359.2500 Du        
   3209 ****       122.2500 246.5000 358.7500 Du        
   3210 ****       122.2500 246.5000 359.0000 Du        
   3211 ****       122.2500 246.7500 358.7500 Du        
   3212 ****       122.2500 246.7500 359.0000 Du        
   3213 ****       122.2500 246.7500 359.2500 Du        
   3214 ****       122.2500 246.7500 359.5000 Du        
   3215 ****       122.2500 247.0000 359.0000 Du        
   3216 ****       122.2500 247.0000 359.2500 Du        
   3217 ****       122.2500 247.0000 359.5000 Du        
   3218 ****       122.2500 247.2500 358.7500 Du        
   3219 ****       122.2500 247.2500 359.0000 Du        
   3220 ****       122.2500 247.2500 359.5000 Du        
   3221 ****       122.2500 250.0000 358.5000 Du        
   3222 ****       122.2500 250.2500 358.5000 Du        
   3223 ****       122.2500 250.2500 358.7500 Du        
   3224 ****       122.2500 250.2500 359.0000 Du        
   3225 ****       122.2500 250.5000 358.5000 Du        
   3226 ****       122.2500 250.5000 358.7500 Du        
   3227 ****       122.2500 250.5000 359.0000 Du        
   3228 ****       122.2500 250.7500 358.5000 Du        
   3229 ****       122.2500 250.7500 358.7500 Du        
   3230 ****       122.2500 250.7500 359.0000 Du        
   3231 ****       122.2500 250.7500 359.2500 Du        
   3232 ****       122.2500 251.0000 358.7500 Du        
   3233 ****       122.2500 251.0000 359.0000 Du        
   3234 ****       122.2500 251.0000 359.2500 Du        
   3235 ****       122.2500 251.0000 359.5000 Du        
   3236 ****       122.2500 251.2500 358.7500 Du        
   3237 ****       122.2500 251.2500 359.0000 Du        
   3238 ****       122.2500 251.2500 359.2500 Du        
   3239 ****       122.2500 251.2500 359.5000 Du        
   3240 ****       122.2500 251.5000 358.7500 Du        
   3241 ****       122.2500 251.5000 359.0000 Du        
   3242 ****       122.2500 251.5000 359.2500 Du        
   3243 ****       122.2500 251.5000 359.5000 Du        
   3244 ****       122.2500 251.5000 359.7500 Du        
   3245 ****       122.2500 251.7500 358.7500 Du        
   3246 ****       122.2500 251.7500 359.0000 Du        
   3247 ****       122.2500 251.7500 359.2500 Du        
   3248 ****       122.2500 251.7500 359.5000 Du        
   3249 ****       122.2500 251.7500 359.7500 Du        
   3250 ****       122.2500 252.0000 359.0000 Du        
   3251 ****       122.2500 252.0000 359.2500 Du        
   3252 ****       122.2500 252.0000 359.5000 Du        
   3253 ****       122.2500 252.0000 359.7500 Du        
   3254 ****       122.2500 252.2500 359.0000 Du        
   3255 ****       122.2500 252.2500 359.2500 Du        
   3256 ****       122.2500 252.2500 359.5000 Du        
   3257 ****       122.2500 252.2500 359.7500 Du        
   3258 ****       122.2500 252.5000 359.0000 Du        
   3259 ****       122.2500 252.5000 359.2500 Du        
   3260 ****       122.2500 252.5000 359.5000 Du        
   3261 ****       122.2500 252.5000 359.7500 Du        
   3262 ****       122.2500 252.7500 359.0000 Du        
   3263 ****       122.2500 252.7500 359.2500 Du        
   3264 ****       122.2500 252.7500 359.5000 Du        
   3265 ****       122.2500 252.7500 359.7500 Du        
   3266 ****       122.2500 253.0000 359.0000 Du        
   3267 ****       122.2500 253.0000 359.2500 Du        
   3268 ****       122.2500 253.0000 359.5000 Du        
   3269 ****       122.2500 253.0000 359.7500 Du        
   3270 ****       122.2500 253.2500 359.0000 Du        
   3271 ****       122.2500 253.2500 359.2500 Du        
   3272 ****       122.2500 253.2500 359.5000 Du        
   3273 ****       122.2500 253.5000 359.2500 Du        
   3274 ****       122.2500 253.5000 359.5000 Du        
   3275 ****       122.5000 244.0000 357.2500 Du        
   3276 ****       122.5000 244.0000 357.5000 Du        
   3277 ****       122.5000 244.0000 357.7500 Du        
   3278 ****       122.5000 244.0000 358.0000 Du        
   3279 ****       122.5000 244.2500 354.7500 Du        
   3280 ****       122.5000 244.2500 355.0000 Du        
   3281 ****       122.5000 244.2500 355.2500 Du        
   3282 ****       122.5000 244.2500 355.5000 Du        
   3283 ****       122.5000 244.2500 355.7500 Du        
   3284 ****       122.5000 244.2500 356.0000 Du        
   3285 ****       122.5000 244.2500 356.2500 Du        
   3286 ****       122.5000 244.2500 356.5000 Du        
   3287 ****       122.5000 244.2500 356.7500 Du        
   3288 ****       122.5000 244.2500 357.0000 Du        
   3289 ****       122.5000 244.2500 357.2500 Du        
   3290 ****       122.5000 244.2500 357.5000 Du        
   3291 ****       122.5000 244.2500 357.7500 Du        
   3292 ****       122.5000 244.2500 358.0000 Du        
   3293 ****       122.5000 244.2500 358.2500 Du        
   3294 ****       122.5000 244.2500 358.5000 Du        
   3295 ****       122.5000 244.5000 354.2500 Du        
   3296 ****       122.5000 244.5000 354.5000 Du        
   3297 ****       122.5000 244.5000 354.7500 Du        
   3298 ****       122.5000 244.5000 355.0000 Du        
   3299 ****       122.5000 244.5000 355.2500 Du        
   3300 ****       122.5000 244.5000 355.5000 Du        
   3301 ****       122.5000 244.5000 355.7500 Du        
   3302 ****       122.5000 244.5000 356.0000 Du        
   3303 ****       122.5000 244.5000 356.2500 Du        
   3304 ****       122.5000 244.5000 356.5000 Du        
   3305 ****       122.5000 244.5000 356.7500 Du        
   3306 ****       122.5000 244.5000 357.0000 Du        
   3307 ****       122.5000 244.5000 357.2500 Du        
   3308 ****       122.5000 244.5000 357.5000 Du        
   3309 ****       122.5000 244.5000 357.7500 Du        
   3310 ****       122.5000 244.5000 358.0000 Du        
   3311 ****       122.5000 244.5000 358.2500 Du        
   3312 ****       122.5000 244.5000 358.5000 Du        
   3313 ****       122.5000 244.5000 358.7500 Du        
   3314 ****       122.5000 244.7500 354.2500 Du        
   3315 ****       122.5000 244.7500 354.5000 Du        
   3316 ****       122.5000 244.7500 354.7500 Du        
   3317 ****       122.5000 244.7500 355.0000 Du        
   3318 ****       122.5000 244.7500 355.2500 Du        
   3319 ****       122.5000 244.7500 355.5000 Du        
   3320 ****       122.5000 244.7500 355.7500 Du        
   3321 ****       122.5000 244.7500 356.0000 Du        
   3322 ****       122.5000 244.7500 356.2500 Du        
   3323 ****       122.5000 244.7500 356.5000 Du        
   3324 ****       122.5000 244.7500 356.7500 Du        
   3325 ****       122.5000 244.7500 357.0000 Du        
   3326 ****       122.5000 244.7500 357.2500 Du        
   3327 ****       122.5000 244.7500 357.5000 Du        
   3328 ****       122.5000 244.7500 357.7500 Du        
   3329 ****       122.5000 244.7500 358.0000 Du        
   3330 ****       122.5000 244.7500 358.2500 Du        
   3331 ****       122.5000 244.7500 358.5000 Du        
   3332 ****       122.5000 244.7500 358.7500 Du        
   3333 ****       122.5000 244.7500 359.0000 Du        
   3334 ****       122.5000 245.0000 354.0000 Du        
   3335 ****       122.5000 245.0000 354.2500 Du        
   3336 ****       122.5000 245.0000 354.5000 Du        
   3337 ****       122.5000 245.0000 354.7500 Du        
   3338 ****       122.5000 245.0000 355.0000 Du        
   3339 ****       122.5000 245.0000 355.2500 Du        
   3340 ****       122.5000 245.0000 355.5000 Du        
   3341 ****       122.5000 245.0000 355.7500 Du        
   3342 ****       122.5000 245.0000 356.0000 Du        
   3343 ****       122.5000 245.0000 356.2500 Du        
   3344 ****       122.5000 245.0000 356.5000 Du        
   3345 ****       122.5000 245.0000 356.7500 Du        
   3346 ****       122.5000 245.0000 357.0000 Du        
   3347 ****       122.5000 245.0000 357.2500 Du        
   3348 ****       122.5000 245.0000 357.5000 Du        
   3349 ****       122.5000 245.0000 357.7500 Du        
   3350 ****       122.5000 245.0000 358.0000 Du        
   3351 ****       122.5000 245.0000 358.2500 Du        
   3352 ****       122.5000 245.0000 358.5000 Du        
   3353 ****       122.5000 245.0000 358.7500 Du        
   3354 ****       122.5000 245.0000 359.0000 Du        
   3355 ****       122.5000 245.2500 354.0000 Du        
   3356 ****       122.5000 245.2500 354.2500 Du        
   3357 ****       122.5000 245.2500 354.5000 Du        
   3358 ****       122.5000 245.2500 354.7500 Du        
   3359 ****       122.5000 245.2500 355.0000 Du        
   3360 ****       122.5000 245.2500 355.2500 Du        
   3361 ****       122.5000 245.2500 355.5000 Du        
   3362 ****       122.5000 245.2500 355.7500 Du        
   3363 ****       122.5000 245.2500 356.0000 Du        
   3364 ****       122.5000 245.2500 356.2500 Du        
   3365 ****       122.5000 245.2500 356.5000 Du        
   3366 ****       122.5000 245.2500 356.7500 Du        
   3367 ****       122.5000 245.2500 357.0000 Du        
   3368 ****       122.5000 245.2500 357.2500 Du        
   3369 ****       122.5000 245.2500 357.5000 Du        
   3370 ****       122.5000 245.2500 357.7500 Du        
   3371 ****       122.5000 245.2500 358.0000 Du        
   3372 ****       122.5000 245.2500 358.2500 Du        
   3373 ****       122.5000 245.2500 358.5000 Du        
   3374 ****       122.5000 245.2500 358.7500 Du        
   3375 ****       122.5000 245.2500 359.0000 Du        
   3376 ****       122.5000 245.5000 356.5000 Du        
   3377 ****       122.5000 245.5000 356.7500 Du        
   3378 ****       122.5000 245.5000 357.0000 Du        
   3379 ****       122.5000 245.5000 357.2500 Du        
   3380 ****       122.5000 245.5000 357.5000 Du        
   3381 ****       122.5000 245.5000 357.7500 Du        
   3382 ****       122.5000 245.5000 358.0000 Du        
   3383 ****       122.5000 245.5000 358.2500 Du        
   3384 ****       122.5000 245.5000 358.5000 Du        
   3385 ****       122.5000 245.5000 358.7500 Du        
   3386 ****       122.5000 245.5000 359.0000 Du        
   3387 ****       122.5000 245.7500 357.2500 Du        
   3388 ****       122.5000 245.7500 357.5000 Du        
   3389 ****       122.5000 245.7500 357.7500 Du        
   3390 ****       122.5000 245.7500 358.0000 Du        
   3391 ****       122.5000 245.7500 358.2500 Du        
   3392 ****       122.5000 245.7500 358.5000 Du        
   3393 ****       122.5000 245.7500 358.7500 Du        
   3394 ****       122.5000 245.7500 359.0000 Du        
   3395 ****       122.5000 246.0000 357.7500 Du        
   3396 ****       122.5000 246.0000 358.0000 Du        
   3397 ****       122.5000 246.0000 358.2500 Du        
   3398 ****       122.5000 246.0000 358.5000 Du        
   3399 ****       122.5000 246.0000 358.7500 Du        
   3400 ****       122.5000 246.0000 359.0000 Du        
   3401 ****       122.5000 246.2500 358.0000 Du        
   3402 ****       122.5000 246.2500 358.2500 Du        
   3403 ****       122.5000 246.2500 358.5000 Du        
   3404 ****       122.5000 246.2500 358.7500 Du        
   3405 ****       122.5000 246.2500 359.0000 Du        
   3406 ****       122.5000 247.2500 359.5000 Du        
   3407 ****       122.5000 249.7500 358.7500 Du        
   3408 ****       122.5000 250.0000 358.7500 Du        
   3409 ****       122.5000 250.0000 359.0000 Du        
   3410 ****       122.5000 250.2500 358.7500 Du        
   3411 ****       122.5000 250.2500 359.0000 Du        
   3412 ****       122.5000 250.5000 358.7500 Du        
   3413 ****       122.5000 250.5000 359.0000 Du        
   3414 ****       122.5000 250.5000 359.2500 Du        
   3415 ****       122.5000 250.7500 358.7500 Du        
   3416 ****       122.5000 250.7500 359.0000 Du        
   3417 ****       122.5000 250.7500 359.2500 Du        
   3418 ****       122.5000 250.7500 359.5000 Du        
   3419 ****       122.5000 251.0000 358.7500 Du        
   3420 ****       122.5000 251.0000 359.0000 Du        
   3421 ****       122.5000 251.0000 359.2500 Du        
   3422 ****       122.5000 251.0000 359.5000 Du        
   3423 ****       122.5000 251.2500 358.7500 Du        
   3424 ****       122.5000 251.2500 359.0000 Du        
   3425 ****       122.5000 251.2500 359.2500 Du        
   3426 ****       122.5000 251.2500 359.5000 Du        
   3427 ****       122.5000 251.2500 359.7500 Du        
   3428 ****       122.5000 251.5000 358.7500 Du        
   3429 ****       122.5000 251.5000 359.0000 Du        
   3430 ****       122.5000 251.5000 359.2500 Du        
   3431 ****       122.5000 251.5000 359.5000 Du        
   3432 ****       122.5000 251.5000 359.7500 Du        
   3433 ****       122.5000 251.7500 358.7500 Du        
   3434 ****       122.5000 251.7500 359.0000 Du        
   3435 ****       122.5000 251.7500 359.2500 Du        
   3436 ****       122.5000 251.7500 359.5000 Du        
   3437 ****       122.5000 251.7500 359.7500 Du        
   3438 ****       122.5000 252.0000 358.7500 Du        
   3439 ****       122.5000 252.0000 359.0000 Du        
   3440 ****       122.5000 252.0000 359.2500 Du        
   3441 ****       122.5000 252.0000 359.5000 Du        
   3442 ****       122.5000 252.0000 359.7500 Du        
   3443 ****       122.5000 252.2500 358.7500 Du        
   3444 ****       122.5000 252.2500 359.0000 Du        
   3445 ****       122.5000 252.2500 359.2500 Du        
   3446 ****       122.5000 252.2500 359.5000 Du        
   3447 ****       122.5000 252.2500 359.7500 Du        
   3448 ****       122.5000 252.5000 358.7500 Du        
   3449 ****       122.5000 252.5000 359.0000 Du        
   3450 ****       122.5000 252.5000 359.2500 Du        
   3451 ****       122.5000 252.5000 359.5000 Du        
   3452 ****       122.5000 252.5000 359.7500 Du        
   3453 ****       122.5000 252.7500 358.7500 Du        
   3454 ****       122.5000 252.7500 359.0000 Du        
   3455 ****       122.5000 252.7500 359.2500 Du        
   3456 ****       122.5000 252.7500 359.5000 Du        
   3457 ****       122.5000 252.7500 359.7500 Du        
   3458 ****       122.5000 253.0000 358.7500 Du        
   3459 ****       122.5000 253.0000 359.0000 Du        
   3460 ****       122.5000 253.0000 359.2500 Du        
   3461 ****       122.5000 253.0000 359.5000 Du        
   3462 ****       122.5000 253.2500 359.0000 Du        
   3463 ****       122.5000 253.2500 359.2500 Du        
   3464 ****       122.5000 253.2500 359.5000 Du        
   3465 ****       122.5000 253.5000 359.0000 Du        
   3466 ****       122.5000 253.5000 359.2500 Du        
   3467 ****       122.5000 253.7500 359.2500 Du        
   3468 ****       122.7500 243.7500 357.0000 Du        
   3469 ****       122.7500 243.7500 357.2500 Du        
   3470 ****       122.7500 243.7500 357.5000 Du        
   3471 ****       122.7500 243.7500 357.7500 Du        
   3472 ****       122.7500 243.7500 358.0000 Du        
   3473 ****       122.7500 244.0000 355.0000 Du        
   3474 ****       122.7500 244.0000 355.2500 Du        
   3475 ****       122.7500 244.0000 355.5000 Du        
   3476 ****       122.7500 244.0000 355.7500 Du        
   3477 ****       122.7500 244.0000 356.0000 Du        
   3478 ****       122.7500 244.0000 356.2500 Du        
   3479 ****       122.7500 244.0000 356.5000 Du        
   3480 ****       122.7500 244.0000 356.7500 Du        
   3481 ****       122.7500 244.0000 357.0000 Du        
   3482 ****       122.7500 244.0000 357.2500 Du        
   3483 ****       122.7500 244.0000 357.5000 Du        
   3484 ****       122.7500 244.0000 357.7500 Du        
   3485 ****       122.7500 244.0000 358.0000 Du        
   3486 ****       122.7500 244.0000 358.2500 Du        
   3487 ****       122.7500 244.0000 358.5000 Du        
   3488 ****       122.7500 244.2500 354.7500 Du        
   3489 ****       122.7500 244.2500 355.0000 Du        
   3490 ****       122.7500 244.2500 355.2500 Du        
   3491 ****       122.7500 244.2500 355.5000 Du        
   3492 ****       122.7500 244.2500 355.7500 Du        
   3493 ****       122.7500 244.2500 356.0000 Du        
   3494 ****       122.7500 244.2500 356.2500 Du        
   3495 ****       122.7500 244.2500 356.5000 Du        
   3496 ****       122.7500 244.2500 356.7500 Du        
   3497 ****       122.7500 244.2500 357.0000 Du        
   3498 ****       122.7500 244.2500 357.2500 Du        
   3499 ****       122.7500 244.2500 357.5000 Du        
   3500 ****       122.7500 244.2500 357.7500 Du        
   3501 ****       122.7500 244.2500 358.0000 Du        
   3502 ****       122.7500 244.2500 358.2500 Du        
   3503 ****       122.7500 244.2500 358.5000 Du        
   3504 ****       122.7500 244.2500 358.7500 Du        
   3505 ****       122.7500 244.5000 354.5000 Du        
   3506 ****       122.7500 244.5000 354.7500 Du        
   3507 ****       122.7500 244.5000 355.0000 Du        
   3508 ****       122.7500 244.5000 355.2500 Du        
   3509 ****       122.7500 244.5000 355.5000 Du        
   3510 ****       122.7500 244.5000 355.7500 Du        
   3511 ****       122.7500 244.5000 356.0000 Du        
   3512 ****       122.7500 244.5000 356.2500 Du        
   3513 ****       122.7500 244.5000 356.5000 Du        
   3514 ****       122.7500 244.5000 356.7500 Du        
   3515 ****       122.7500 244.5000 357.0000 Du        
   3516 ****       122.7500 244.5000 357.2500 Du        
   3517 ****       122.7500 244.5000 357.5000 Du        
   3518 ****       122.7500 244.5000 357.7500 Du        
   3519 ****       122.7500 244.5000 358.0000 Du        
   3520 ****       122.7500 244.5000 358.2500 Du        
   3521 ****       122.7500 244.5000 358.5000 Du        
   3522 ****       122.7500 244.5000 358.7500 Du        
   3523 ****       122.7500 244.7500 354.2500 Du        
   3524 ****       122.7500 244.7500 354.5000 Du        
   3525 ****       122.7500 244.7500 354.7500 Du        
   3526 ****       122.7500 244.7500 355.0000 Du        
   3527 ****       122.7500 244.7500 355.2500 Du        
   3528 ****       122.7500 244.7500 355.5000 Du        
   3529 ****       122.7500 244.7500 355.7500 Du        
   3530 ****       122.7500 244.7500 356.0000 Du        
   3531 ****       122.7500 244.7500 356.2500 Du        
   3532 ****       122.7500 244.7500 356.5000 Du        
   3533 ****       122.7500 244.7500 356.7500 Du        
   3534 ****       122.7500 244.7500 357.0000 Du        
   3535 ****       122.7500 244.7500 357.2500 Du        
   3536 ****       122.7500 244.7500 357.5000 Du        
   3537 ****       122.7500 244.7500 357.7500 Du        
   3538 ****       122.7500 244.7500 358.0000 Du        
   3539 ****       122.7500 244.7500 358.2500 Du        
   3540 ****       122.7500 244.7500 358.5000 Du        
   3541 ****       122.7500 244.7500 358.7500 Du        
   3542 ****       122.7500 244.7500 359.0000 Du        
   3543 ****       122.7500 245.0000 354.0000 Du        
   3544 ****       122.7500 245.0000 354.2500 Du        
   3545 ****       122.7500 245.0000 354.5000 Du        
   3546 ****       122.7500 245.0000 354.7500 Du        
   3547 ****       122.7500 245.0000 355.0000 Du        
   3548 ****       122.7500 245.0000 355.2500 Du        
   3549 ****       122.7500 245.0000 355.5000 Du        
   3550 ****       122.7500 245.0000 355.7500 Du        
   3551 ****       122.7500 245.0000 356.0000 Du        
   3552 ****       122.7500 245.0000 356.2500 Du        
   3553 ****       122.7500 245.0000 356.5000 Du        
   3554 ****       122.7500 245.0000 356.7500 Du        
   3555 ****       122.7500 245.0000 357.0000 Du        
   3556 ****       122.7500 245.0000 357.2500 Du        
   3557 ****       122.7500 245.0000 357.5000 Du        
   3558 ****       122.7500 245.0000 357.7500 Du        
   3559 ****       122.7500 245.0000 358.0000 Du        
   3560 ****       122.7500 245.0000 358.2500 Du        
   3561 ****       122.7500 245.0000 358.5000 Du        
   3562 ****       122.7500 245.0000 358.7500 Du        
   3563 ****       122.7500 245.0000 359.0000 Du        
   3564 ****       122.7500 245.2500 354.0000 Du        
   3565 ****       122.7500 245.2500 354.2500 Du        
   3566 ****       122.7500 245.2500 354.5000 Du        
   3567 ****       122.7500 245.2500 354.7500 Du        
   3568 ****       122.7500 245.2500 355.0000 Du        
   3569 ****       122.7500 245.2500 355.2500 Du        
   3570 ****       122.7500 245.2500 355.5000 Du        
   3571 ****       122.7500 245.2500 355.7500 Du        
   3572 ****       122.7500 245.2500 356.0000 Du        
   3573 ****       122.7500 245.2500 356.2500 Du        
   3574 ****       122.7500 245.2500 356.5000 Du        
   3575 ****       122.7500 245.2500 356.7500 Du        
   3576 ****       122.7500 245.2500 357.0000 Du        
   3577 ****       122.7500 245.2500 357.2500 Du        
   3578 ****       122.7500 245.2500 357.5000 Du        
   3579 ****       122.7500 245.2500 357.7500 Du        
   3580 ****       122.7500 245.2500 358.0000 Du        
   3581 ****       122.7500 245.2500 358.2500 Du        
   3582 ****       122.7500 245.2500 358.5000 Du        
   3583 ****       122.7500 245.2500 358.7500 Du        
   3584 ****       122.7500 245.2500 359.0000 Du        
   3585 ****       122.7500 245.5000 354.0000 Du        
   3586 ****       122.7500 245.5000 354.2500 Du        
   3587 ****       122.7500 245.5000 354.5000 Du        
   3588 ****       122.7500 245.5000 354.7500 Du        
   3589 ****       122.7500 245.5000 355.0000 Du        
   3590 ****       122.7500 245.5000 355.2500 Du        
   3591 ****       122.7500 245.5000 355.5000 Du        
   3592 ****       122.7500 245.5000 355.7500 Du        
   3593 ****       122.7500 245.5000 356.0000 Du        
   3594 ****       122.7500 245.5000 356.2500 Du        
   3595 ****       122.7500 245.5000 356.5000 Du        
   3596 ****       122.7500 245.5000 356.7500 Du        
   3597 ****       122.7500 245.5000 357.0000 Du        
   3598 ****       122.7500 245.5000 357.2500 Du        
   3599 ****       122.7500 245.5000 357.5000 Du        
   3600 ****       122.7500 245.5000 357.7500 Du        
   3601 ****       122.7500 245.5000 358.0000 Du        
   3602 ****       122.7500 245.5000 358.2500 Du        
   3603 ****       122.7500 245.5000 358.5000 Du        
   3604 ****       122.7500 245.5000 358.7500 Du        
   3605 ****       122.7500 245.5000 359.0000 Du        
   3606 ****       122.7500 245.7500 353.7500 Du        
   3607 ****       122.7500 245.7500 354.0000 Du        
   3608 ****       122.7500 245.7500 354.2500 Du        
   3609 ****       122.7500 245.7500 354.5000 Du        
   3610 ****       122.7500 245.7500 354.7500 Du        
   3611 ****       122.7500 245.7500 357.0000 Du        
   3612 ****       122.7500 245.7500 357.2500 Du        
   3613 ****       122.7500 245.7500 357.5000 Du        
   3614 ****       122.7500 245.7500 357.7500 Du        
   3615 ****       122.7500 245.7500 358.0000 Du        
   3616 ****       122.7500 245.7500 358.2500 Du        
   3617 ****       122.7500 245.7500 358.5000 Du        
   3618 ****       122.7500 245.7500 358.7500 Du        
   3619 ****       122.7500 245.7500 359.0000 Du        
   3620 ****       122.7500 246.0000 357.2500 Du        
   3621 ****       122.7500 246.0000 357.7500 Du        
   3622 ****       122.7500 246.0000 358.0000 Du        
   3623 ****       122.7500 246.0000 358.2500 Du        
   3624 ****       122.7500 246.0000 358.5000 Du        
   3625 ****       122.7500 246.0000 358.7500 Du        
   3626 ****       122.7500 246.0000 359.0000 Du        
   3627 ****       122.7500 246.2500 357.7500 Du        
   3628 ****       122.7500 246.2500 358.0000 Du        
   3629 ****       122.7500 246.2500 358.2500 Du        
   3630 ****       122.7500 246.2500 358.5000 Du        
   3631 ****       122.7500 246.2500 358.7500 Du        
   3632 ****       122.7500 246.2500 359.0000 Du        
   3633 ****       122.7500 250.0000 358.7500 Du        
   3634 ****       122.7500 250.0000 359.0000 Du        
   3635 ****       122.7500 250.2500 358.7500 Du        
   3636 ****       122.7500 250.2500 359.0000 Du        
   3637 ****       122.7500 250.2500 359.2500 Du        
   3638 ****       122.7500 250.5000 358.7500 Du        
   3639 ****       122.7500 250.5000 359.0000 Du        
   3640 ****       122.7500 250.5000 359.2500 Du        
   3641 ****       122.7500 250.5000 359.5000 Du        
   3642 ****       122.7500 250.5000 359.7500 Du        
   3643 ****       122.7500 250.7500 358.7500 Du        
   3644 ****       122.7500 250.7500 359.0000 Du        
   3645 ****       122.7500 250.7500 359.2500 Du        
   3646 ****       122.7500 250.7500 359.5000 Du        
   3647 ****       122.7500 250.7500 359.7500 Du        
   3648 ****       122.7500 250.7500 360.0000 Du        
   3649 ****       122.7500 251.0000 358.7500 Du        
   3650 ****       122.7500 251.0000 359.0000 Du        
   3651 ****       122.7500 251.0000 359.2500 Du        
   3652 ****       122.7500 251.0000 359.5000 Du        
   3653 ****       122.7500 251.0000 359.7500 Du        
   3654 ****       122.7500 251.0000 360.0000 Du        
   3655 ****       122.7500 251.2500 358.7500 Du        
   3656 ****       122.7500 251.2500 359.0000 Du        
   3657 ****       122.7500 251.2500 359.2500 Du        
   3658 ****       122.7500 251.2500 359.5000 Du        
   3659 ****       122.7500 251.2500 359.7500 Du        
   3660 ****       122.7500 251.2500 360.0000 Du        
   3661 ****       122.7500 251.5000 358.7500 Du        
   3662 ****       122.7500 251.5000 359.0000 Du        
   3663 ****       122.7500 251.5000 359.2500 Du        
   3664 ****       122.7500 251.5000 359.5000 Du        
   3665 ****       122.7500 251.5000 359.7500 Du        
   3666 ****       122.7500 251.5000 360.0000 Du        
   3667 ****       122.7500 251.7500 358.7500 Du        
   3668 ****       122.7500 251.7500 359.0000 Du        
   3669 ****       122.7500 251.7500 359.2500 Du        
   3670 ****       122.7500 251.7500 359.5000 Du        
   3671 ****       122.7500 251.7500 359.7500 Du        
   3672 ****       122.7500 251.7500 360.0000 Du        
   3673 ****       122.7500 252.0000 358.7500 Du        
   3674 ****       122.7500 252.0000 359.0000 Du        
   3675 ****       122.7500 252.0000 359.2500 Du        
   3676 ****       122.7500 252.0000 359.5000 Du        
   3677 ****       122.7500 252.0000 359.7500 Du        
   3678 ****       122.7500 252.0000 360.0000 Du        
   3679 ****       122.7500 252.2500 358.7500 Du        
   3680 ****       122.7500 252.2500 359.0000 Du        
   3681 ****       122.7500 252.2500 359.2500 Du        
   3682 ****       122.7500 252.2500 359.5000 Du        
   3683 ****       122.7500 252.2500 359.7500 Du        
   3684 ****       122.7500 252.5000 358.7500 Du        
   3685 ****       122.7500 252.5000 359.0000 Du        
   3686 ****       122.7500 252.5000 359.2500 Du        
   3687 ****       122.7500 252.5000 359.5000 Du        
   3688 ****       122.7500 252.5000 359.7500 Du        
   3689 ****       122.7500 252.7500 358.7500 Du        
   3690 ****       122.7500 252.7500 359.0000 Du        
   3691 ****       122.7500 252.7500 359.2500 Du        
   3692 ****       122.7500 252.7500 359.5000 Du        
   3693 ****       122.7500 253.0000 358.7500 Du        
   3694 ****       122.7500 253.0000 359.0000 Du        
   3695 ****       122.7500 253.0000 359.2500 Du        
   3696 ****       122.7500 253.0000 359.5000 Du        
   3697 ****       122.7500 253.2500 358.7500 Du        
   3698 ****       122.7500 253.2500 359.0000 Du        
   3699 ****       122.7500 253.2500 359.2500 Du        
   3700 ****       122.7500 253.5000 358.7500 Du        
   3701 ****       122.7500 253.5000 359.0000 Du        
   3702 ****       122.7500 253.5000 359.2500 Du        
   3703 ****       122.7500 253.7500 359.0000 Du        
   3704 ****       122.7500 253.7500 359.2500 Du        
   3705 ****       123.0000 243.5000 357.2500 Du        
   3706 ****       123.0000 243.5000 357.5000 Du        
   3707 ****       123.0000 243.5000 357.7500 Du        
   3708 ****       123.0000 243.5000 358.0000 Du        
   3709 ****       123.0000 243.7500 355.5000 Du        
   3710 ****       123.0000 243.7500 355.7500 Du        
   3711 ****       123.0000 243.7500 356.0000 Du        
   3712 ****       123.0000 243.7500 356.2500 Du        
   3713 ****       123.0000 243.7500 356.5000 Du        
   3714 ****       123.0000 243.7500 356.7500 Du        
   3715 ****       123.0000 243.7500 357.0000 Du        
   3716 ****       123.0000 243.7500 357.2500 Du        
   3717 ****       123.0000 243.7500 357.5000 Du        
   3718 ****       123.0000 243.7500 357.7500 Du        
   3719 ****       123.0000 243.7500 358.0000 Du        
   3720 ****       123.0000 243.7500 358.2500 Du        
   3721 ****       123.0000 243.7500 358.5000 Du        
   3722 ****       123.0000 244.0000 355.0000 Du        
   3723 ****       123.0000 244.0000 355.2500 Du        
   3724 ****       123.0000 244.0000 355.5000 Du        
   3725 ****       123.0000 244.0000 355.7500 Du        
   3726 ****       123.0000 244.0000 356.0000 Du        
   3727 ****       123.0000 244.0000 356.2500 Du        
   3728 ****       123.0000 244.0000 356.5000 Du        
   3729 ****       123.0000 244.0000 356.7500 Du        
   3730 ****       123.0000 244.0000 357.0000 Du        
   3731 ****       123.0000 244.0000 357.2500 Du        
   3732 ****       123.0000 244.0000 357.5000 Du        
   3733 ****       123.0000 244.0000 357.7500 Du        
   3734 ****       123.0000 244.0000 358.0000 Du        
   3735 ****       123.0000 244.0000 358.2500 Du        
   3736 ****       123.0000 244.0000 358.5000 Du        
   3737 ****       123.0000 244.0000 358.7500 Du        
   3738 ****       123.0000 244.2500 354.7500 Du        
   3739 ****       123.0000 244.2500 355.0000 Du        
   3740 ****       123.0000 244.2500 355.2500 Du        
   3741 ****       123.0000 244.2500 355.5000 Du        
   3742 ****       123.0000 244.2500 355.7500 Du        
   3743 ****       123.0000 244.2500 356.0000 Du        
   3744 ****       123.0000 244.2500 356.2500 Du        
   3745 ****       123.0000 244.2500 356.5000 Du        
   3746 ****       123.0000 244.2500 356.7500 Du        
   3747 ****       123.0000 244.2500 357.0000 Du        
   3748 ****       123.0000 244.2500 357.2500 Du        
   3749 ****       123.0000 244.2500 357.5000 Du        
   3750 ****       123.0000 244.2500 357.7500 Du        
   3751 ****       123.0000 244.2500 358.0000 Du        
   3752 ****       123.0000 244.2500 358.2500 Du        
   3753 ****       123.0000 244.2500 358.5000 Du        
   3754 ****       123.0000 244.2500 358.7500 Du        
   3755 ****       123.0000 244.5000 354.5000 Du        
   3756 ****       123.0000 244.5000 354.7500 Du        
   3757 ****       123.0000 244.5000 355.0000 Du        
   3758 ****       123.0000 244.5000 355.2500 Du        
   3759 ****       123.0000 244.5000 355.5000 Du        
   3760 ****       123.0000 244.5000 355.7500 Du        
   3761 ****       123.0000 244.5000 356.0000 Du        
   3762 ****       123.0000 244.5000 356.2500 Du        
   3763 ****       123.0000 244.5000 356.5000 Du        
   3764 ****       123.0000 244.5000 356.7500 Du        
   3765 ****       123.0000 244.5000 357.0000 Du        
   3766 ****       123.0000 244.5000 357.2500 Du        
   3767 ****       123.0000 244.5000 357.5000 Du        
   3768 ****       123.0000 244.5000 357.7500 Du        
   3769 ****       123.0000 244.5000 358.0000 Du        
   3770 ****       123.0000 244.5000 358.2500 Du        
   3771 ****       123.0000 244.5000 358.5000 Du        
   3772 ****       123.0000 244.5000 358.7500 Du        
   3773 ****       123.0000 244.5000 359.0000 Du        
   3774 ****       123.0000 244.7500 354.2500 Du        
   3775 ****       123.0000 244.7500 354.5000 Du        
   3776 ****       123.0000 244.7500 354.7500 Du        
   3777 ****       123.0000 244.7500 355.0000 Du        
   3778 ****       123.0000 244.7500 355.2500 Du        
   3779 ****       123.0000 244.7500 355.5000 Du        
   3780 ****       123.0000 244.7500 355.7500 Du        
   3781 ****       123.0000 244.7500 356.0000 Du        
   3782 ****       123.0000 244.7500 356.2500 Du        
   3783 ****       123.0000 244.7500 356.5000 Du        
   3784 ****       123.0000 244.7500 356.7500 Du        
   3785 ****       123.0000 244.7500 357.0000 Du        
   3786 ****       123.0000 244.7500 357.2500 Du        
   3787 ****       123.0000 244.7500 357.5000 Du        
   3788 ****       123.0000 244.7500 357.7500 Du        
   3789 ****       123.0000 244.7500 358.0000 Du        
   3790 ****       123.0000 244.7500 358.2500 Du        
   3791 ****       123.0000 244.7500 358.5000 Du        
   3792 ****       123.0000 244.7500 358.7500 Du        
   3793 ****       123.0000 244.7500 359.0000 Du        
   3794 ****       123.0000 245.0000 354.2500 Du        
   3795 ****       123.0000 245.0000 354.5000 Du        
   3796 ****       123.0000 245.0000 354.7500 Du        
   3797 ****       123.0000 245.0000 355.0000 Du        
   3798 ****       123.0000 245.0000 355.2500 Du        
   3799 ****       123.0000 245.0000 355.5000 Du        
   3800 ****       123.0000 245.0000 355.7500 Du        
   3801 ****       123.0000 245.0000 356.0000 Du        
   3802 ****       123.0000 245.0000 356.2500 Du        
   3803 ****       123.0000 245.0000 356.5000 Du        
   3804 ****       123.0000 245.0000 356.7500 Du        
   3805 ****       123.0000 245.0000 357.0000 Du        
   3806 ****       123.0000 245.0000 357.2500 Du        
   3807 ****       123.0000 245.0000 357.5000 Du        
   3808 ****       123.0000 245.0000 357.7500 Du        
   3809 ****       123.0000 245.0000 358.0000 Du        
   3810 ****       123.0000 245.0000 358.2500 Du        
   3811 ****       123.0000 245.0000 358.5000 Du        
   3812 ****       123.0000 245.0000 358.7500 Du        
   3813 ****       123.0000 245.0000 359.0000 Du        
   3814 ****       123.0000 245.2500 354.0000 Du        
   3815 ****       123.0000 245.2500 354.2500 Du        
   3816 ****       123.0000 245.2500 354.5000 Du        
   3817 ****       123.0000 245.2500 354.7500 Du        
   3818 ****       123.0000 245.2500 355.0000 Du        
   3819 ****       123.0000 245.2500 355.2500 Du        
   3820 ****       123.0000 245.2500 355.5000 Du        
   3821 ****       123.0000 245.2500 355.7500 Du        
   3822 ****       123.0000 245.2500 356.0000 Du        
   3823 ****       123.0000 245.2500 356.2500 Du        
   3824 ****       123.0000 245.2500 356.5000 Du        
   3825 ****       123.0000 245.2500 356.7500 Du        
   3826 ****       123.0000 245.2500 357.0000 Du        
   3827 ****       123.0000 245.2500 357.2500 Du        
   3828 ****       123.0000 245.2500 357.5000 Du        
   3829 ****       123.0000 245.2500 357.7500 Du        
   3830 ****       123.0000 245.2500 358.0000 Du        
   3831 ****       123.0000 245.2500 358.2500 Du        
   3832 ****       123.0000 245.2500 358.5000 Du        
   3833 ****       123.0000 245.2500 358.7500 Du        
   3834 ****       123.0000 245.2500 359.0000 Du        
   3835 ****       123.0000 245.5000 353.7500 Du        
   3836 ****       123.0000 245.5000 354.0000 Du        
   3837 ****       123.0000 245.5000 354.2500 Du        
   3838 ****       123.0000 245.5000 354.5000 Du        
   3839 ****       123.0000 245.5000 354.7500 Du        
   3840 ****       123.0000 245.5000 355.0000 Du        
   3841 ****       123.0000 245.5000 355.2500 Du        
   3842 ****       123.0000 245.5000 355.5000 Du        
   3843 ****       123.0000 245.5000 355.7500 Du        
   3844 ****       123.0000 245.5000 356.0000 Du        
   3845 ****       123.0000 245.5000 356.2500 Du        
   3846 ****       123.0000 245.5000 356.5000 Du        
   3847 ****       123.0000 245.5000 356.7500 Du        
   3848 ****       123.0000 245.5000 357.0000 Du        
   3849 ****       123.0000 245.5000 357.2500 Du        
   3850 ****       123.0000 245.5000 357.5000 Du        
   3851 ****       123.0000 245.5000 357.7500 Du        
   3852 ****       123.0000 245.5000 358.0000 Du        
   3853 ****       123.0000 245.5000 358.2500 Du        
   3854 ****       123.0000 245.5000 358.5000 Du        
   3855 ****       123.0000 245.5000 358.7500 Du        
   3856 ****       123.0000 245.5000 359.0000 Du        
   3857 ****       123.0000 245.7500 353.7500 Du        
   3858 ****       123.0000 245.7500 354.0000 Du        
   3859 ****       123.0000 245.7500 354.2500 Du        
   3860 ****       123.0000 245.7500 354.5000 Du        
   3861 ****       123.0000 245.7500 354.7500 Du        
   3862 ****       123.0000 245.7500 355.0000 Du        
   3863 ****       123.0000 245.7500 355.2500 Du        
   3864 ****       123.0000 245.7500 355.5000 Du        
   3865 ****       123.0000 245.7500 355.7500 Du        
   3866 ****       123.0000 245.7500 356.0000 Du        
   3867 ****       123.0000 245.7500 356.5000 Du        
   3868 ****       123.0000 245.7500 356.7500 Du        
   3869 ****       123.0000 245.7500 357.0000 Du        
   3870 ****       123.0000 245.7500 357.2500 Du        
   3871 ****       123.0000 245.7500 357.5000 Du        
   3872 ****       123.0000 245.7500 357.7500 Du        
   3873 ****       123.0000 245.7500 358.0000 Du        
   3874 ****       123.0000 245.7500 358.2500 Du        
   3875 ****       123.0000 245.7500 358.5000 Du        
   3876 ****       123.0000 245.7500 358.7500 Du        
   3877 ****       123.0000 245.7500 359.0000 Du        
   3878 ****       123.0000 246.0000 353.5000 Du        
   3879 ****       123.0000 246.0000 353.7500 Du        
   3880 ****       123.0000 246.0000 354.0000 Du        
   3881 ****       123.0000 246.0000 354.2500 Du        
   3882 ****       123.0000 246.0000 354.5000 Du        
   3883 ****       123.0000 246.0000 354.7500 Du        
   3884 ****       123.0000 246.0000 357.0000 Du        
   3885 ****       123.0000 246.0000 357.2500 Du        
   3886 ****       123.0000 246.0000 357.7500 Du        
   3887 ****       123.0000 246.0000 358.0000 Du        
   3888 ****       123.0000 246.0000 358.2500 Du        
   3889 ****       123.0000 246.0000 358.5000 Du        
   3890 ****       123.0000 246.0000 358.7500 Du        
   3891 ****       123.0000 246.0000 359.0000 Du        
   3892 ****       123.0000 246.2500 353.5000 Du        
   3893 ****       123.0000 246.2500 353.7500 Du        
   3894 ****       123.0000 246.2500 354.0000 Du        
   3895 ****       123.0000 246.2500 357.7500 Du        
   3896 ****       123.0000 246.2500 358.0000 Du        
   3897 ****       123.0000 246.2500 358.2500 Du        
   3898 ****       123.0000 246.2500 358.5000 Du        
   3899 ****       123.0000 246.2500 358.7500 Du        
   3900 ****       123.0000 246.2500 359.0000 Du        
   3901 ****       123.0000 248.0000 359.0000 Du        
   3902 ****       123.0000 248.0000 359.2500 Du        
   3903 ****       123.0000 248.5000 359.0000 Du        
   3904 ****       123.0000 248.7500 359.0000 Du        
   3905 ****       123.0000 248.7500 359.2500 Du        
   3906 ****       123.0000 248.7500 359.5000 Du        
   3907 ****       123.0000 249.0000 359.0000 Du        
   3908 ****       123.0000 249.0000 359.2500 Du        
   3909 ****       123.0000 249.0000 359.5000 Du        
   3910 ****       123.0000 249.0000 359.7500 Du        
   3911 ****       123.0000 249.2500 359.2500 Du        
   3912 ****       123.0000 249.2500 359.5000 Du        
   3913 ****       123.0000 249.5000 359.2500 Du        
   3914 ****       123.0000 249.5000 359.5000 Du        
   3915 ****       123.0000 249.7500 358.7500 Du        
   3916 ****       123.0000 249.7500 359.0000 Du        
   3917 ****       123.0000 249.7500 359.2500 Du        
   3918 ****       123.0000 249.7500 359.5000 Du        
   3919 ****       123.0000 249.7500 359.7500 Du        
   3920 ****       123.0000 250.0000 358.7500 Du        
   3921 ****       123.0000 250.0000 359.0000 Du        
   3922 ****       123.0000 250.0000 359.2500 Du        
   3923 ****       123.0000 250.0000 359.5000 Du        
   3924 ****       123.0000 250.0000 359.7500 Du        
   3925 ****       123.0000 250.2500 359.0000 Du        
   3926 ****       123.0000 250.2500 359.2500 Du        
   3927 ****       123.0000 250.2500 359.5000 Du        
   3928 ****       123.0000 250.2500 359.7500 Du        
   3929 ****       123.0000 250.2500 360.0000 Du        
   3930 ****       123.0000 250.5000 359.0000 Du        
   3931 ****       123.0000 250.5000 359.2500 Du        
   3932 ****       123.0000 250.5000 359.5000 Du        
   3933 ****       123.0000 250.5000 359.7500 Du        
   3934 ****       123.0000 250.5000 360.0000 Du        
   3935 ****       123.0000 250.5000 360.2500 Du        
   3936 ****       123.0000 250.7500 358.7500 Du        
   3937 ****       123.0000 250.7500 359.0000 Du        
   3938 ****       123.0000 250.7500 359.2500 Du        
   3939 ****       123.0000 250.7500 359.5000 Du        
   3940 ****       123.0000 250.7500 359.7500 Du        
   3941 ****       123.0000 250.7500 360.0000 Du        
   3942 ****       123.0000 250.7500 360.2500 Du        
   3943 ****       123.0000 251.0000 358.7500 Du        
   3944 ****       123.0000 251.0000 359.0000 Du        
   3945 ****       123.0000 251.0000 359.2500 Du        
   3946 ****       123.0000 251.0000 359.5000 Du        
   3947 ****       123.0000 251.0000 359.7500 Du        
   3948 ****       123.0000 251.0000 360.0000 Du        
   3949 ****       123.0000 251.0000 360.2500 Du        
   3950 ****       123.0000 251.2500 358.7500 Du        
   3951 ****       123.0000 251.2500 359.0000 Du        
   3952 ****       123.0000 251.2500 359.2500 Du        
   3953 ****       123.0000 251.2500 359.5000 Du        
   3954 ****       123.0000 251.2500 359.7500 Du        
   3955 ****       123.0000 251.2500 360.0000 Du        
   3956 ****       123.0000 251.2500 360.2500 Du        
   3957 ****       123.0000 251.5000 358.7500 Du        
   3958 ****       123.0000 251.5000 359.0000 Du        
   3959 ****       123.0000 251.5000 359.2500 Du        
   3960 ****       123.0000 251.5000 359.5000 Du        
   3961 ****       123.0000 251.5000 359.7500 Du        
   3962 ****       123.0000 251.5000 360.0000 Du        
   3963 ****       123.0000 251.7500 358.5000 Du        
   3964 ****       123.0000 251.7500 358.7500 Du        
   3965 ****       123.0000 251.7500 359.0000 Du        
   3966 ****       123.0000 251.7500 359.2500 Du        
   3967 ****       123.0000 251.7500 359.5000 Du        
   3968 ****       123.0000 251.7500 359.7500 Du        
   3969 ****       123.0000 251.7500 360.0000 Du        
   3970 ****       123.0000 252.0000 358.5000 Du        
   3971 ****       123.0000 252.0000 358.7500 Du        
   3972 ****       123.0000 252.0000 359.0000 Du        
   3973 ****       123.0000 252.0000 359.2500 Du        
   3974 ****       123.0000 252.0000 359.5000 Du        
   3975 ****       123.0000 252.0000 359.7500 Du        
   3976 ****       123.0000 252.2500 358.5000 Du        
   3977 ****       123.0000 252.2500 358.7500 Du        
   3978 ****       123.0000 252.2500 359.0000 Du        
   3979 ****       123.0000 252.2500 359.2500 Du        
   3980 ****       123.0000 252.2500 359.5000 Du        
   3981 ****       123.0000 252.2500 359.7500 Du        
   3982 ****       123.0000 252.5000 358.5000 Du        
   3983 ****       123.0000 252.5000 358.7500 Du        
   3984 ****       123.0000 252.5000 359.0000 Du        
   3985 ****       123.0000 252.5000 359.2500 Du        
   3986 ****       123.0000 252.5000 359.5000 Du        
   3987 ****       123.0000 252.7500 358.5000 Du        
   3988 ****       123.0000 252.7500 358.7500 Du        
   3989 ****       123.0000 252.7500 359.0000 Du        
   3990 ****       123.0000 252.7500 359.2500 Du        
   3991 ****       123.0000 253.0000 358.5000 Du        
   3992 ****       123.0000 253.0000 358.7500 Du        
   3993 ****       123.0000 253.0000 359.0000 Du        
   3994 ****       123.0000 253.2500 358.7500 Du        
   3995 ****       123.0000 253.2500 359.0000 Du        
   3996 ****       123.0000 253.5000 358.7500 Du        
   3997 ****       123.0000 253.5000 359.0000 Du        
   3998 ****       123.0000 253.7500 358.7500 Du        
   3999 ****       123.0000 253.7500 359.0000 Du        
   4000 ****       123.2500 243.5000 357.2500 Du        
   4001 ****       123.2500 243.5000 357.5000 Du        
   4002 ****       123.2500 243.5000 357.7500 Du        
   4003 ****       123.2500 243.5000 358.0000 Du        
   4004 ****       123.2500 243.5000 358.2500 Du        
   4005 ****       123.2500 243.7500 355.5000 Du        
   4006 ****       123.2500 243.7500 355.7500 Du        
   4007 ****       123.2500 243.7500 356.0000 Du        
   4008 ****       123.2500 243.7500 356.2500 Du        
   4009 ****       123.2500 243.7500 356.5000 Du        
   4010 ****       123.2500 243.7500 356.7500 Du        
   4011 ****       123.2500 243.7500 357.0000 Du        
   4012 ****       123.2500 243.7500 357.2500 Du        
   4013 ****       123.2500 243.7500 357.5000 Du        
   4014 ****       123.2500 243.7500 357.7500 Du        
   4015 ****       123.2500 243.7500 358.0000 Du        
   4016 ****       123.2500 243.7500 358.2500 Du        
   4017 ****       123.2500 243.7500 358.5000 Du        
   4018 ****       123.2500 243.7500 358.7500 Du        
   4019 ****       123.2500 244.0000 355.2500 Du        
   4020 ****       123.2500 244.0000 355.5000 Du        
   4021 ****       123.2500 244.0000 355.7500 Du        
   4022 ****       123.2500 244.0000 356.0000 Du        
   4023 ****       123.2500 244.0000 356.2500 Du        
   4024 ****       123.2500 244.0000 356.5000 Du        
   4025 ****       123.2500 244.0000 356.7500 Du        
   4026 ****       123.2500 244.0000 357.0000 Du        
   4027 ****       123.2500 244.0000 357.2500 Du        
   4028 ****       123.2500 244.0000 357.5000 Du        
   4029 ****       123.2500 244.0000 357.7500 Du        
   4030 ****       123.2500 244.0000 358.0000 Du        
   4031 ****       123.2500 244.0000 358.2500 Du        
   4032 ****       123.2500 244.0000 358.5000 Du        
   4033 ****       123.2500 244.0000 358.7500 Du        
   4034 ****       123.2500 244.2500 355.0000 Du        
   4035 ****       123.2500 244.2500 355.2500 Du        
   4036 ****       123.2500 244.2500 355.5000 Du        
   4037 ****       123.2500 244.2500 355.7500 Du        
   4038 ****       123.2500 244.2500 356.0000 Du        
   4039 ****       123.2500 244.2500 356.2500 Du        
   4040 ****       123.2500 244.2500 356.5000 Du        
   4041 ****       123.2500 244.2500 356.7500 Du        
   4042 ****       123.2500 244.2500 357.0000 Du        
   4043 ****       123.2500 244.2500 357.2500 Du        
   4044 ****       123.2500 244.2500 357.5000 Du        
   4045 ****       123.2500 244.2500 357.7500 Du        
   4046 ****       123.2500 244.2500 358.0000 Du        
   4047 ****       123.2500 244.2500 358.2500 Du        
   4048 ****       123.2500 244.2500 358.5000 Du        
   4049 ****       123.2500 244.2500 358.7500 Du        
   4050 ****       123.2500 244.2500 359.0000 Du        
   4051 ****       123.2500 244.5000 354.7500 Du        
   4052 ****       123.2500 244.5000 355.0000 Du        
   4053 ****       123.2500 244.5000 355.2500 Du        
   4054 ****       123.2500 244.5000 355.5000 Du        
   4055 ****       123.2500 244.5000 355.7500 Du        
   4056 ****       123.2500 244.5000 356.0000 Du        
   4057 ****       123.2500 244.5000 356.2500 Du        
   4058 ****       123.2500 244.5000 356.5000 Du        
   4059 ****       123.2500 244.5000 356.7500 Du        
   4060 ****       123.2500 244.5000 357.0000 Du        
   4061 ****       123.2500 244.5000 357.2500 Du        
   4062 ****       123.2500 244.5000 357.5000 Du        
   4063 ****       123.2500 244.5000 357.7500 Du        
   4064 ****       123.2500 244.5000 358.0000 Du        
   4065 ****       123.2500 244.5000 358.2500 Du        
   4066 ****       123.2500 244.5000 358.5000 Du        
   4067 ****       123.2500 244.5000 358.7500 Du        
   4068 ****       123.2500 244.5000 359.0000 Du        
   4069 ****       123.2500 244.7500 354.5000 Du        
   4070 ****       123.2500 244.7500 354.7500 Du        
   4071 ****       123.2500 244.7500 355.0000 Du        
   4072 ****       123.2500 244.7500 355.2500 Du        
   4073 ****       123.2500 244.7500 355.5000 Du        
   4074 ****       123.2500 244.7500 355.7500 Du        
   4075 ****       123.2500 244.7500 356.0000 Du        
   4076 ****       123.2500 244.7500 356.2500 Du        
   4077 ****       123.2500 244.7500 356.5000 Du        
   4078 ****       123.2500 244.7500 356.7500 Du        
   4079 ****       123.2500 244.7500 357.0000 Du        
   4080 ****       123.2500 244.7500 357.2500 Du        
   4081 ****       123.2500 244.7500 357.5000 Du        
   4082 ****       123.2500 244.7500 357.7500 Du        
   4083 ****       123.2500 244.7500 358.0000 Du        
   4084 ****       123.2500 244.7500 358.2500 Du        
   4085 ****       123.2500 244.7500 358.5000 Du        
   4086 ****       123.2500 244.7500 358.7500 Du        
   4087 ****       123.2500 244.7500 359.0000 Du        
   4088 ****       123.2500 245.0000 354.2500 Du        
   4089 ****       123.2500 245.0000 354.5000 Du        
   4090 ****       123.2500 245.0000 354.7500 Du        
   4091 ****       123.2500 245.0000 355.0000 Du        
   4092 ****       123.2500 245.0000 355.2500 Du        
   4093 ****       123.2500 245.0000 355.5000 Du        
   4094 ****       123.2500 245.0000 355.7500 Du        
   4095 ****       123.2500 245.0000 356.0000 Du        
   4096 ****       123.2500 245.0000 356.2500 Du        
   4097 ****       123.2500 245.0000 356.5000 Du        
   4098 ****       123.2500 245.0000 356.7500 Du        
   4099 ****       123.2500 245.0000 357.0000 Du        
   4100 ****       123.2500 245.0000 357.2500 Du        
   4101 ****       123.2500 245.0000 357.5000 Du        
   4102 ****       123.2500 245.0000 357.7500 Du        
   4103 ****       123.2500 245.0000 358.0000 Du        
   4104 ****       123.2500 245.0000 358.2500 Du        
   4105 ****       123.2500 245.0000 358.5000 Du        
   4106 ****       123.2500 245.0000 358.7500 Du        
   4107 ****       123.2500 245.0000 359.0000 Du        
   4108 ****       123.2500 245.2500 354.0000 Du        
   4109 ****       123.2500 245.2500 354.2500 Du        
   4110 ****       123.2500 245.2500 354.5000 Du        
   4111 ****       123.2500 245.2500 354.7500 Du        
   4112 ****       123.2500 245.2500 355.0000 Du        
   4113 ****       123.2500 245.2500 355.2500 Du        
   4114 ****       123.2500 245.2500 355.5000 Du        
   4115 ****       123.2500 245.2500 355.7500 Du        
   4116 ****       123.2500 245.2500 356.0000 Du        
   4117 ****       123.2500 245.2500 356.2500 Du        
   4118 ****       123.2500 245.2500 356.5000 Du        
   4119 ****       123.2500 245.2500 356.7500 Du        
   4120 ****       123.2500 245.2500 357.0000 Du        
   4121 ****       123.2500 245.2500 357.2500 Du        
   4122 ****       123.2500 245.2500 357.5000 Du        
   4123 ****       123.2500 245.2500 357.7500 Du        
   4124 ****       123.2500 245.2500 358.0000 Du        
   4125 ****       123.2500 245.2500 358.2500 Du        
   4126 ****       123.2500 245.2500 358.5000 Du        
   4127 ****       123.2500 245.2500 358.7500 Du        
   4128 ****       123.2500 245.2500 359.0000 Du        
   4129 ****       123.2500 245.5000 353.7500 Du        
   4130 ****       123.2500 245.5000 354.0000 Du        
   4131 ****       123.2500 245.5000 354.2500 Du        
   4132 ****       123.2500 245.5000 354.5000 Du        
   4133 ****       123.2500 245.5000 354.7500 Du        
   4134 ****       123.2500 245.5000 355.0000 Du        
   4135 ****       123.2500 245.5000 355.2500 Du        
   4136 ****       123.2500 245.5000 355.5000 Du        
   4137 ****       123.2500 245.5000 355.7500 Du        
   4138 ****       123.2500 245.5000 356.0000 Du        
   4139 ****       123.2500 245.5000 356.2500 Du        
   4140 ****       123.2500 245.5000 356.5000 Du        
   4141 ****       123.2500 245.5000 356.7500 Du        
   4142 ****       123.2500 245.5000 357.0000 Du        
   4143 ****       123.2500 245.5000 357.2500 Du        
   4144 ****       123.2500 245.5000 357.5000 Du        
   4145 ****       123.2500 245.5000 357.7500 Du        
   4146 ****       123.2500 245.5000 358.0000 Du        
   4147 ****       123.2500 245.5000 358.2500 Du        
   4148 ****       123.2500 245.5000 358.5000 Du        
   4149 ****       123.2500 245.5000 358.7500 Du        
   4150 ****       123.2500 245.5000 359.0000 Du        
   4151 ****       123.2500 245.7500 353.7500 Du        
   4152 ****       123.2500 245.7500 354.0000 Du        
   4153 ****       123.2500 245.7500 354.2500 Du        
   4154 ****       123.2500 245.7500 354.5000 Du        
   4155 ****       123.2500 245.7500 354.7500 Du        
   4156 ****       123.2500 245.7500 355.0000 Du        
   4157 ****       123.2500 245.7500 355.2500 Du        
   4158 ****       123.2500 245.7500 355.5000 Du        
   4159 ****       123.2500 245.7500 355.7500 Du        
   4160 ****       123.2500 245.7500 356.0000 Du        
   4161 ****       123.2500 245.7500 356.2500 Du        
   4162 ****       123.2500 245.7500 356.5000 Du        
   4163 ****       123.2500 245.7500 356.7500 Du        
   4164 ****       123.2500 245.7500 357.0000 Du        
   4165 ****       123.2500 245.7500 357.2500 Du        
   4166 ****       123.2500 245.7500 357.5000 Du        
   4167 ****       123.2500 245.7500 357.7500 Du        
   4168 ****       123.2500 245.7500 358.0000 Du        
   4169 ****       123.2500 245.7500 358.2500 Du        
   4170 ****       123.2500 245.7500 358.5000 Du        
   4171 ****       123.2500 245.7500 358.7500 Du        
   4172 ****       123.2500 245.7500 359.0000 Du        
   4173 ****       123.2500 246.0000 353.5000 Du        
   4174 ****       123.2500 246.0000 353.7500 Du        
   4175 ****       123.2500 246.0000 354.0000 Du        
   4176 ****       123.2500 246.0000 354.2500 Du        
   4177 ****       123.2500 246.0000 354.5000 Du        
   4178 ****       123.2500 246.0000 354.7500 Du        
   4179 ****       123.2500 246.0000 355.0000 Du        
   4180 ****       123.2500 246.0000 355.2500 Du        
   4181 ****       123.2500 246.0000 355.5000 Du        
   4182 ****       123.2500 246.0000 355.7500 Du        
   4183 ****       123.2500 246.0000 356.7500 Du        
   4184 ****       123.2500 246.0000 357.0000 Du        
   4185 ****       123.2500 246.0000 357.2500 Du        
   4186 ****       123.2500 246.0000 357.5000 Du        
   4187 ****       123.2500 246.0000 357.7500 Du        
   4188 ****       123.2500 246.0000 358.0000 Du        
   4189 ****       123.2500 246.0000 358.2500 Du        
   4190 ****       123.2500 246.0000 358.5000 Du        
   4191 ****       123.2500 246.0000 358.7500 Du        
   4192 ****       123.2500 246.0000 359.0000 Du        
   4193 ****       123.2500 246.2500 353.5000 Du        
   4194 ****       123.2500 246.2500 353.7500 Du        
   4195 ****       123.2500 246.2500 354.0000 Du        
   4196 ****       123.2500 246.2500 354.2500 Du        
   4197 ****       123.2500 246.2500 354.5000 Du        
   4198 ****       123.2500 246.2500 354.7500 Du        
   4199 ****       123.2500 246.2500 355.0000 Du        
   4200 ****       123.2500 246.2500 357.7500 Du        
   4201 ****       123.2500 246.2500 358.0000 Du        
   4202 ****       123.2500 246.2500 358.2500 Du        
   4203 ****       123.2500 246.2500 358.5000 Du        
   4204 ****       123.2500 246.2500 358.7500 Du        
   4205 ****       123.2500 246.2500 359.0000 Du        
   4206 ****       123.2500 246.5000 353.5000 Du        
   4207 ****       123.2500 246.5000 353.7500 Du        
   4208 ****       123.2500 246.5000 354.0000 Du        
   4209 ****       123.2500 246.5000 354.2500 Du        
   4210 ****       123.2500 246.7500 353.5000 Du        
   4211 ****       123.2500 246.7500 353.7500 Du        
   4212 ****       123.2500 246.7500 354.0000 Du        
   4213 ****       123.2500 247.7500 359.5000 Du        
   4214 ****       123.2500 248.0000 359.5000 Du        
   4215 ****       123.2500 248.2500 359.5000 Du        
   4216 ****       123.2500 248.2500 359.7500 Du        
   4217 ****       123.2500 248.5000 359.5000 Du        
   4218 ****       123.2500 248.5000 359.7500 Du        
   4219 ****       123.2500 248.7500 359.0000 Du        
   4220 ****       123.2500 248.7500 359.5000 Du        
   4221 ****       123.2500 248.7500 359.7500 Du        
   4222 ****       123.2500 249.0000 359.0000 Du        
   4223 ****       123.2500 249.0000 359.2500 Du        
   4224 ****       123.2500 249.0000 359.5000 Du        
   4225 ****       123.2500 249.0000 359.7500 Du        
   4226 ****       123.2500 249.0000 360.0000 Du        
   4227 ****       123.2500 249.2500 359.0000 Du        
   4228 ****       123.2500 249.2500 359.2500 Du        
   4229 ****       123.2500 249.2500 359.5000 Du        
   4230 ****       123.2500 249.2500 359.7500 Du        
   4231 ****       123.2500 249.2500 360.0000 Du        
   4232 ****       123.2500 249.5000 359.2500 Du        
   4233 ****       123.2500 249.5000 359.5000 Du        
   4234 ****       123.2500 249.5000 359.7500 Du        
   4235 ****       123.2500 249.5000 360.0000 Du        
   4236 ****       123.2500 249.7500 359.0000 Du        
   4237 ****       123.2500 249.7500 359.2500 Du        
   4238 ****       123.2500 249.7500 359.5000 Du        
   4239 ****       123.2500 249.7500 359.7500 Du        
   4240 ****       123.2500 249.7500 360.0000 Du        
   4241 ****       123.2500 249.7500 360.2500 Du        
   4242 ****       123.2500 250.0000 359.0000 Du        
   4243 ****       123.2500 250.0000 359.2500 Du        
   4244 ****       123.2500 250.0000 359.5000 Du        
   4245 ****       123.2500 250.0000 359.7500 Du        
   4246 ****       123.2500 250.0000 360.0000 Du        
   4247 ****       123.2500 250.0000 360.2500 Du        
   4248 ****       123.2500 250.2500 359.0000 Du        
   4249 ****       123.2500 250.2500 359.2500 Du        
   4250 ****       123.2500 250.2500 359.5000 Du        
   4251 ****       123.2500 250.2500 359.7500 Du        
   4252 ****       123.2500 250.2500 360.0000 Du        
   4253 ****       123.2500 250.2500 360.2500 Du        
   4254 ****       123.2500 250.2500 360.5000 Du        
   4255 ****       123.2500 250.5000 359.2500 Du        
   4256 ****       123.2500 250.5000 359.5000 Du        
   4257 ****       123.2500 250.5000 359.7500 Du        
   4258 ****       123.2500 250.5000 360.0000 Du        
   4259 ****       123.2500 250.5000 360.2500 Du        
   4260 ****       123.2500 250.5000 360.5000 Du        
   4261 ****       123.2500 250.5000 360.7500 Du        
   4262 ****       123.2500 250.7500 359.0000 Du        
   4263 ****       123.2500 250.7500 359.2500 Du        
   4264 ****       123.2500 250.7500 359.5000 Du        
   4265 ****       123.2500 250.7500 359.7500 Du        
   4266 ****       123.2500 250.7500 360.0000 Du        
   4267 ****       123.2500 250.7500 360.2500 Du        
   4268 ****       123.2500 250.7500 360.5000 Du        
   4269 ****       123.2500 251.0000 358.7500 Du        
   4270 ****       123.2500 251.0000 359.0000 Du        
   4271 ****       123.2500 251.0000 359.2500 Du        
   4272 ****       123.2500 251.0000 359.5000 Du        
   4273 ****       123.2500 251.0000 359.7500 Du        
   4274 ****       123.2500 251.0000 360.0000 Du        
   4275 ****       123.2500 251.0000 360.2500 Du        
   4276 ****       123.2500 251.0000 360.5000 Du        
   4277 ****       123.2500 251.2500 358.7500 Du        
   4278 ****       123.2500 251.2500 359.0000 Du        
   4279 ****       123.2500 251.2500 359.2500 Du        
   4280 ****       123.2500 251.2500 359.5000 Du        
   4281 ****       123.2500 251.2500 359.7500 Du        
   4282 ****       123.2500 251.2500 360.0000 Du        
   4283 ****       123.2500 251.2500 360.2500 Du        
   4284 ****       123.2500 251.2500 360.5000 Du        
   4285 ****       123.2500 251.5000 358.7500 Du        
   4286 ****       123.2500 251.5000 359.0000 Du        
   4287 ****       123.2500 251.5000 359.2500 Du        
   4288 ****       123.2500 251.5000 359.5000 Du        
   4289 ****       123.2500 251.5000 359.7500 Du        
   4290 ****       123.2500 251.5000 360.0000 Du        
   4291 ****       123.2500 251.5000 360.2500 Du        
   4292 ****       123.2500 251.7500 358.5000 Du        
   4293 ****       123.2500 251.7500 358.7500 Du        
   4294 ****       123.2500 251.7500 359.0000 Du        
   4295 ****       123.2500 251.7500 359.2500 Du        
   4296 ****       123.2500 251.7500 359.5000 Du        
   4297 ****       123.2500 251.7500 359.7500 Du        
   4298 ****       123.2500 251.7500 360.0000 Du        
   4299 ****       123.2500 252.0000 358.5000 Du        
   4300 ****       123.2500 252.0000 358.7500 Du        
   4301 ****       123.2500 252.0000 359.0000 Du        
   4302 ****       123.2500 252.0000 359.2500 Du        
   4303 ****       123.2500 252.0000 359.5000 Du        
   4304 ****       123.2500 252.0000 359.7500 Du        
   4305 ****       123.2500 252.2500 358.5000 Du        
   4306 ****       123.2500 252.2500 358.7500 Du        
   4307 ****       123.2500 252.2500 359.0000 Du        
   4308 ****       123.2500 252.2500 359.2500 Du        
   4309 ****       123.2500 252.5000 358.5000 Du        
   4310 ****       123.2500 252.5000 358.7500 Du        
   4311 ****       123.2500 252.5000 359.0000 Du        
   4312 ****       123.2500 252.7500 358.5000 Du        
   4313 ****       123.2500 253.0000 354.7500 Du        
   4314 ****       123.2500 253.0000 355.0000 Du        
   4315 ****       123.2500 253.0000 355.2500 Du        
   4316 ****       123.2500 253.0000 355.5000 Du        
   4317 ****       123.2500 253.0000 358.5000 Du        
   4318 ****       123.2500 253.2500 354.7500 Du        
   4319 ****       123.2500 253.2500 355.0000 Du        
   4320 ****       123.2500 253.2500 355.2500 Du        
   4321 ****       123.5000 243.5000 358.0000 Du        
   4322 ****       123.5000 243.5000 358.2500 Du        
   4323 ****       123.5000 243.5000 358.5000 Du        
   4324 ****       123.5000 243.7500 355.7500 Du        
   4325 ****       123.5000 243.7500 356.0000 Du        
   4326 ****       123.5000 243.7500 357.2500 Du        
   4327 ****       123.5000 243.7500 357.5000 Du        
   4328 ****       123.5000 243.7500 357.7500 Du        
   4329 ****       123.5000 243.7500 358.0000 Du        
   4330 ****       123.5000 243.7500 358.2500 Du        
   4331 ****       123.5000 243.7500 358.5000 Du        
   4332 ****       123.5000 243.7500 358.7500 Du        
   4333 ****       123.5000 244.0000 355.2500 Du        
   4334 ****       123.5000 244.0000 355.5000 Du        
   4335 ****       123.5000 244.0000 355.7500 Du        
   4336 ****       123.5000 244.0000 356.0000 Du        
   4337 ****       123.5000 244.0000 356.2500 Du        
   4338 ****       123.5000 244.0000 356.5000 Du        
   4339 ****       123.5000 244.0000 356.7500 Du        
   4340 ****       123.5000 244.0000 357.0000 Du        
   4341 ****       123.5000 244.0000 357.2500 Du        
   4342 ****       123.5000 244.0000 357.5000 Du        
   4343 ****       123.5000 244.0000 357.7500 Du        
   4344 ****       123.5000 244.0000 358.0000 Du        
   4345 ****       123.5000 244.0000 358.2500 Du        
   4346 ****       123.5000 244.0000 358.5000 Du        
   4347 ****       123.5000 244.0000 358.7500 Du        
   4348 ****       123.5000 244.0000 359.0000 Du        
   4349 ****       123.5000 244.2500 355.0000 Du        
   4350 ****       123.5000 244.2500 355.2500 Du        
   4351 ****       123.5000 244.2500 355.5000 Du        
   4352 ****       123.5000 244.2500 355.7500 Du        
   4353 ****       123.5000 244.2500 356.0000 Du        
   4354 ****       123.5000 244.2500 356.2500 Du        
   4355 ****       123.5000 244.2500 356.5000 Du        
   4356 ****       123.5000 244.2500 356.7500 Du        
   4357 ****       123.5000 244.2500 357.0000 Du        
   4358 ****       123.5000 244.2500 357.2500 Du        
   4359 ****       123.5000 244.2500 357.5000 Du        
   4360 ****       123.5000 244.2500 357.7500 Du        
   4361 ****       123.5000 244.2500 358.0000 Du        
   4362 ****       123.5000 244.2500 358.2500 Du        
   4363 ****       123.5000 244.2500 358.5000 Du        
   4364 ****       123.5000 244.2500 358.7500 Du        
   4365 ****       123.5000 244.2500 359.0000 Du        
   4366 ****       123.5000 244.5000 354.7500 Du        
   4367 ****       123.5000 244.5000 355.0000 Du        
   4368 ****       123.5000 244.5000 355.2500 Du        
   4369 ****       123.5000 244.5000 355.5000 Du        
   4370 ****       123.5000 244.5000 355.7500 Du        
   4371 ****       123.5000 244.5000 356.0000 Du        
   4372 ****       123.5000 244.5000 356.2500 Du        
   4373 ****       123.5000 244.5000 356.5000 Du        
   4374 ****       123.5000 244.5000 356.7500 Du        
   4375 ****       123.5000 244.5000 357.0000 Du        
   4376 ****       123.5000 244.5000 357.2500 Du        
   4377 ****       123.5000 244.5000 357.5000 Du        
   4378 ****       123.5000 244.5000 357.7500 Du        
   4379 ****       123.5000 244.5000 358.0000 Du        
   4380 ****       123.5000 244.5000 358.2500 Du        
   4381 ****       123.5000 244.5000 358.5000 Du        
   4382 ****       123.5000 244.5000 358.7500 Du        
   4383 ****       123.5000 244.5000 359.0000 Du        
   4384 ****       123.5000 244.7500 354.5000 Du        
   4385 ****       123.5000 244.7500 354.7500 Du        
   4386 ****       123.5000 244.7500 355.0000 Du        
   4387 ****       123.5000 244.7500 355.2500 Du        
   4388 ****       123.5000 244.7500 355.5000 Du        
   4389 ****       123.5000 244.7500 355.7500 Du        
   4390 ****       123.5000 244.7500 356.0000 Du        
   4391 ****       123.5000 244.7500 356.2500 Du        
   4392 ****       123.5000 244.7500 356.5000 Du        
   4393 ****       123.5000 244.7500 356.7500 Du        
   4394 ****       123.5000 244.7500 357.0000 Du        
   4395 ****       123.5000 244.7500 357.2500 Du        
   4396 ****       123.5000 244.7500 357.5000 Du        
   4397 ****       123.5000 244.7500 357.7500 Du        
   4398 ****       123.5000 244.7500 358.0000 Du        
   4399 ****       123.5000 244.7500 358.2500 Du        
   4400 ****       123.5000 244.7500 358.5000 Du        
   4401 ****       123.5000 244.7500 358.7500 Du        
   4402 ****       123.5000 244.7500 359.0000 Du        
   4403 ****       123.5000 245.0000 354.2500 Du        
   4404 ****       123.5000 245.0000 354.5000 Du        
   4405 ****       123.5000 245.0000 354.7500 Du        
   4406 ****       123.5000 245.0000 355.0000 Du        
   4407 ****       123.5000 245.0000 355.2500 Du        
   4408 ****       123.5000 245.0000 355.5000 Du        
   4409 ****       123.5000 245.0000 355.7500 Du        
   4410 ****       123.5000 245.0000 356.0000 Du        
   4411 ****       123.5000 245.0000 356.2500 Du        
   4412 ****       123.5000 245.0000 356.5000 Du        
   4413 ****       123.5000 245.0000 356.7500 Du        
   4414 ****       123.5000 245.0000 357.0000 Du        
   4415 ****       123.5000 245.0000 357.2500 Du        
   4416 ****       123.5000 245.0000 357.5000 Du        
   4417 ****       123.5000 245.0000 357.7500 Du        
   4418 ****       123.5000 245.0000 358.0000 Du        
   4419 ****       123.5000 245.0000 358.2500 Du        
   4420 ****       123.5000 245.0000 358.5000 Du        
   4421 ****       123.5000 245.0000 358.7500 Du        
   4422 ****       123.5000 245.0000 359.0000 Du        
   4423 ****       123.5000 245.2500 354.2500 Du        
   4424 ****       123.5000 245.2500 354.5000 Du        
   4425 ****       123.5000 245.2500 354.7500 Du        
   4426 ****       123.5000 245.2500 355.0000 Du        
   4427 ****       123.5000 245.2500 355.2500 Du        
   4428 ****       123.5000 245.2500 355.5000 Du        
   4429 ****       123.5000 245.2500 355.7500 Du        
   4430 ****       123.5000 245.2500 356.0000 Du        
   4431 ****       123.5000 245.2500 356.2500 Du        
   4432 ****       123.5000 245.2500 356.5000 Du        
   4433 ****       123.5000 245.2500 356.7500 Du        
   4434 ****       123.5000 245.2500 357.0000 Du        
   4435 ****       123.5000 245.2500 357.2500 Du        
   4436 ****       123.5000 245.2500 357.5000 Du        
   4437 ****       123.5000 245.2500 357.7500 Du        
   4438 ****       123.5000 245.2500 358.0000 Du        
   4439 ****       123.5000 245.2500 358.2500 Du        
   4440 ****       123.5000 245.2500 358.5000 Du        
   4441 ****       123.5000 245.2500 358.7500 Du        
   4442 ****       123.5000 245.2500 359.0000 Du        
   4443 ****       123.5000 245.5000 354.0000 Du        
   4444 ****       123.5000 245.5000 354.2500 Du        
   4445 ****       123.5000 245.5000 354.5000 Du        
   4446 ****       123.5000 245.5000 354.7500 Du        
   4447 ****       123.5000 245.5000 355.0000 Du        
   4448 ****       123.5000 245.5000 355.2500 Du        
   4449 ****       123.5000 245.5000 355.5000 Du        
   4450 ****       123.5000 245.5000 355.7500 Du        
   4451 ****       123.5000 245.5000 356.0000 Du        
   4452 ****       123.5000 245.5000 356.2500 Du        
   4453 ****       123.5000 245.5000 356.5000 Du        
   4454 ****       123.5000 245.5000 356.7500 Du        
   4455 ****       123.5000 245.5000 357.0000 Du        
   4456 ****       123.5000 245.5000 357.2500 Du        
   4457 ****       123.5000 245.5000 357.5000 Du        
   4458 ****       123.5000 245.5000 357.7500 Du        
   4459 ****       123.5000 245.5000 358.0000 Du        
   4460 ****       123.5000 245.5000 358.2500 Du        
   4461 ****       123.5000 245.5000 358.5000 Du        
   4462 ****       123.5000 245.5000 358.7500 Du        
   4463 ****       123.5000 245.5000 359.0000 Du        
   4464 ****       123.5000 245.7500 353.7500 Du        
   4465 ****       123.5000 245.7500 354.0000 Du        
   4466 ****       123.5000 245.7500 354.2500 Du        
   4467 ****       123.5000 245.7500 354.5000 Du        
   4468 ****       123.5000 245.7500 354.7500 Du        
   4469 ****       123.5000 245.7500 355.0000 Du        
   4470 ****       123.5000 245.7500 355.2500 Du        
   4471 ****       123.5000 245.7500 355.5000 Du        
   4472 ****       123.5000 245.7500 355.7500 Du        
   4473 ****       123.5000 245.7500 356.0000 Du        
   4474 ****       123.5000 245.7500 356.2500 Du        
   4475 ****       123.5000 245.7500 356.5000 Du        
   4476 ****       123.5000 245.7500 356.7500 Du        
   4477 ****       123.5000 245.7500 357.0000 Du        
   4478 ****       123.5000 245.7500 357.2500 Du        
   4479 ****       123.5000 245.7500 357.5000 Du        
   4480 ****       123.5000 245.7500 357.7500 Du        
   4481 ****       123.5000 245.7500 358.0000 Du        
   4482 ****       123.5000 245.7500 358.2500 Du        
   4483 ****       123.5000 245.7500 358.5000 Du        
   4484 ****       123.5000 245.7500 358.7500 Du        
   4485 ****       123.5000 245.7500 359.0000 Du        
   4486 ****       123.5000 246.0000 353.5000 Du        
   4487 ****       123.5000 246.0000 353.7500 Du        
   4488 ****       123.5000 246.0000 354.0000 Du        
   4489 ****       123.5000 246.0000 354.2500 Du        
   4490 ****       123.5000 246.0000 354.5000 Du        
   4491 ****       123.5000 246.0000 354.7500 Du        
   4492 ****       123.5000 246.0000 355.0000 Du        
   4493 ****       123.5000 246.0000 355.2500 Du        
   4494 ****       123.5000 246.0000 355.5000 Du        
   4495 ****       123.5000 246.0000 355.7500 Du        
   4496 ****       123.5000 246.0000 356.2500 Du        
   4497 ****       123.5000 246.0000 357.0000 Du        
   4498 ****       123.5000 246.0000 357.2500 Du        
   4499 ****       123.5000 246.0000 357.5000 Du        
   4500 ****       123.5000 246.0000 357.7500 Du        
   4501 ****       123.5000 246.0000 358.0000 Du        
   4502 ****       123.5000 246.0000 358.2500 Du        
   4503 ****       123.5000 246.0000 358.5000 Du        
   4504 ****       123.5000 246.0000 358.7500 Du        
   4505 ****       123.5000 246.0000 359.0000 Du        
   4506 ****       123.5000 246.2500 353.5000 Du        
   4507 ****       123.5000 246.2500 353.7500 Du        
   4508 ****       123.5000 246.2500 354.0000 Du        
   4509 ****       123.5000 246.2500 354.2500 Du        
   4510 ****       123.5000 246.2500 354.5000 Du        
   4511 ****       123.5000 246.2500 354.7500 Du        
   4512 ****       123.5000 246.2500 355.0000 Du        
   4513 ****       123.5000 246.2500 355.2500 Du        
   4514 ****       123.5000 246.2500 357.7500 Du        
   4515 ****       123.5000 246.2500 358.0000 Du        
   4516 ****       123.5000 246.2500 358.2500 Du        
   4517 ****       123.5000 246.2500 358.5000 Du        
   4518 ****       123.5000 246.2500 358.7500 Du        
   4519 ****       123.5000 246.2500 359.0000 Du        
   4520 ****       123.5000 246.5000 353.5000 Du        
   4521 ****       123.5000 246.5000 353.7500 Du        
   4522 ****       123.5000 246.5000 354.0000 Du        
   4523 ****       123.5000 246.5000 354.2500 Du        
   4524 ****       123.5000 246.7500 353.5000 Du        
   4525 ****       123.5000 246.7500 353.7500 Du        
   4526 ****       123.5000 246.7500 354.0000 Du        
   4527 ****       123.5000 246.7500 354.2500 Du        
   4528 ****       123.5000 247.0000 353.7500 Du        
   4529 ****       123.5000 247.0000 354.0000 Du        
   4530 ****       123.5000 247.7500 359.2500 Du        
   4531 ****       123.5000 248.0000 359.2500 Du        
   4532 ****       123.5000 248.0000 359.5000 Du        
   4533 ****       123.5000 248.2500 359.2500 Du        
   4534 ****       123.5000 248.2500 359.5000 Du        
   4535 ****       123.5000 248.5000 359.2500 Du        
   4536 ****       123.5000 248.5000 359.5000 Du        
   4537 ****       123.5000 248.5000 359.7500 Du        
   4538 ****       123.5000 248.7500 359.2500 Du        
   4539 ****       123.5000 248.7500 359.5000 Du        
   4540 ****       123.5000 248.7500 359.7500 Du        
   4541 ****       123.5000 249.0000 359.2500 Du        
   4542 ****       123.5000 249.0000 359.5000 Du        
   4543 ****       123.5000 249.0000 359.7500 Du        
   4544 ****       123.5000 249.0000 360.0000 Du        
   4545 ****       123.5000 249.2500 359.2500 Du        
   4546 ****       123.5000 249.2500 359.5000 Du        
   4547 ****       123.5000 249.2500 359.7500 Du        
   4548 ****       123.5000 249.2500 360.0000 Du        
   4549 ****       123.5000 249.5000 359.2500 Du        
   4550 ****       123.5000 249.5000 359.5000 Du        
   4551 ****       123.5000 249.5000 359.7500 Du        
   4552 ****       123.5000 249.5000 360.0000 Du        
   4553 ****       123.5000 249.5000 360.2500 Du        
   4554 ****       123.5000 249.7500 359.2500 Du        
   4555 ****       123.5000 249.7500 359.5000 Du        
   4556 ****       123.5000 249.7500 359.7500 Du        
   4557 ****       123.5000 249.7500 360.0000 Du        
   4558 ****       123.5000 249.7500 360.2500 Du        
   4559 ****       123.5000 249.7500 360.5000 Du        
   4560 ****       123.5000 250.0000 359.2500 Du        
   4561 ****       123.5000 250.0000 359.5000 Du        
   4562 ****       123.5000 250.0000 359.7500 Du        
   4563 ****       123.5000 250.0000 360.0000 Du        
   4564 ****       123.5000 250.0000 360.2500 Du        
   4565 ****       123.5000 250.0000 360.5000 Du        
   4566 ****       123.5000 250.0000 360.7500 Du        
   4567 ****       123.5000 250.2500 359.2500 Du        
   4568 ****       123.5000 250.2500 359.5000 Du        
   4569 ****       123.5000 250.2500 359.7500 Du        
   4570 ****       123.5000 250.2500 360.0000 Du        
   4571 ****       123.5000 250.2500 360.2500 Du        
   4572 ****       123.5000 250.2500 360.5000 Du        
   4573 ****       123.5000 250.2500 360.7500 Du        
   4574 ****       123.5000 250.2500 361.0000 Du        
   4575 ****       123.5000 250.5000 359.0000 Du        
   4576 ****       123.5000 250.5000 359.2500 Du        
   4577 ****       123.5000 250.5000 359.5000 Du        
   4578 ****       123.5000 250.5000 359.7500 Du        
   4579 ****       123.5000 250.5000 360.0000 Du        
   4580 ****       123.5000 250.5000 360.2500 Du        
   4581 ****       123.5000 250.5000 360.5000 Du        
   4582 ****       123.5000 250.5000 360.7500 Du        
   4583 ****       123.5000 250.5000 361.0000 Du        
   4584 ****       123.5000 250.7500 359.0000 Du        
   4585 ****       123.5000 250.7500 359.2500 Du        
   4586 ****       123.5000 250.7500 359.5000 Du        
   4587 ****       123.5000 250.7500 359.7500 Du        
   4588 ****       123.5000 250.7500 360.0000 Du        
   4589 ****       123.5000 250.7500 360.2500 Du        
   4590 ****       123.5000 250.7500 360.5000 Du        
   4591 ****       123.5000 250.7500 360.7500 Du        
   4592 ****       123.5000 251.0000 359.2500 Du        
   4593 ****       123.5000 251.0000 359.5000 Du        
   4594 ****       123.5000 251.0000 359.7500 Du        
   4595 ****       123.5000 251.0000 360.0000 Du        
   4596 ****       123.5000 251.0000 360.2500 Du        
   4597 ****       123.5000 251.0000 360.5000 Du        
   4598 ****       123.5000 251.0000 360.7500 Du        
   4599 ****       123.5000 251.2500 359.2500 Du        
   4600 ****       123.5000 251.2500 359.5000 Du        
   4601 ****       123.5000 251.2500 359.7500 Du        
   4602 ****       123.5000 251.2500 360.0000 Du        
   4603 ****       123.5000 251.2500 360.2500 Du        
   4604 ****       123.5000 251.2500 360.5000 Du        
   4605 ****       123.5000 251.5000 359.0000 Du        
   4606 ****       123.5000 251.5000 359.2500 Du        
   4607 ****       123.5000 251.5000 359.5000 Du        
   4608 ****       123.5000 251.5000 359.7500 Du        
   4609 ****       123.5000 251.5000 360.0000 Du        
   4610 ****       123.5000 251.7500 359.0000 Du        
   4611 ****       123.5000 252.7500 355.0000 Du        
   4612 ****       123.5000 252.7500 355.2500 Du        
   4613 ****       123.5000 252.7500 355.5000 Du        
   4614 ****       123.5000 252.7500 355.7500 Du        
   4615 ****       123.5000 253.0000 354.7500 Du        
   4616 ****       123.5000 253.0000 355.0000 Du        
   4617 ****       123.5000 253.0000 355.2500 Du        
   4618 ****       123.5000 253.0000 355.5000 Du        
   4619 ****       123.5000 253.0000 355.7500 Du        
   4620 ****       123.5000 253.0000 356.0000 Du        
   4621 ****       123.5000 253.2500 354.7500 Du        
   4622 ****       123.5000 253.2500 355.0000 Du        
   4623 ****       123.5000 253.2500 355.2500 Du        
   4624 ****       123.5000 253.2500 355.5000 Du        
   4625 ****       123.5000 253.2500 355.7500 Du        
   4626 ****       123.5000 253.2500 356.0000 Du        
   4627 ****       123.7500 243.5000 358.5000 Du        
   4628 ****       123.7500 243.5000 358.7500 Du        
   4629 ****       123.7500 243.7500 358.0000 Du        
   4630 ****       123.7500 243.7500 358.2500 Du        
   4631 ****       123.7500 243.7500 358.5000 Du        
   4632 ****       123.7500 243.7500 358.7500 Du        
   4633 ****       123.7500 243.7500 359.0000 Du        
   4634 ****       123.7500 244.0000 355.2500 Du        
   4635 ****       123.7500 244.0000 355.5000 Du        
   4636 ****       123.7500 244.0000 355.7500 Du        
   4637 ****       123.7500 244.0000 356.0000 Du        
   4638 ****       123.7500 244.0000 357.5000 Du        
   4639 ****       123.7500 244.0000 357.7500 Du        
   4640 ****       123.7500 244.0000 358.0000 Du        
   4641 ****       123.7500 244.0000 358.2500 Du        
   4642 ****       123.7500 244.0000 358.5000 Du        
   4643 ****       123.7500 244.0000 358.7500 Du        
   4644 ****       123.7500 244.0000 359.0000 Du        
   4645 ****       123.7500 244.2500 355.0000 Du        
   4646 ****       123.7500 244.2500 355.2500 Du        
   4647 ****       123.7500 244.2500 355.5000 Du        
   4648 ****       123.7500 244.2500 355.7500 Du        
   4649 ****       123.7500 244.2500 356.0000 Du        
   4650 ****       123.7500 244.2500 356.2500 Du        
   4651 ****       123.7500 244.2500 356.5000 Du        
   4652 ****       123.7500 244.2500 356.7500 Du        
   4653 ****       123.7500 244.2500 357.0000 Du        
   4654 ****       123.7500 244.2500 357.2500 Du        
   4655 ****       123.7500 244.2500 357.5000 Du        
   4656 ****       123.7500 244.2500 357.7500 Du        
   4657 ****       123.7500 244.2500 358.0000 Du        
   4658 ****       123.7500 244.2500 358.2500 Du        
   4659 ****       123.7500 244.2500 358.5000 Du        
   4660 ****       123.7500 244.2500 358.7500 Du        
   4661 ****       123.7500 244.2500 359.0000 Du        
   4662 ****       123.7500 244.2500 359.2500 Du        
   4663 ****       123.7500 244.5000 355.0000 Du        
   4664 ****       123.7500 244.5000 355.2500 Du        
   4665 ****       123.7500 244.5000 355.5000 Du        
   4666 ****       123.7500 244.5000 355.7500 Du        
   4667 ****       123.7500 244.5000 356.0000 Du        
   4668 ****       123.7500 244.5000 356.2500 Du        
   4669 ****       123.7500 244.5000 356.5000 Du        
   4670 ****       123.7500 244.5000 356.7500 Du        
   4671 ****       123.7500 244.5000 357.0000 Du        
   4672 ****       123.7500 244.5000 357.2500 Du        
   4673 ****       123.7500 244.5000 357.5000 Du        
   4674 ****       123.7500 244.5000 357.7500 Du        
   4675 ****       123.7500 244.5000 358.0000 Du        
   4676 ****       123.7500 244.5000 358.2500 Du        
   4677 ****       123.7500 244.5000 358.5000 Du        
   4678 ****       123.7500 244.5000 358.7500 Du        
   4679 ****       123.7500 244.5000 359.0000 Du        
   4680 ****       123.7500 244.7500 354.7500 Du        
   4681 ****       123.7500 244.7500 355.0000 Du        
   4682 ****       123.7500 244.7500 355.2500 Du        
   4683 ****       123.7500 244.7500 355.5000 Du        
   4684 ****       123.7500 244.7500 355.7500 Du        
   4685 ****       123.7500 244.7500 356.0000 Du        
   4686 ****       123.7500 244.7500 356.2500 Du        
   4687 ****       123.7500 244.7500 356.5000 Du        
   4688 ****       123.7500 244.7500 356.7500 Du        
   4689 ****       123.7500 244.7500 357.0000 Du        
   4690 ****       123.7500 244.7500 357.2500 Du        
   4691 ****       123.7500 244.7500 357.5000 Du        
   4692 ****       123.7500 244.7500 357.7500 Du        
   4693 ****       123.7500 244.7500 358.0000 Du        
   4694 ****       123.7500 244.7500 358.2500 Du        
   4695 ****       123.7500 244.7500 358.5000 Du        
   4696 ****       123.7500 244.7500 358.7500 Du        
   4697 ****       123.7500 244.7500 359.0000 Du        
   4698 ****       123.7500 245.0000 354.5000 Du        
   4699 ****       123.7500 245.0000 354.7500 Du        
   4700 ****       123.7500 245.0000 355.0000 Du        
   4701 ****       123.7500 245.0000 355.2500 Du        
   4702 ****       123.7500 245.0000 355.5000 Du        
   4703 ****       123.7500 245.0000 355.7500 Du        
   4704 ****       123.7500 245.0000 356.0000 Du        
   4705 ****       123.7500 245.0000 356.2500 Du        
   4706 ****       123.7500 245.0000 356.5000 Du        
   4707 ****       123.7500 245.0000 356.7500 Du        
   4708 ****       123.7500 245.0000 357.0000 Du        
   4709 ****       123.7500 245.0000 357.2500 Du        
   4710 ****       123.7500 245.0000 357.5000 Du        
   4711 ****       123.7500 245.0000 357.7500 Du        
   4712 ****       123.7500 245.0000 358.0000 Du        
   4713 ****       123.7500 245.0000 358.2500 Du        
   4714 ****       123.7500 245.0000 358.5000 Du        
   4715 ****       123.7500 245.0000 358.7500 Du        
   4716 ****       123.7500 245.0000 359.0000 Du        
   4717 ****       123.7500 245.2500 354.2500 Du        
   4718 ****       123.7500 245.2500 354.5000 Du        
   4719 ****       123.7500 245.2500 354.7500 Du        
   4720 ****       123.7500 245.2500 355.0000 Du        
   4721 ****       123.7500 245.2500 355.2500 Du        
   4722 ****       123.7500 245.2500 355.5000 Du        
   4723 ****       123.7500 245.2500 355.7500 Du        
   4724 ****       123.7500 245.2500 356.0000 Du        
   4725 ****       123.7500 245.2500 356.2500 Du        
   4726 ****       123.7500 245.2500 356.5000 Du        
   4727 ****       123.7500 245.2500 356.7500 Du        
   4728 ****       123.7500 245.2500 357.0000 Du        
   4729 ****       123.7500 245.2500 357.2500 Du        
   4730 ****       123.7500 245.2500 357.5000 Du        
   4731 ****       123.7500 245.2500 357.7500 Du        
   4732 ****       123.7500 245.2500 358.0000 Du        
   4733 ****       123.7500 245.2500 358.2500 Du        
   4734 ****       123.7500 245.2500 358.5000 Du        
   4735 ****       123.7500 245.2500 358.7500 Du        
   4736 ****       123.7500 245.2500 359.0000 Du        
   4737 ****       123.7500 245.5000 354.0000 Du        
   4738 ****       123.7500 245.5000 354.2500 Du        
   4739 ****       123.7500 245.5000 354.5000 Du        
   4740 ****       123.7500 245.5000 354.7500 Du        
   4741 ****       123.7500 245.5000 355.0000 Du        
   4742 ****       123.7500 245.5000 355.2500 Du        
   4743 ****       123.7500 245.5000 355.5000 Du        
   4744 ****       123.7500 245.5000 355.7500 Du        
   4745 ****       123.7500 245.5000 356.0000 Du        
   4746 ****       123.7500 245.5000 356.2500 Du        
   4747 ****       123.7500 245.5000 356.5000 Du        
   4748 ****       123.7500 245.5000 356.7500 Du        
   4749 ****       123.7500 245.5000 357.0000 Du        
   4750 ****       123.7500 245.5000 357.2500 Du        
   4751 ****       123.7500 245.5000 357.5000 Du        
   4752 ****       123.7500 245.5000 357.7500 Du        
   4753 ****       123.7500 245.5000 358.0000 Du        
   4754 ****       123.7500 245.5000 358.2500 Du        
   4755 ****       123.7500 245.5000 358.5000 Du        
   4756 ****       123.7500 245.5000 358.7500 Du        
   4757 ****       123.7500 245.5000 359.0000 Du        
   4758 ****       123.7500 245.7500 353.7500 Du        
   4759 ****       123.7500 245.7500 354.0000 Du        
   4760 ****       123.7500 245.7500 354.2500 Du        
   4761 ****       123.7500 245.7500 354.5000 Du        
   4762 ****       123.7500 245.7500 354.7500 Du        
   4763 ****       123.7500 245.7500 355.0000 Du        
   4764 ****       123.7500 245.7500 355.2500 Du        
   4765 ****       123.7500 245.7500 355.5000 Du        
   4766 ****       123.7500 245.7500 355.7500 Du        
   4767 ****       123.7500 245.7500 356.0000 Du        
   4768 ****       123.7500 245.7500 356.2500 Du        
   4769 ****       123.7500 245.7500 356.5000 Du        
   4770 ****       123.7500 245.7500 356.7500 Du        
   4771 ****       123.7500 245.7500 357.0000 Du        
   4772 ****       123.7500 245.7500 357.2500 Du        
   4773 ****       123.7500 245.7500 357.5000 Du        
   4774 ****       123.7500 245.7500 357.7500 Du        
   4775 ****       123.7500 245.7500 358.0000 Du        
   4776 ****       123.7500 245.7500 358.2500 Du        
   4777 ****       123.7500 245.7500 358.5000 Du        
   4778 ****       123.7500 245.7500 358.7500 Du        
   4779 ****       123.7500 245.7500 359.0000 Du        
   4780 ****       123.7500 246.0000 353.5000 Du        
   4781 ****       123.7500 246.0000 353.7500 Du        
   4782 ****       123.7500 246.0000 354.0000 Du        
   4783 ****       123.7500 246.0000 354.2500 Du        
   4784 ****       123.7500 246.0000 354.5000 Du        
   4785 ****       123.7500 246.0000 354.7500 Du        
   4786 ****       123.7500 246.0000 355.0000 Du        
   4787 ****       123.7500 246.0000 355.2500 Du        
   4788 ****       123.7500 246.0000 355.5000 Du        
   4789 ****       123.7500 246.0000 355.7500 Du        
   4790 ****       123.7500 246.0000 356.0000 Du        
   4791 ****       123.7500 246.0000 356.2500 Du        
   4792 ****       123.7500 246.0000 356.7500 Du        
   4793 ****       123.7500 246.0000 357.0000 Du        
   4794 ****       123.7500 246.0000 357.2500 Du        
   4795 ****       123.7500 246.0000 357.5000 Du        
   4796 ****       123.7500 246.0000 357.7500 Du        
   4797 ****       123.7500 246.0000 358.0000 Du        
   4798 ****       123.7500 246.0000 358.2500 Du        
   4799 ****       123.7500 246.0000 358.5000 Du        
   4800 ****       123.7500 246.0000 358.7500 Du        
   4801 ****       123.7500 246.0000 359.0000 Du        
   4802 ****       123.7500 246.2500 353.5000 Du        
   4803 ****       123.7500 246.2500 353.7500 Du        
   4804 ****       123.7500 246.2500 354.0000 Du        
   4805 ****       123.7500 246.2500 354.2500 Du        
   4806 ****       123.7500 246.2500 354.5000 Du        
   4807 ****       123.7500 246.2500 354.7500 Du        
   4808 ****       123.7500 246.2500 355.0000 Du        
   4809 ****       123.7500 246.2500 355.2500 Du        
   4810 ****       123.7500 246.2500 355.5000 Du        
   4811 ****       123.7500 246.2500 357.5000 Du        
   4812 ****       123.7500 246.2500 357.7500 Du        
   4813 ****       123.7500 246.2500 358.0000 Du        
   4814 ****       123.7500 246.2500 358.2500 Du        
   4815 ****       123.7500 246.2500 358.5000 Du        
   4816 ****       123.7500 246.2500 358.7500 Du        
   4817 ****       123.7500 246.2500 359.0000 Du        
   4818 ****       123.7500 246.5000 353.5000 Du        
   4819 ****       123.7500 246.5000 353.7500 Du        
   4820 ****       123.7500 246.5000 354.0000 Du        
   4821 ****       123.7500 246.5000 354.2500 Du        
   4822 ****       123.7500 246.5000 354.5000 Du        
   4823 ****       123.7500 246.5000 354.7500 Du        
   4824 ****       123.7500 246.5000 355.0000 Du        
   4825 ****       123.7500 246.5000 358.2500 Du        
   4826 ****       123.7500 246.5000 358.7500 Du        
   4827 ****       123.7500 246.7500 353.5000 Du        
   4828 ****       123.7500 246.7500 353.7500 Du        
   4829 ****       123.7500 246.7500 354.0000 Du        
   4830 ****       123.7500 246.7500 354.2500 Du        
   4831 ****       123.7500 246.7500 354.5000 Du        
   4832 ****       123.7500 246.7500 354.7500 Du        
   4833 ****       123.7500 246.7500 358.7500 Du        
   4834 ****       123.7500 247.0000 353.5000 Du        
   4835 ****       123.7500 247.0000 353.7500 Du        
   4836 ****       123.7500 247.0000 354.0000 Du        
   4837 ****       123.7500 247.0000 354.2500 Du        
   4838 ****       123.7500 247.2500 353.7500 Du        
   4839 ****       123.7500 247.2500 354.0000 Du        
   4840 ****       123.7500 247.2500 354.2500 Du        
   4841 ****       123.7500 247.5000 353.7500 Du        
   4842 ****       123.7500 247.5000 354.0000 Du        
   4843 ****       123.7500 247.5000 359.2500 Du        
   4844 ****       123.7500 247.7500 354.0000 Du        
   4845 ****       123.7500 247.7500 359.0000 Du        
   4846 ****       123.7500 247.7500 359.2500 Du        
   4847 ****       123.7500 247.7500 359.5000 Du        
   4848 ****       123.7500 248.0000 359.0000 Du        
   4849 ****       123.7500 248.0000 359.2500 Du        
   4850 ****       123.7500 248.0000 359.5000 Du        
   4851 ****       123.7500 248.2500 359.2500 Du        
   4852 ****       123.7500 248.2500 359.5000 Du        
   4853 ****       123.7500 248.2500 359.7500 Du        
   4854 ****       123.7500 248.5000 359.0000 Du        
   4855 ****       123.7500 248.5000 359.2500 Du        
   4856 ****       123.7500 248.5000 359.5000 Du        
   4857 ****       123.7500 248.5000 359.7500 Du        
   4858 ****       123.7500 248.7500 359.0000 Du        
   4859 ****       123.7500 248.7500 359.2500 Du        
   4860 ****       123.7500 248.7500 359.5000 Du        
   4861 ****       123.7500 248.7500 359.7500 Du        
   4862 ****       123.7500 248.7500 360.0000 Du        
   4863 ****       123.7500 249.0000 359.0000 Du        
   4864 ****       123.7500 249.0000 359.2500 Du        
   4865 ****       123.7500 249.0000 359.5000 Du        
   4866 ****       123.7500 249.0000 359.7500 Du        
   4867 ****       123.7500 249.0000 360.0000 Du        
   4868 ****       123.7500 249.2500 359.0000 Du        
   4869 ****       123.7500 249.2500 359.2500 Du        
   4870 ****       123.7500 249.2500 359.5000 Du        
   4871 ****       123.7500 249.2500 359.7500 Du        
   4872 ****       123.7500 249.2500 360.0000 Du        
   4873 ****       123.7500 249.2500 360.2500 Du        
   4874 ****       123.7500 249.5000 359.0000 Du        
   4875 ****       123.7500 249.5000 359.2500 Du        
   4876 ****       123.7500 249.5000 359.5000 Du        
   4877 ****       123.7500 249.5000 359.7500 Du        
   4878 ****       123.7500 249.5000 360.0000 Du        
   4879 ****       123.7500 249.5000 360.2500 Du        
   4880 ****       123.7500 249.5000 360.5000 Du        
   4881 ****       123.7500 249.7500 359.2500 Du        
   4882 ****       123.7500 249.7500 359.5000 Du        
   4883 ****       123.7500 249.7500 359.7500 Du        
   4884 ****       123.7500 249.7500 360.0000 Du        
   4885 ****       123.7500 249.7500 360.2500 Du        
   4886 ****       123.7500 249.7500 360.5000 Du        
   4887 ****       123.7500 249.7500 360.7500 Du        
   4888 ****       123.7500 250.0000 359.2500 Du        
   4889 ****       123.7500 250.0000 359.5000 Du        
   4890 ****       123.7500 250.0000 359.7500 Du        
   4891 ****       123.7500 250.0000 360.0000 Du        
   4892 ****       123.7500 250.0000 360.2500 Du        
   4893 ****       123.7500 250.0000 360.5000 Du        
   4894 ****       123.7500 250.0000 360.7500 Du        
   4895 ****       123.7500 250.0000 361.0000 Du        
   4896 ****       123.7500 250.2500 359.2500 Du        
   4897 ****       123.7500 250.2500 359.5000 Du        
   4898 ****       123.7500 250.2500 359.7500 Du        
   4899 ****       123.7500 250.2500 360.0000 Du        
   4900 ****       123.7500 250.2500 360.2500 Du        
   4901 ****       123.7500 250.2500 360.5000 Du        
   4902 ****       123.7500 250.2500 360.7500 Du        
   4903 ****       123.7500 250.2500 361.0000 Du        
   4904 ****       123.7500 250.5000 359.0000 Du        
   4905 ****       123.7500 250.5000 359.2500 Du        
   4906 ****       123.7500 250.5000 359.5000 Du        
   4907 ****       123.7500 250.5000 359.7500 Du        
   4908 ****       123.7500 250.5000 360.0000 Du        
   4909 ****       123.7500 250.5000 360.2500 Du        
   4910 ****       123.7500 250.5000 360.5000 Du        
   4911 ****       123.7500 250.5000 360.7500 Du        
   4912 ****       123.7500 250.5000 361.0000 Du        
   4913 ****       123.7500 250.7500 359.0000 Du        
   4914 ****       123.7500 250.7500 359.2500 Du        
   4915 ****       123.7500 250.7500 359.5000 Du        
   4916 ****       123.7500 250.7500 359.7500 Du        
   4917 ****       123.7500 250.7500 360.0000 Du        
   4918 ****       123.7500 250.7500 360.2500 Du        
   4919 ****       123.7500 250.7500 360.5000 Du        
   4920 ****       123.7500 250.7500 360.7500 Du        
   4921 ****       123.7500 250.7500 361.0000 Du        
   4922 ****       123.7500 251.0000 359.0000 Du        
   4923 ****       123.7500 251.0000 359.2500 Du        
   4924 ****       123.7500 251.0000 359.5000 Du        
   4925 ****       123.7500 251.0000 359.7500 Du        
   4926 ****       123.7500 251.0000 360.0000 Du        
   4927 ****       123.7500 251.0000 360.2500 Du        
   4928 ****       123.7500 251.0000 360.5000 Du        
   4929 ****       123.7500 251.0000 360.7500 Du        
   4930 ****       123.7500 251.2500 359.2500 Du        
   4931 ****       123.7500 251.2500 359.5000 Du        
   4932 ****       123.7500 251.2500 359.7500 Du        
   4933 ****       123.7500 251.2500 360.0000 Du        
   4934 ****       123.7500 251.2500 360.2500 Du        
   4935 ****       123.7500 251.2500 360.5000 Du        
   4936 ****       123.7500 252.5000 355.0000 Du        
   4937 ****       123.7500 252.5000 355.2500 Du        
   4938 ****       123.7500 252.7500 354.7500 Du        
   4939 ****       123.7500 252.7500 355.0000 Du        
   4940 ****       123.7500 252.7500 355.2500 Du        
   4941 ****       123.7500 252.7500 355.5000 Du        
   4942 ****       123.7500 252.7500 355.7500 Du        
   4943 ****       123.7500 252.7500 356.0000 Du        
   4944 ****       123.7500 253.0000 354.7500 Du        
   4945 ****       123.7500 253.0000 355.0000 Du        
   4946 ****       123.7500 253.0000 355.2500 Du        
   4947 ****       123.7500 253.0000 355.5000 Du        
   4948 ****       123.7500 253.0000 355.7500 Du        
   4949 ****       123.7500 253.0000 356.0000 Du        
   4950 ****       123.7500 253.0000 356.2500 Du        
   4951 ****       123.7500 253.0000 356.7500 Du        
   4952 ****       123.7500 253.0000 357.0000 Du        
   4953 ****       123.7500 253.2500 354.7500 Du        
   4954 ****       123.7500 253.2500 355.0000 Du        
   4955 ****       123.7500 253.2500 355.2500 Du        
   4956 ****       123.7500 253.2500 355.5000 Du        
   4957 ****       123.7500 253.2500 355.7500 Du        
   4958 ****       123.7500 253.2500 356.0000 Du        
   4959 ****       123.7500 253.2500 356.2500 Du        
   4960 ****       123.7500 253.2500 356.7500 Du        
   4961 ****       123.7500 253.2500 357.0000 Du        
   4962 ****       123.7500 253.5000 355.7500 Du        
   4963 ****       123.7500 253.5000 356.0000 Du        
   4964 ****       123.7500 253.5000 356.5000 Du        
   4965 ****       123.7500 253.5000 356.7500 Du        
   4966 ****       123.7500 253.5000 357.0000 Du        
   4967 ****       123.7500 253.5000 357.2500 Du        
   4968 ****       123.7500 256.7500 360.2500 Du        
   4969 ****       123.7500 256.7500 360.5000 Du        
   4970 ****       124.0000 243.5000 358.7500 Du        
   4971 ****       124.0000 243.5000 359.0000 Du        
   4972 ****       124.0000 243.7500 358.2500 Du        
   4973 ****       124.0000 243.7500 358.5000 Du        
   4974 ****       124.0000 243.7500 358.7500 Du        
   4975 ****       124.0000 243.7500 359.0000 Du        
   4976 ****       124.0000 243.7500 359.2500 Du        
   4977 ****       124.0000 244.0000 358.0000 Du        
   4978 ****       124.0000 244.0000 358.2500 Du        
   4979 ****       124.0000 244.0000 358.5000 Du        
   4980 ****       124.0000 244.0000 358.7500 Du        
   4981 ****       124.0000 244.0000 359.0000 Du        
   4982 ****       124.0000 244.0000 359.2500 Du        
   4983 ****       124.0000 244.2500 355.2500 Du        
   4984 ****       124.0000 244.2500 355.5000 Du        
   4985 ****       124.0000 244.2500 357.5000 Du        
   4986 ****       124.0000 244.2500 357.7500 Du        
   4987 ****       124.0000 244.2500 358.0000 Du        
   4988 ****       124.0000 244.2500 358.2500 Du        
   4989 ****       124.0000 244.2500 358.5000 Du        
   4990 ****       124.0000 244.2500 358.7500 Du        
   4991 ****       124.0000 244.2500 359.0000 Du        
   4992 ****       124.0000 244.2500 359.2500 Du        
   4993 ****       124.0000 244.5000 355.0000 Du        
   4994 ****       124.0000 244.5000 355.2500 Du        
   4995 ****       124.0000 244.5000 355.5000 Du        
   4996 ****       124.0000 244.5000 355.7500 Du        
   4997 ****       124.0000 244.5000 356.0000 Du        
   4998 ****       124.0000 244.5000 356.7500 Du        
   4999 ****       124.0000 244.5000 357.0000 Du        
   5000 ****       124.0000 244.5000 357.2500 Du        
   5001 ****       124.0000 244.5000 357.5000 Du        
   5002 ****       124.0000 244.5000 357.7500 Du        
   5003 ****       124.0000 244.5000 358.0000 Du        
   5004 ****       124.0000 244.5000 358.2500 Du        
   5005 ****       124.0000 244.5000 358.5000 Du        
   5006 ****       124.0000 244.5000 358.7500 Du        
   5007 ****       124.0000 244.5000 359.0000 Du        
   5008 ****       124.0000 244.7500 354.7500 Du        
   5009 ****       124.0000 244.7500 355.0000 Du        
   5010 ****       124.0000 244.7500 355.2500 Du        
   5011 ****       124.0000 244.7500 355.5000 Du        
   5012 ****       124.0000 244.7500 355.7500 Du        
   5013 ****       124.0000 244.7500 356.0000 Du        
   5014 ****       124.0000 244.7500 356.2500 Du        
   5015 ****       124.0000 244.7500 356.5000 Du        
   5016 ****       124.0000 244.7500 356.7500 Du        
   5017 ****       124.0000 244.7500 357.0000 Du        
   5018 ****       124.0000 244.7500 357.2500 Du        
   5019 ****       124.0000 244.7500 357.5000 Du        
   5020 ****       124.0000 244.7500 357.7500 Du        
   5021 ****       124.0000 244.7500 358.0000 Du        
   5022 ****       124.0000 244.7500 358.2500 Du        
   5023 ****       124.0000 244.7500 358.5000 Du        
   5024 ****       124.0000 244.7500 358.7500 Du        
   5025 ****       124.0000 244.7500 359.0000 Du        
   5026 ****       124.0000 245.0000 354.5000 Du        
   5027 ****       124.0000 245.0000 354.7500 Du        
   5028 ****       124.0000 245.0000 355.0000 Du        
   5029 ****       124.0000 245.0000 355.2500 Du        
   5030 ****       124.0000 245.0000 355.5000 Du        
   5031 ****       124.0000 245.0000 355.7500 Du        
   5032 ****       124.0000 245.0000 356.0000 Du        
   5033 ****       124.0000 245.0000 356.2500 Du        
   5034 ****       124.0000 245.0000 356.5000 Du        
   5035 ****       124.0000 245.0000 356.7500 Du        
   5036 ****       124.0000 245.0000 357.0000 Du        
   5037 ****       124.0000 245.0000 357.2500 Du        
   5038 ****       124.0000 245.0000 357.5000 Du        
   5039 ****       124.0000 245.0000 357.7500 Du        
   5040 ****       124.0000 245.0000 358.0000 Du        
   5041 ****       124.0000 245.0000 358.2500 Du        
   5042 ****       124.0000 245.0000 358.5000 Du        
   5043 ****       124.0000 245.0000 358.7500 Du        
   5044 ****       124.0000 245.0000 359.0000 Du        
   5045 ****       124.0000 245.2500 354.2500 Du        
   5046 ****       124.0000 245.2500 354.5000 Du        
   5047 ****       124.0000 245.2500 354.7500 Du        
   5048 ****       124.0000 245.2500 355.0000 Du        
   5049 ****       124.0000 245.2500 355.2500 Du        
   5050 ****       124.0000 245.2500 355.5000 Du        
   5051 ****       124.0000 245.2500 355.7500 Du        
   5052 ****       124.0000 245.2500 356.0000 Du        
   5053 ****       124.0000 245.2500 356.2500 Du        
   5054 ****       124.0000 245.2500 356.5000 Du        
   5055 ****       124.0000 245.2500 356.7500 Du        
   5056 ****       124.0000 245.2500 357.0000 Du        
   5057 ****       124.0000 245.2500 357.2500 Du        
   5058 ****       124.0000 245.2500 357.5000 Du        
   5059 ****       124.0000 245.2500 357.7500 Du        
   5060 ****       124.0000 245.2500 358.0000 Du        
   5061 ****       124.0000 245.2500 358.2500 Du        
   5062 ****       124.0000 245.2500 358.5000 Du        
   5063 ****       124.0000 245.2500 358.7500 Du        
   5064 ****       124.0000 245.2500 359.0000 Du        
   5065 ****       124.0000 245.5000 354.0000 Du        
   5066 ****       124.0000 245.5000 354.2500 Du        
   5067 ****       124.0000 245.5000 354.5000 Du        
   5068 ****       124.0000 245.5000 354.7500 Du        
   5069 ****       124.0000 245.5000 355.0000 Du        
   5070 ****       124.0000 245.5000 355.2500 Du        
   5071 ****       124.0000 245.5000 355.5000 Du        
   5072 ****       124.0000 245.5000 355.7500 Du        
   5073 ****       124.0000 245.5000 356.0000 Du        
   5074 ****       124.0000 245.5000 356.2500 Du        
   5075 ****       124.0000 245.5000 356.5000 Du        
   5076 ****       124.0000 245.5000 356.7500 Du        
   5077 ****       124.0000 245.5000 357.0000 Du        
   5078 ****       124.0000 245.5000 357.2500 Du        
   5079 ****       124.0000 245.5000 357.5000 Du        
   5080 ****       124.0000 245.5000 357.7500 Du        
   5081 ****       124.0000 245.5000 358.0000 Du        
   5082 ****       124.0000 245.5000 358.2500 Du        
   5083 ****       124.0000 245.5000 358.5000 Du        
   5084 ****       124.0000 245.5000 358.7500 Du        
   5085 ****       124.0000 245.5000 359.0000 Du        
   5086 ****       124.0000 245.7500 353.7500 Du        
   5087 ****       124.0000 245.7500 354.0000 Du        
   5088 ****       124.0000 245.7500 354.2500 Du        
   5089 ****       124.0000 245.7500 354.5000 Du        
   5090 ****       124.0000 245.7500 354.7500 Du        
   5091 ****       124.0000 245.7500 355.0000 Du        
   5092 ****       124.0000 245.7500 355.2500 Du        
   5093 ****       124.0000 245.7500 355.5000 Du        
   5094 ****       124.0000 245.7500 355.7500 Du        
   5095 ****       124.0000 245.7500 356.0000 Du        
   5096 ****       124.0000 245.7500 356.2500 Du        
   5097 ****       124.0000 245.7500 356.5000 Du        
   5098 ****       124.0000 245.7500 356.7500 Du        
   5099 ****       124.0000 245.7500 357.0000 Du        
   5100 ****       124.0000 245.7500 357.2500 Du        
   5101 ****       124.0000 245.7500 357.5000 Du        
   5102 ****       124.0000 245.7500 357.7500 Du        
   5103 ****       124.0000 245.7500 358.0000 Du        
   5104 ****       124.0000 245.7500 358.2500 Du        
   5105 ****       124.0000 245.7500 358.5000 Du        
   5106 ****       124.0000 245.7500 358.7500 Du        
   5107 ****       124.0000 245.7500 359.0000 Du        
   5108 ****       124.0000 246.0000 353.5000 Du        
   5109 ****       124.0000 246.0000 353.7500 Du        
   5110 ****       124.0000 246.0000 354.0000 Du        
   5111 ****       124.0000 246.0000 354.2500 Du        
   5112 ****       124.0000 246.0000 354.5000 Du        
   5113 ****       124.0000 246.0000 354.7500 Du        
   5114 ****       124.0000 246.0000 355.0000 Du        
   5115 ****       124.0000 246.0000 355.2500 Du        
   5116 ****       124.0000 246.0000 355.5000 Du        
   5117 ****       124.0000 246.0000 355.7500 Du        
   5118 ****       124.0000 246.0000 356.0000 Du        
   5119 ****       124.0000 246.0000 356.2500 Du        
   5120 ****       124.0000 246.0000 356.5000 Du        
   5121 ****       124.0000 246.0000 357.0000 Du        
   5122 ****       124.0000 246.0000 357.2500 Du        
   5123 ****       124.0000 246.0000 357.5000 Du        
   5124 ****       124.0000 246.0000 357.7500 Du        
   5125 ****       124.0000 246.0000 358.0000 Du        
   5126 ****       124.0000 246.0000 358.2500 Du        
   5127 ****       124.0000 246.0000 358.5000 Du        
   5128 ****       124.0000 246.0000 358.7500 Du        
   5129 ****       124.0000 246.0000 359.0000 Du        
   5130 ****       124.0000 246.2500 353.5000 Du        
   5131 ****       124.0000 246.2500 353.7500 Du        
   5132 ****       124.0000 246.2500 354.0000 Du        
   5133 ****       124.0000 246.2500 354.2500 Du        
   5134 ****       124.0000 246.2500 354.5000 Du        
   5135 ****       124.0000 246.2500 354.7500 Du        
   5136 ****       124.0000 246.2500 355.0000 Du        
   5137 ****       124.0000 246.2500 355.2500 Du        
   5138 ****       124.0000 246.2500 355.5000 Du        
   5139 ****       124.0000 246.2500 355.7500 Du        
   5140 ****       124.0000 246.2500 357.5000 Du        
   5141 ****       124.0000 246.2500 357.7500 Du        
   5142 ****       124.0000 246.2500 358.0000 Du        
   5143 ****       124.0000 246.2500 358.2500 Du        
   5144 ****       124.0000 246.2500 358.5000 Du        
   5145 ****       124.0000 246.2500 358.7500 Du        
   5146 ****       124.0000 246.2500 359.0000 Du        
   5147 ****       124.0000 246.5000 353.5000 Du        
   5148 ****       124.0000 246.5000 353.7500 Du        
   5149 ****       124.0000 246.5000 354.0000 Du        
   5150 ****       124.0000 246.5000 354.2500 Du        
   5151 ****       124.0000 246.5000 354.5000 Du        
   5152 ****       124.0000 246.5000 354.7500 Du        
   5153 ****       124.0000 246.5000 355.0000 Du        
   5154 ****       124.0000 246.5000 355.2500 Du        
   5155 ****       124.0000 246.5000 358.2500 Du        
   5156 ****       124.0000 246.5000 358.5000 Du        
   5157 ****       124.0000 246.5000 358.7500 Du        
   5158 ****       124.0000 246.7500 353.5000 Du        
   5159 ****       124.0000 246.7500 353.7500 Du        
   5160 ****       124.0000 246.7500 354.0000 Du        
   5161 ****       124.0000 246.7500 354.2500 Du        
   5162 ****       124.0000 246.7500 354.5000 Du        
   5163 ****       124.0000 246.7500 354.7500 Du        
   5164 ****       124.0000 246.7500 355.0000 Du        
   5165 ****       124.0000 246.7500 358.2500 Du        
   5166 ****       124.0000 246.7500 358.7500 Du        
   5167 ****       124.0000 247.0000 353.5000 Du        
   5168 ****       124.0000 247.0000 353.7500 Du        
   5169 ****       124.0000 247.0000 354.0000 Du        
   5170 ****       124.0000 247.0000 354.2500 Du        
   5171 ****       124.0000 247.0000 354.5000 Du        
   5172 ****       124.0000 247.0000 354.7500 Du        
   5173 ****       124.0000 247.0000 358.7500 Du        
   5174 ****       124.0000 247.0000 359.0000 Du        
   5175 ****       124.0000 247.2500 353.5000 Du        
   5176 ****       124.0000 247.2500 353.7500 Du        
   5177 ****       124.0000 247.2500 354.0000 Du        
   5178 ****       124.0000 247.2500 354.2500 Du        
   5179 ****       124.0000 247.2500 358.7500 Du        
   5180 ****       124.0000 247.2500 359.0000 Du        
   5181 ****       124.0000 247.5000 353.7500 Du        
   5182 ****       124.0000 247.5000 354.0000 Du        
   5183 ****       124.0000 247.5000 354.2500 Du        
   5184 ****       124.0000 247.5000 359.0000 Du        
   5185 ****       124.0000 247.7500 353.7500 Du        
   5186 ****       124.0000 247.7500 354.0000 Du        
   5187 ****       124.0000 247.7500 354.2500 Du        
   5188 ****       124.0000 247.7500 359.0000 Du        
   5189 ****       124.0000 247.7500 359.2500 Du        
   5190 ****       124.0000 247.7500 359.5000 Du        
   5191 ****       124.0000 248.0000 354.0000 Du        
   5192 ****       124.0000 248.0000 354.2500 Du        
   5193 ****       124.0000 248.0000 359.0000 Du        
   5194 ****       124.0000 248.0000 359.2500 Du        
   5195 ****       124.0000 248.0000 359.5000 Du        
   5196 ****       124.0000 248.2500 354.2500 Du        
   5197 ****       124.0000 248.2500 359.0000 Du        
   5198 ****       124.0000 248.2500 359.2500 Du        
   5199 ****       124.0000 248.2500 359.5000 Du        
   5200 ****       124.0000 248.2500 359.7500 Du        
   5201 ****       124.0000 248.5000 359.0000 Du        
   5202 ****       124.0000 248.5000 359.2500 Du        
   5203 ****       124.0000 248.5000 359.5000 Du        
   5204 ****       124.0000 248.5000 359.7500 Du        
   5205 ****       124.0000 248.7500 359.0000 Du        
   5206 ****       124.0000 248.7500 359.2500 Du        
   5207 ****       124.0000 248.7500 359.5000 Du        
   5208 ****       124.0000 248.7500 359.7500 Du        
   5209 ****       124.0000 248.7500 360.0000 Du        
   5210 ****       124.0000 249.0000 359.0000 Du        
   5211 ****       124.0000 249.0000 359.2500 Du        
   5212 ****       124.0000 249.0000 359.5000 Du        
   5213 ****       124.0000 249.0000 359.7500 Du        
   5214 ****       124.0000 249.0000 360.0000 Du        
   5215 ****       124.0000 249.2500 359.0000 Du        
   5216 ****       124.0000 249.2500 359.2500 Du        
   5217 ****       124.0000 249.2500 359.5000 Du        
   5218 ****       124.0000 249.2500 359.7500 Du        
   5219 ****       124.0000 249.2500 360.0000 Du        
   5220 ****       124.0000 249.2500 360.2500 Du        
   5221 ****       124.0000 249.5000 359.0000 Du        
   5222 ****       124.0000 249.5000 359.2500 Du        
   5223 ****       124.0000 249.5000 359.5000 Du        
   5224 ****       124.0000 249.5000 359.7500 Du        
   5225 ****       124.0000 249.5000 360.0000 Du        
   5226 ****       124.0000 249.5000 360.2500 Du        
   5227 ****       124.0000 249.5000 360.5000 Du        
   5228 ****       124.0000 249.7500 359.0000 Du        
   5229 ****       124.0000 249.7500 359.2500 Du        
   5230 ****       124.0000 249.7500 359.5000 Du        
   5231 ****       124.0000 249.7500 359.7500 Du        
   5232 ****       124.0000 249.7500 360.0000 Du        
   5233 ****       124.0000 249.7500 360.2500 Du        
   5234 ****       124.0000 249.7500 360.5000 Du        
   5235 ****       124.0000 249.7500 360.7500 Du        
   5236 ****       124.0000 250.0000 359.0000 Du        
   5237 ****       124.0000 250.0000 359.2500 Du        
   5238 ****       124.0000 250.0000 359.5000 Du        
   5239 ****       124.0000 250.0000 359.7500 Du        
   5240 ****       124.0000 250.0000 360.0000 Du        
   5241 ****       124.0000 250.0000 360.2500 Du        
   5242 ****       124.0000 250.0000 360.5000 Du        
   5243 ****       124.0000 250.0000 360.7500 Du        
   5244 ****       124.0000 250.0000 361.0000 Du        
   5245 ****       124.0000 250.2500 359.2500 Du        
   5246 ****       124.0000 250.2500 359.5000 Du        
   5247 ****       124.0000 250.2500 359.7500 Du        
   5248 ****       124.0000 250.2500 360.0000 Du        
   5249 ****       124.0000 250.2500 360.2500 Du        
   5250 ****       124.0000 250.2500 360.5000 Du        
   5251 ****       124.0000 250.2500 360.7500 Du        
   5252 ****       124.0000 250.2500 361.0000 Du        
   5253 ****       124.0000 250.5000 359.2500 Du        
   5254 ****       124.0000 250.5000 359.5000 Du        
   5255 ****       124.0000 250.5000 359.7500 Du        
   5256 ****       124.0000 250.5000 360.0000 Du        
   5257 ****       124.0000 250.5000 360.2500 Du        
   5258 ****       124.0000 250.5000 360.5000 Du        
   5259 ****       124.0000 250.5000 360.7500 Du        
   5260 ****       124.0000 250.7500 359.2500 Du        
   5261 ****       124.0000 250.7500 359.5000 Du        
   5262 ****       124.0000 250.7500 359.7500 Du        
   5263 ****       124.0000 250.7500 360.0000 Du        
   5264 ****       124.0000 250.7500 360.2500 Du        
   5265 ****       124.0000 250.7500 360.5000 Du        
   5266 ****       124.0000 250.7500 360.7500 Du        
   5267 ****       124.0000 251.0000 359.2500 Du        
   5268 ****       124.0000 251.0000 359.5000 Du        
   5269 ****       124.0000 251.0000 359.7500 Du        
   5270 ****       124.0000 251.0000 360.0000 Du        
   5271 ****       124.0000 251.0000 360.2500 Du        
   5272 ****       124.0000 251.0000 360.5000 Du        
   5273 ****       124.0000 251.2500 359.5000 Du        
   5274 ****       124.0000 251.2500 359.7500 Du        
   5275 ****       124.0000 251.2500 360.0000 Du        
   5276 ****       124.0000 252.2500 355.2500 Du        
   5277 ****       124.0000 252.5000 355.0000 Du        
   5278 ****       124.0000 252.5000 355.2500 Du        
   5279 ****       124.0000 252.7500 354.7500 Du        
   5280 ****       124.0000 252.7500 355.0000 Du        
   5281 ****       124.0000 252.7500 355.2500 Du        
   5282 ****       124.0000 252.7500 355.5000 Du        
   5283 ****       124.0000 252.7500 355.7500 Du        
   5284 ****       124.0000 252.7500 356.0000 Du        
   5285 ****       124.0000 253.0000 354.7500 Du        
   5286 ****       124.0000 253.0000 355.0000 Du        
   5287 ****       124.0000 253.0000 355.2500 Du        
   5288 ****       124.0000 253.0000 355.5000 Du        
   5289 ****       124.0000 253.0000 355.7500 Du        
   5290 ****       124.0000 253.0000 356.0000 Du        
   5291 ****       124.0000 253.0000 356.2500 Du        
   5292 ****       124.0000 253.2500 355.0000 Du        
   5293 ****       124.0000 253.2500 355.2500 Du        
   5294 ****       124.0000 253.2500 355.5000 Du        
   5295 ****       124.0000 253.2500 355.7500 Du        
   5296 ****       124.0000 253.2500 356.0000 Du        
   5297 ****       124.0000 253.2500 356.2500 Du        
   5298 ****       124.0000 253.5000 356.0000 Du        
   5299 ****       124.0000 253.5000 356.2500 Du        
   5300 ****       124.0000 253.5000 356.5000 Du        
   5301 ****       124.0000 253.5000 356.7500 Du        
   5302 ****       124.0000 253.5000 357.0000 Du        
   5303 ****       124.0000 253.5000 357.2500 Du        
   5304 ****       124.0000 253.7500 357.0000 Du        
   5305 ****       124.0000 253.7500 357.2500 Du        
   5306 ****       124.0000 254.0000 356.7500 Du        
   5307 ****       124.0000 254.0000 357.0000 Du        
   5308 ****       124.0000 254.0000 357.2500 Du        
   5309 ****       124.0000 256.5000 359.7500 Du        
   5310 ****       124.0000 256.5000 360.0000 Du        
   5311 ****       124.0000 256.7500 359.7500 Du        
   5312 ****       124.0000 256.7500 360.0000 Du        
   5313 ****       124.0000 256.7500 360.2500 Du        
   5314 ****       124.0000 256.7500 360.5000 Du        
   5315 ****       124.2500 243.5000 359.0000 Du        
   5316 ****       124.2500 243.5000 359.2500 Du        
   5317 ****       124.2500 243.7500 358.5000 Du        
   5318 ****       124.2500 243.7500 358.7500 Du        
   5319 ****       124.2500 243.7500 359.0000 Du        
   5320 ****       124.2500 243.7500 359.2500 Du        
   5321 ****       124.2500 244.0000 358.2500 Du        
   5322 ****       124.2500 244.0000 358.5000 Du        
   5323 ****       124.2500 244.0000 358.7500 Du        
   5324 ****       124.2500 244.0000 359.0000 Du        
   5325 ****       124.2500 244.0000 359.2500 Du        
   5326 ****       124.2500 244.2500 358.0000 Du        
   5327 ****       124.2500 244.2500 358.2500 Du        
   5328 ****       124.2500 244.2500 358.5000 Du        
   5329 ****       124.2500 244.2500 358.7500 Du        
   5330 ****       124.2500 244.2500 359.0000 Du        
   5331 ****       124.2500 244.2500 359.2500 Du        
   5332 ****       124.2500 244.5000 355.2500 Du        
   5333 ****       124.2500 244.5000 357.7500 Du        
   5334 ****       124.2500 244.5000 358.0000 Du        
   5335 ****       124.2500 244.5000 358.2500 Du        
   5336 ****       124.2500 244.5000 358.5000 Du        
   5337 ****       124.2500 244.5000 358.7500 Du        
   5338 ****       124.2500 244.5000 359.0000 Du        
   5339 ****       124.2500 244.7500 354.7500 Du        
   5340 ****       124.2500 244.7500 355.0000 Du        
   5341 ****       124.2500 244.7500 355.2500 Du        
   5342 ****       124.2500 244.7500 355.5000 Du        
   5343 ****       124.2500 244.7500 355.7500 Du        
   5344 ****       124.2500 244.7500 356.0000 Du        
   5345 ****       124.2500 244.7500 357.0000 Du        
   5346 ****       124.2500 244.7500 357.2500 Du        
   5347 ****       124.2500 244.7500 357.5000 Du        
   5348 ****       124.2500 244.7500 357.7500 Du        
   5349 ****       124.2500 244.7500 358.0000 Du        
   5350 ****       124.2500 244.7500 358.2500 Du        
   5351 ****       124.2500 244.7500 358.5000 Du        
   5352 ****       124.2500 244.7500 358.7500 Du        
   5353 ****       124.2500 244.7500 359.0000 Du        
   5354 ****       124.2500 245.0000 354.5000 Du        
   5355 ****       124.2500 245.0000 354.7500 Du        
   5356 ****       124.2500 245.0000 355.0000 Du        
   5357 ****       124.2500 245.0000 355.2500 Du        
   5358 ****       124.2500 245.0000 355.5000 Du        
   5359 ****       124.2500 245.0000 355.7500 Du        
   5360 ****       124.2500 245.0000 356.0000 Du        
   5361 ****       124.2500 245.0000 356.2500 Du        
   5362 ****       124.2500 245.0000 356.5000 Du        
   5363 ****       124.2500 245.0000 356.7500 Du        
   5364 ****       124.2500 245.0000 357.0000 Du        
   5365 ****       124.2500 245.0000 357.2500 Du        
   5366 ****       124.2500 245.0000 357.5000 Du        
   5367 ****       124.2500 245.0000 357.7500 Du        
   5368 ****       124.2500 245.0000 358.0000 Du        
   5369 ****       124.2500 245.0000 358.2500 Du        
   5370 ****       124.2500 245.0000 358.5000 Du        
   5371 ****       124.2500 245.0000 358.7500 Du        
   5372 ****       124.2500 245.0000 359.0000 Du        
   5373 ****       124.2500 245.2500 354.2500 Du        
   5374 ****       124.2500 245.2500 354.5000 Du        
   5375 ****       124.2500 245.2500 354.7500 Du        
   5376 ****       124.2500 245.2500 355.0000 Du        
   5377 ****       124.2500 245.2500 355.2500 Du        
   5378 ****       124.2500 245.2500 355.5000 Du        
   5379 ****       124.2500 245.2500 355.7500 Du        
   5380 ****       124.2500 245.2500 356.0000 Du        
   5381 ****       124.2500 245.2500 356.2500 Du        
   5382 ****       124.2500 245.2500 356.5000 Du        
   5383 ****       124.2500 245.2500 356.7500 Du        
   5384 ****       124.2500 245.2500 357.0000 Du        
   5385 ****       124.2500 245.2500 357.2500 Du        
   5386 ****       124.2500 245.2500 357.5000 Du        
   5387 ****       124.2500 245.2500 357.7500 Du        
   5388 ****       124.2500 245.2500 358.0000 Du        
   5389 ****       124.2500 245.2500 358.2500 Du        
   5390 ****       124.2500 245.2500 358.5000 Du        
   5391 ****       124.2500 245.2500 358.7500 Du        
   5392 ****       124.2500 245.2500 359.0000 Du        
   5393 ****       124.2500 245.5000 354.0000 Du        
   5394 ****       124.2500 245.5000 354.2500 Du        
   5395 ****       124.2500 245.5000 354.5000 Du        
   5396 ****       124.2500 245.5000 354.7500 Du        
   5397 ****       124.2500 245.5000 355.0000 Du        
   5398 ****       124.2500 245.5000 355.2500 Du        
   5399 ****       124.2500 245.5000 355.5000 Du        
   5400 ****       124.2500 245.5000 355.7500 Du        
   5401 ****       124.2500 245.5000 356.0000 Du        
   5402 ****       124.2500 245.5000 356.2500 Du        
   5403 ****       124.2500 245.5000 356.5000 Du        
   5404 ****       124.2500 245.5000 356.7500 Du        
   5405 ****       124.2500 245.5000 357.0000 Du        
   5406 ****       124.2500 245.5000 357.2500 Du        
   5407 ****       124.2500 245.5000 357.5000 Du        
   5408 ****       124.2500 245.5000 357.7500 Du        
   5409 ****       124.2500 245.5000 358.0000 Du        
   5410 ****       124.2500 245.5000 358.2500 Du        
   5411 ****       124.2500 245.5000 358.5000 Du        
   5412 ****       124.2500 245.5000 358.7500 Du        
   5413 ****       124.2500 245.7500 353.7500 Du        
   5414 ****       124.2500 245.7500 354.0000 Du        
   5415 ****       124.2500 245.7500 354.2500 Du        
   5416 ****       124.2500 245.7500 354.5000 Du        
   5417 ****       124.2500 245.7500 354.7500 Du        
   5418 ****       124.2500 245.7500 355.0000 Du        
   5419 ****       124.2500 245.7500 355.2500 Du        
   5420 ****       124.2500 245.7500 355.5000 Du        
   5421 ****       124.2500 245.7500 355.7500 Du        
   5422 ****       124.2500 245.7500 356.0000 Du        
   5423 ****       124.2500 245.7500 356.2500 Du        
   5424 ****       124.2500 245.7500 356.7500 Du        
   5425 ****       124.2500 245.7500 357.0000 Du        
   5426 ****       124.2500 245.7500 357.2500 Du        
   5427 ****       124.2500 245.7500 357.5000 Du        
   5428 ****       124.2500 245.7500 357.7500 Du        
   5429 ****       124.2500 245.7500 358.0000 Du        
   5430 ****       124.2500 245.7500 358.2500 Du        
   5431 ****       124.2500 245.7500 358.5000 Du        
   5432 ****       124.2500 245.7500 358.7500 Du        
   5433 ****       124.2500 246.0000 353.5000 Du        
   5434 ****       124.2500 246.0000 353.7500 Du        
   5435 ****       124.2500 246.0000 354.0000 Du        
   5436 ****       124.2500 246.0000 354.2500 Du        
   5437 ****       124.2500 246.0000 354.5000 Du        
   5438 ****       124.2500 246.0000 354.7500 Du        
   5439 ****       124.2500 246.0000 355.0000 Du        
   5440 ****       124.2500 246.0000 355.2500 Du        
   5441 ****       124.2500 246.0000 355.5000 Du        
   5442 ****       124.2500 246.0000 355.7500 Du        
   5443 ****       124.2500 246.0000 356.0000 Du        
   5444 ****       124.2500 246.0000 356.2500 Du        
   5445 ****       124.2500 246.0000 357.0000 Du        
   5446 ****       124.2500 246.0000 357.2500 Du        
   5447 ****       124.2500 246.0000 357.5000 Du        
   5448 ****       124.2500 246.0000 357.7500 Du        
   5449 ****       124.2500 246.0000 358.0000 Du        
   5450 ****       124.2500 246.0000 358.2500 Du        
   5451 ****       124.2500 246.0000 358.5000 Du        
   5452 ****       124.2500 246.0000 358.7500 Du        
   5453 ****       124.2500 246.2500 353.5000 Du        
   5454 ****       124.2500 246.2500 353.7500 Du        
   5455 ****       124.2500 246.2500 354.0000 Du        
   5456 ****       124.2500 246.2500 354.2500 Du        
   5457 ****       124.2500 246.2500 354.5000 Du        
   5458 ****       124.2500 246.2500 354.7500 Du        
   5459 ****       124.2500 246.2500 355.0000 Du        
   5460 ****       124.2500 246.2500 355.2500 Du        
   5461 ****       124.2500 246.2500 355.5000 Du        
   5462 ****       124.2500 246.2500 355.7500 Du        
   5463 ****       124.2500 246.2500 356.0000 Du        
   5464 ****       124.2500 246.2500 357.7500 Du        
   5465 ****       124.2500 246.2500 358.0000 Du        
   5466 ****       124.2500 246.2500 358.2500 Du        
   5467 ****       124.2500 246.2500 358.5000 Du        
   5468 ****       124.2500 246.2500 358.7500 Du        
   5469 ****       124.2500 246.2500 359.0000 Du        
   5470 ****       124.2500 246.5000 353.5000 Du        
   5471 ****       124.2500 246.5000 353.7500 Du        
   5472 ****       124.2500 246.5000 354.0000 Du        
   5473 ****       124.2500 246.5000 354.2500 Du        
   5474 ****       124.2500 246.5000 354.5000 Du        
   5475 ****       124.2500 246.5000 354.7500 Du        
   5476 ****       124.2500 246.5000 355.0000 Du        
   5477 ****       124.2500 246.5000 355.2500 Du        
   5478 ****       124.2500 246.7500 353.5000 Du        
   5479 ****       124.2500 246.7500 353.7500 Du        
   5480 ****       124.2500 246.7500 354.0000 Du        
   5481 ****       124.2500 246.7500 354.2500 Du        
   5482 ****       124.2500 246.7500 354.5000 Du        
   5483 ****       124.2500 246.7500 354.7500 Du        
   5484 ****       124.2500 246.7500 355.0000 Du        
   5485 ****       124.2500 247.0000 353.5000 Du        
   5486 ****       124.2500 247.0000 353.7500 Du        
   5487 ****       124.2500 247.0000 354.0000 Du        
   5488 ****       124.2500 247.0000 354.2500 Du        
   5489 ****       124.2500 247.0000 354.5000 Du        
   5490 ****       124.2500 247.0000 354.7500 Du        
   5491 ****       124.2500 247.0000 355.0000 Du        
   5492 ****       124.2500 247.0000 358.7500 Du        
   5493 ****       124.2500 247.2500 353.5000 Du        
   5494 ****       124.2500 247.2500 353.7500 Du        
   5495 ****       124.2500 247.2500 354.0000 Du        
   5496 ****       124.2500 247.2500 354.2500 Du        
   5497 ****       124.2500 247.2500 354.5000 Du        
   5498 ****       124.2500 247.2500 354.7500 Du        
   5499 ****       124.2500 247.5000 353.5000 Du        
   5500 ****       124.2500 247.5000 353.7500 Du        
   5501 ****       124.2500 247.5000 354.0000 Du        
   5502 ****       124.2500 247.5000 354.2500 Du        
   5503 ****       124.2500 247.5000 359.2500 Du        
   5504 ****       124.2500 247.7500 353.7500 Du        
   5505 ****       124.2500 247.7500 354.0000 Du        
   5506 ****       124.2500 247.7500 354.2500 Du        
   5507 ****       124.2500 247.7500 359.0000 Du        
   5508 ****       124.2500 247.7500 359.2500 Du        
   5509 ****       124.2500 247.7500 359.5000 Du        
   5510 ****       124.2500 248.0000 353.7500 Du        
   5511 ****       124.2500 248.0000 354.0000 Du        
   5512 ****       124.2500 248.0000 354.2500 Du        
   5513 ****       124.2500 248.0000 359.0000 Du        
   5514 ****       124.2500 248.0000 359.2500 Du        
   5515 ****       124.2500 248.0000 359.5000 Du        
   5516 ****       124.2500 248.2500 354.0000 Du        
   5517 ****       124.2500 248.2500 354.2500 Du        
   5518 ****       124.2500 248.2500 359.0000 Du        
   5519 ****       124.2500 248.2500 359.2500 Du        
   5520 ****       124.2500 248.2500 359.5000 Du        
   5521 ****       124.2500 248.2500 359.7500 Du        
   5522 ****       124.2500 248.5000 359.0000 Du        
   5523 ****       124.2500 248.5000 359.2500 Du        
   5524 ****       124.2500 248.5000 359.5000 Du        
   5525 ****       124.2500 248.5000 359.7500 Du        
   5526 ****       124.2500 248.7500 359.0000 Du        
   5527 ****       124.2500 248.7500 359.2500 Du        
   5528 ****       124.2500 248.7500 359.5000 Du        
   5529 ****       124.2500 248.7500 359.7500 Du        
   5530 ****       124.2500 248.7500 360.0000 Du        
   5531 ****       124.2500 249.0000 359.0000 Du        
   5532 ****       124.2500 249.0000 359.2500 Du        
   5533 ****       124.2500 249.0000 359.5000 Du        
   5534 ****       124.2500 249.0000 359.7500 Du        
   5535 ****       124.2500 249.0000 360.0000 Du        
   5536 ****       124.2500 249.2500 359.0000 Du        
   5537 ****       124.2500 249.2500 359.2500 Du        
   5538 ****       124.2500 249.2500 359.5000 Du        
   5539 ****       124.2500 249.2500 359.7500 Du        
   5540 ****       124.2500 249.2500 360.0000 Du        
   5541 ****       124.2500 249.2500 360.2500 Du        
   5542 ****       124.2500 249.5000 359.0000 Du        
   5543 ****       124.2500 249.5000 359.2500 Du        
   5544 ****       124.2500 249.5000 359.5000 Du        
   5545 ****       124.2500 249.5000 359.7500 Du        
   5546 ****       124.2500 249.5000 360.0000 Du        
   5547 ****       124.2500 249.5000 360.2500 Du        
   5548 ****       124.2500 249.5000 360.5000 Du        
   5549 ****       124.2500 249.7500 359.0000 Du        
   5550 ****       124.2500 249.7500 359.2500 Du        
   5551 ****       124.2500 249.7500 359.5000 Du        
   5552 ****       124.2500 249.7500 359.7500 Du        
   5553 ****       124.2500 249.7500 360.0000 Du        
   5554 ****       124.2500 249.7500 360.2500 Du        
   5555 ****       124.2500 249.7500 360.5000 Du        
   5556 ****       124.2500 249.7500 360.7500 Du        
   5557 ****       124.2500 250.0000 359.0000 Du        
   5558 ****       124.2500 250.0000 359.2500 Du        
   5559 ****       124.2500 250.0000 359.5000 Du        
   5560 ****       124.2500 250.0000 359.7500 Du        
   5561 ****       124.2500 250.0000 360.0000 Du        
   5562 ****       124.2500 250.0000 360.2500 Du        
   5563 ****       124.2500 250.0000 360.5000 Du        
   5564 ****       124.2500 250.0000 360.7500 Du        
   5565 ****       124.2500 250.2500 359.2500 Du        
   5566 ****       124.2500 250.2500 359.5000 Du        
   5567 ****       124.2500 250.2500 359.7500 Du        
   5568 ****       124.2500 250.2500 360.0000 Du        
   5569 ****       124.2500 250.2500 360.2500 Du        
   5570 ****       124.2500 250.2500 360.5000 Du        
   5571 ****       124.2500 250.2500 360.7500 Du        
   5572 ****       124.2500 250.5000 359.2500 Du        
   5573 ****       124.2500 250.5000 359.5000 Du        
   5574 ****       124.2500 250.5000 359.7500 Du        
   5575 ****       124.2500 250.5000 360.0000 Du        
   5576 ****       124.2500 250.5000 360.2500 Du        
   5577 ****       124.2500 250.5000 360.5000 Du        
   5578 ****       124.2500 250.7500 359.2500 Du        
   5579 ****       124.2500 250.7500 359.5000 Du        
   5580 ****       124.2500 250.7500 359.7500 Du        
   5581 ****       124.2500 250.7500 360.0000 Du        
   5582 ****       124.2500 250.7500 360.2500 Du        
   5583 ****       124.2500 250.7500 360.5000 Du        
   5584 ****       124.2500 251.0000 359.5000 Du        
   5585 ****       124.2500 251.0000 359.7500 Du        
   5586 ****       124.2500 251.0000 360.0000 Du        
   5587 ****       124.2500 252.5000 355.0000 Du        
   5588 ****       124.2500 252.7500 355.0000 Du        
   5589 ****       124.2500 252.7500 355.2500 Du        
   5590 ****       124.2500 253.0000 355.0000 Du        
   5591 ****       124.2500 253.0000 355.2500 Du        
   5592 ****       124.2500 253.0000 355.5000 Du        
   5593 ****       124.2500 253.0000 355.7500 Du        
   5594 ****       124.2500 253.0000 356.0000 Du        
   5595 ****       124.2500 253.2500 355.0000 Du        
   5596 ****       124.2500 253.2500 355.2500 Du        
   5597 ****       124.2500 253.2500 355.7500 Du        
   5598 ****       124.2500 253.2500 356.0000 Du        
   5599 ****       124.2500 254.0000 357.0000 Du        
   5600 ****       124.2500 254.0000 357.2500 Du        
   5601 ****       124.2500 254.2500 357.2500 Du        
   5602 ****       124.2500 256.2500 359.0000 Du        
   5603 ****       124.2500 256.2500 359.2500 Du        
   5604 ****       124.2500 256.5000 359.2500 Du        
   5605 ****       124.2500 256.5000 359.5000 Du        
   5606 ****       124.2500 256.5000 359.7500 Du        
   5607 ****       124.2500 256.5000 360.0000 Du        
   5608 ****       124.2500 256.7500 359.2500 Du        
   5609 ****       124.2500 256.7500 359.5000 Du        
   5610 ****       124.2500 256.7500 359.7500 Du        
   5611 ****       124.2500 256.7500 360.0000 Du        
   5612 ****       124.2500 256.7500 360.2500 Du        
   5613 ****       124.2500 256.7500 360.5000 Du        
   5614 ****       124.5000 243.7500 358.7500 Du        
   5615 ****       124.5000 243.7500 359.0000 Du        
   5616 ****       124.5000 243.7500 359.2500 Du        
   5617 ****       124.5000 244.0000 358.5000 Du        
   5618 ****       124.5000 244.0000 358.7500 Du        
   5619 ****       124.5000 244.0000 359.0000 Du        
   5620 ****       124.5000 244.0000 359.2500 Du        
   5621 ****       124.5000 244.2500 358.2500 Du        
   5622 ****       124.5000 244.2500 358.5000 Du        
   5623 ****       124.5000 244.2500 358.7500 Du        
   5624 ****       124.5000 244.2500 359.0000 Du        
   5625 ****       124.5000 244.2500 359.2500 Du        
   5626 ****       124.5000 244.5000 358.0000 Du        
   5627 ****       124.5000 244.5000 358.2500 Du        
   5628 ****       124.5000 244.5000 358.5000 Du        
   5629 ****       124.5000 244.5000 358.7500 Du        
   5630 ****       124.5000 244.5000 359.0000 Du        
   5631 ****       124.5000 244.7500 355.0000 Du        
   5632 ****       124.5000 244.7500 357.7500 Du        
   5633 ****       124.5000 244.7500 358.0000 Du        
   5634 ****       124.5000 244.7500 358.2500 Du        
   5635 ****       124.5000 244.7500 358.5000 Du        
   5636 ****       124.5000 244.7500 358.7500 Du        
   5637 ****       124.5000 244.7500 359.0000 Du        
   5638 ****       124.5000 245.0000 354.7500 Du        
   5639 ****       124.5000 245.0000 355.0000 Du        
   5640 ****       124.5000 245.0000 355.2500 Du        
   5641 ****       124.5000 245.0000 357.5000 Du        
   5642 ****       124.5000 245.0000 357.7500 Du        
   5643 ****       124.5000 245.0000 358.0000 Du        
   5644 ****       124.5000 245.0000 358.2500 Du        
   5645 ****       124.5000 245.0000 358.5000 Du        
   5646 ****       124.5000 245.0000 358.7500 Du        
   5647 ****       124.5000 245.0000 359.0000 Du        
   5648 ****       124.5000 245.2500 354.2500 Du        
   5649 ****       124.5000 245.2500 354.5000 Du        
   5650 ****       124.5000 245.2500 354.7500 Du        
   5651 ****       124.5000 245.2500 355.0000 Du        
   5652 ****       124.5000 245.2500 355.2500 Du        
   5653 ****       124.5000 245.2500 355.5000 Du        
   5654 ****       124.5000 245.2500 355.7500 Du        
   5655 ****       124.5000 245.2500 356.7500 Du        
   5656 ****       124.5000 245.2500 357.0000 Du        
   5657 ****       124.5000 245.2500 357.2500 Du        
   5658 ****       124.5000 245.2500 357.5000 Du        
   5659 ****       124.5000 245.2500 357.7500 Du        
   5660 ****       124.5000 245.2500 358.0000 Du        
   5661 ****       124.5000 245.2500 358.2500 Du        
   5662 ****       124.5000 245.2500 358.5000 Du        
   5663 ****       124.5000 245.2500 358.7500 Du        
   5664 ****       124.5000 245.5000 354.2500 Du        
   5665 ****       124.5000 245.5000 354.5000 Du        
   5666 ****       124.5000 245.5000 354.7500 Du        
   5667 ****       124.5000 245.5000 355.0000 Du        
   5668 ****       124.5000 245.5000 355.2500 Du        
   5669 ****       124.5000 245.5000 355.5000 Du        
   5670 ****       124.5000 245.5000 355.7500 Du        
   5671 ****       124.5000 245.5000 357.0000 Du        
   5672 ****       124.5000 245.5000 357.2500 Du        
   5673 ****       124.5000 245.5000 358.2500 Du        
   5674 ****       124.5000 245.7500 354.0000 Du        
   5675 ****       124.5000 245.7500 354.2500 Du        
   5676 ****       124.5000 245.7500 354.5000 Du        
   5677 ****       124.5000 245.7500 354.7500 Du        
   5678 ****       124.5000 245.7500 355.0000 Du        
   5679 ****       124.5000 245.7500 355.2500 Du        
   5680 ****       124.5000 245.7500 355.5000 Du        
   5681 ****       124.5000 245.7500 355.7500 Du        
   5682 ****       124.5000 245.7500 356.0000 Du        
   5683 ****       124.5000 245.7500 356.2500 Du        
   5684 ****       124.5000 245.7500 356.7500 Du        
   5685 ****       124.5000 245.7500 357.0000 Du        
   5686 ****       124.5000 245.7500 357.2500 Du        
   5687 ****       124.5000 246.0000 353.5000 Du        
   5688 ****       124.5000 246.0000 353.7500 Du        
   5689 ****       124.5000 246.0000 354.0000 Du        
   5690 ****       124.5000 246.0000 354.2500 Du        
   5691 ****       124.5000 246.0000 354.5000 Du        
   5692 ****       124.5000 246.0000 354.7500 Du        
   5693 ****       124.5000 246.0000 355.0000 Du        
   5694 ****       124.5000 246.0000 355.2500 Du        
   5695 ****       124.5000 246.0000 355.5000 Du        
   5696 ****       124.5000 246.0000 355.7500 Du        
   5697 ****       124.5000 246.0000 356.0000 Du        
   5698 ****       124.5000 246.2500 353.5000 Du        
   5699 ****       124.5000 246.2500 353.7500 Du        
   5700 ****       124.5000 246.2500 354.0000 Du        
   5701 ****       124.5000 246.2500 354.2500 Du        
   5702 ****       124.5000 246.2500 354.5000 Du        
   5703 ****       124.5000 246.2500 354.7500 Du        
   5704 ****       124.5000 246.2500 355.0000 Du        
   5705 ****       124.5000 246.2500 355.2500 Du        
   5706 ****       124.5000 246.2500 355.5000 Du        
   5707 ****       124.5000 246.2500 355.7500 Du        
   5708 ****       124.5000 246.5000 353.5000 Du        
   5709 ****       124.5000 246.5000 353.7500 Du        
   5710 ****       124.5000 246.5000 354.0000 Du        
   5711 ****       124.5000 246.5000 354.2500 Du        
   5712 ****       124.5000 246.5000 354.5000 Du        
   5713 ****       124.5000 246.5000 354.7500 Du        
   5714 ****       124.5000 246.5000 355.0000 Du        
   5715 ****       124.5000 246.5000 355.2500 Du        
   5716 ****       124.5000 246.7500 353.5000 Du        
   5717 ****       124.5000 246.7500 353.7500 Du        
   5718 ****       124.5000 246.7500 354.0000 Du        
   5719 ****       124.5000 246.7500 354.2500 Du        
   5720 ****       124.5000 246.7500 354.5000 Du        
   5721 ****       124.5000 246.7500 354.7500 Du        
   5722 ****       124.5000 246.7500 355.0000 Du        
   5723 ****       124.5000 247.0000 353.5000 Du        
   5724 ****       124.5000 247.0000 353.7500 Du        
   5725 ****       124.5000 247.0000 354.0000 Du        
   5726 ****       124.5000 247.0000 354.2500 Du        
   5727 ****       124.5000 247.0000 354.5000 Du        
   5728 ****       124.5000 247.2500 353.5000 Du        
   5729 ****       124.5000 247.2500 353.7500 Du        
   5730 ****       124.5000 247.2500 354.0000 Du        
   5731 ****       124.5000 247.2500 354.2500 Du        
   5732 ****       124.5000 247.5000 353.5000 Du        
   5733 ****       124.5000 247.5000 353.7500 Du        
   5734 ****       124.5000 247.5000 354.0000 Du        
   5735 ****       124.5000 247.5000 354.2500 Du        
   5736 ****       124.5000 247.5000 359.2500 Du        
   5737 ****       124.5000 247.7500 353.5000 Du        
   5738 ****       124.5000 247.7500 353.7500 Du        
   5739 ****       124.5000 247.7500 354.0000 Du        
   5740 ****       124.5000 247.7500 354.2500 Du        
   5741 ****       124.5000 247.7500 359.0000 Du        
   5742 ****       124.5000 247.7500 359.2500 Du        
   5743 ****       124.5000 247.7500 359.5000 Du        
   5744 ****       124.5000 248.0000 353.7500 Du        
   5745 ****       124.5000 248.0000 354.0000 Du        
   5746 ****       124.5000 248.0000 354.2500 Du        
   5747 ****       124.5000 248.0000 359.2500 Du        
   5748 ****       124.5000 248.0000 359.5000 Du        
   5749 ****       124.5000 248.2500 359.0000 Du        
   5750 ****       124.5000 248.2500 359.2500 Du        
   5751 ****       124.5000 248.2500 359.5000 Du        
   5752 ****       124.5000 248.2500 359.7500 Du        
   5753 ****       124.5000 248.5000 359.0000 Du        
   5754 ****       124.5000 248.5000 359.2500 Du        
   5755 ****       124.5000 248.5000 359.5000 Du        
   5756 ****       124.5000 248.5000 359.7500 Du        
   5757 ****       124.5000 248.7500 359.0000 Du        
   5758 ****       124.5000 248.7500 359.2500 Du        
   5759 ****       124.5000 248.7500 359.5000 Du        
   5760 ****       124.5000 248.7500 359.7500 Du        
   5761 ****       124.5000 248.7500 360.0000 Du        
   5762 ****       124.5000 249.0000 359.0000 Du        
   5763 ****       124.5000 249.0000 359.2500 Du        
   5764 ****       124.5000 249.0000 359.5000 Du        
   5765 ****       124.5000 249.0000 359.7500 Du        
   5766 ****       124.5000 249.0000 360.0000 Du        
   5767 ****       124.5000 249.2500 359.2500 Du        
   5768 ****       124.5000 249.2500 359.5000 Du        
   5769 ****       124.5000 249.2500 359.7500 Du        
   5770 ****       124.5000 249.2500 360.0000 Du        
   5771 ****       124.5000 249.2500 360.2500 Du        
   5772 ****       124.5000 249.5000 359.0000 Du        
   5773 ****       124.5000 249.5000 359.2500 Du        
   5774 ****       124.5000 249.5000 359.5000 Du        
   5775 ****       124.5000 249.5000 359.7500 Du        
   5776 ****       124.5000 249.5000 360.0000 Du        
   5777 ****       124.5000 249.5000 360.2500 Du        
   5778 ****       124.5000 249.5000 360.5000 Du        
   5779 ****       124.5000 249.7500 359.0000 Du        
   5780 ****       124.5000 249.7500 359.2500 Du        
   5781 ****       124.5000 249.7500 359.5000 Du        
   5782 ****       124.5000 249.7500 359.7500 Du        
   5783 ****       124.5000 249.7500 360.0000 Du        
   5784 ****       124.5000 249.7500 360.2500 Du        
   5785 ****       124.5000 249.7500 360.5000 Du        
   5786 ****       124.5000 250.0000 359.2500 Du        
   5787 ****       124.5000 250.0000 359.5000 Du        
   5788 ****       124.5000 250.0000 359.7500 Du        
   5789 ****       124.5000 250.0000 360.0000 Du        
   5790 ****       124.5000 250.0000 360.2500 Du        
   5791 ****       124.5000 250.0000 360.5000 Du        
   5792 ****       124.5000 250.2500 359.2500 Du        
   5793 ****       124.5000 250.2500 359.5000 Du        
   5794 ****       124.5000 250.2500 359.7500 Du        
   5795 ****       124.5000 250.2500 360.0000 Du        
   5796 ****       124.5000 250.2500 360.2500 Du        
   5797 ****       124.5000 250.2500 360.5000 Du        
   5798 ****       124.5000 250.5000 359.5000 Du        
   5799 ****       124.5000 250.5000 359.7500 Du        
   5800 ****       124.5000 250.5000 360.0000 Du        
   5801 ****       124.5000 250.5000 360.2500 Du        
   5802 ****       124.5000 250.7500 359.5000 Du        
   5803 ****       124.5000 250.7500 359.7500 Du        
   5804 ****       124.5000 250.7500 360.0000 Du        
   5805 ****       124.5000 255.5000 358.0000 Du        
   5806 ****       124.5000 255.7500 358.0000 Du        
   5807 ****       124.5000 255.7500 358.2500 Du        
   5808 ****       124.5000 256.0000 358.2500 Du        
   5809 ****       124.5000 256.0000 358.7500 Du        
   5810 ****       124.5000 256.2500 358.7500 Du        
   5811 ****       124.5000 256.2500 359.0000 Du        
   5812 ****       124.5000 256.5000 358.5000 Du        
   5813 ****       124.5000 256.5000 358.7500 Du        
   5814 ****       124.5000 256.5000 359.0000 Du        
   5815 ****       124.5000 256.5000 359.2500 Du        
   5816 ****       124.5000 256.5000 359.5000 Du        
   5817 ****       124.5000 256.5000 359.7500 Du        
   5818 ****       124.5000 256.7500 358.7500 Du        
   5819 ****       124.5000 256.7500 359.0000 Du        
   5820 ****       124.5000 256.7500 359.2500 Du        
   5821 ****       124.5000 256.7500 359.5000 Du        
   5822 ****       124.5000 256.7500 359.7500 Du        
   5823 ****       124.5000 256.7500 360.0000 Du        
   5824 ****       124.5000 256.7500 360.2500 Du        
   5825 ****       124.7500 243.7500 359.0000 Du        
   5826 ****       124.7500 243.7500 359.2500 Du        
   5827 ****       124.7500 244.0000 358.7500 Du        
   5828 ****       124.7500 244.0000 359.0000 Du        
   5829 ****       124.7500 244.0000 359.2500 Du        
   5830 ****       124.7500 244.2500 358.5000 Du        
   5831 ****       124.7500 244.2500 358.7500 Du        
   5832 ****       124.7500 244.2500 359.0000 Du        
   5833 ****       124.7500 244.2500 359.2500 Du        
   5834 ****       124.7500 244.5000 358.5000 Du        
   5835 ****       124.7500 244.5000 358.7500 Du        
   5836 ****       124.7500 244.5000 359.0000 Du        
   5837 ****       124.7500 244.7500 358.2500 Du        
   5838 ****       124.7500 244.7500 358.5000 Du        
   5839 ****       124.7500 244.7500 358.7500 Du        
   5840 ****       124.7500 245.2500 354.5000 Du        
   5841 ****       124.7500 245.2500 354.7500 Du        
   5842 ****       124.7500 245.2500 355.0000 Du        
   5843 ****       124.7500 245.2500 355.2500 Du        
   5844 ****       124.7500 245.5000 354.2500 Du        
   5845 ****       124.7500 245.5000 354.5000 Du        
   5846 ****       124.7500 245.5000 354.7500 Du        
   5847 ****       124.7500 245.5000 355.0000 Du        
   5848 ****       124.7500 245.5000 355.2500 Du        
   5849 ****       124.7500 245.7500 354.0000 Du        
   5850 ****       124.7500 245.7500 354.2500 Du        
   5851 ****       124.7500 245.7500 354.5000 Du        
   5852 ****       124.7500 245.7500 354.7500 Du        
   5853 ****       124.7500 245.7500 355.0000 Du        
   5854 ****       124.7500 245.7500 355.2500 Du        
   5855 ****       124.7500 245.7500 355.5000 Du        
   5856 ****       124.7500 245.7500 355.7500 Du        
   5857 ****       124.7500 246.0000 353.7500 Du        
   5858 ****       124.7500 246.0000 354.0000 Du        
   5859 ****       124.7500 246.0000 354.2500 Du        
   5860 ****       124.7500 246.0000 354.5000 Du        
   5861 ****       124.7500 246.0000 354.7500 Du        
   5862 ****       124.7500 246.0000 355.0000 Du        
   5863 ****       124.7500 246.0000 355.2500 Du        
   5864 ****       124.7500 246.0000 355.5000 Du        
   5865 ****       124.7500 246.0000 355.7500 Du        
   5866 ****       124.7500 246.0000 356.0000 Du        
   5867 ****       124.7500 246.0000 356.2500 Du        
   5868 ****       124.7500 246.2500 353.5000 Du        
   5869 ****       124.7500 246.2500 353.7500 Du        
   5870 ****       124.7500 246.2500 354.0000 Du        
   5871 ****       124.7500 246.2500 354.2500 Du        
   5872 ****       124.7500 246.2500 354.5000 Du        
   5873 ****       124.7500 246.2500 354.7500 Du        
   5874 ****       124.7500 246.2500 355.0000 Du        
   5875 ****       124.7500 246.2500 355.2500 Du        
   5876 ****       124.7500 246.2500 355.5000 Du        
   5877 ****       124.7500 246.2500 355.7500 Du        
   5878 ****       124.7500 246.2500 356.0000 Du        
   5879 ****       124.7500 246.5000 353.5000 Du        
   5880 ****       124.7500 246.5000 353.7500 Du        
   5881 ****       124.7500 246.5000 354.0000 Du        
   5882 ****       124.7500 246.5000 354.2500 Du        
   5883 ****       124.7500 246.5000 354.5000 Du        
   5884 ****       124.7500 246.5000 354.7500 Du        
   5885 ****       124.7500 246.5000 355.0000 Du        
   5886 ****       124.7500 246.5000 355.2500 Du        
   5887 ****       124.7500 246.7500 353.5000 Du        
   5888 ****       124.7500 246.7500 353.7500 Du        
   5889 ****       124.7500 246.7500 354.0000 Du        
   5890 ****       124.7500 246.7500 354.2500 Du        
   5891 ****       124.7500 246.7500 354.5000 Du        
   5892 ****       124.7500 246.7500 354.7500 Du        
   5893 ****       124.7500 246.7500 355.0000 Du        
   5894 ****       124.7500 246.7500 355.2500 Du        
   5895 ****       124.7500 247.0000 353.5000 Du        
   5896 ****       124.7500 247.0000 353.7500 Du        
   5897 ****       124.7500 247.0000 354.0000 Du        
   5898 ****       124.7500 247.0000 354.2500 Du        
   5899 ****       124.7500 247.0000 354.5000 Du        
   5900 ****       124.7500 247.0000 354.7500 Du        
   5901 ****       124.7500 247.0000 355.0000 Du        
   5902 ****       124.7500 247.2500 353.5000 Du        
   5903 ****       124.7500 247.2500 353.7500 Du        
   5904 ****       124.7500 247.2500 354.0000 Du        
   5905 ****       124.7500 247.2500 354.2500 Du        
   5906 ****       124.7500 247.5000 353.5000 Du        
   5907 ****       124.7500 247.5000 353.7500 Du        
   5908 ****       124.7500 247.5000 354.0000 Du        
   5909 ****       124.7500 247.5000 354.2500 Du        
   5910 ****       124.7500 247.7500 353.5000 Du        
   5911 ****       124.7500 247.7500 353.7500 Du        
   5912 ****       124.7500 247.7500 354.0000 Du        
   5913 ****       124.7500 247.7500 354.2500 Du        
   5914 ****       124.7500 248.0000 353.5000 Du        
   5915 ****       124.7500 248.0000 353.7500 Du        
   5916 ****       124.7500 248.0000 354.0000 Du        
   5917 ****       124.7500 248.0000 354.2500 Du        
   5918 ****       124.7500 248.0000 359.2500 Du        
   5919 ****       124.7500 248.0000 359.5000 Du        
   5920 ****       124.7500 248.2500 353.7500 Du        
   5921 ****       124.7500 248.2500 354.0000 Du        
   5922 ****       124.7500 248.2500 359.0000 Du        
   5923 ****       124.7500 248.2500 359.2500 Du        
   5924 ****       124.7500 248.2500 359.5000 Du        
   5925 ****       124.7500 248.2500 359.7500 Du        
   5926 ****       124.7500 248.5000 359.0000 Du        
   5927 ****       124.7500 248.5000 359.2500 Du        
   5928 ****       124.7500 248.5000 359.5000 Du        
   5929 ****       124.7500 248.5000 359.7500 Du        
   5930 ****       124.7500 248.5000 360.0000 Du        
   5931 ****       124.7500 248.7500 359.0000 Du        
   5932 ****       124.7500 248.7500 359.2500 Du        
   5933 ****       124.7500 248.7500 359.5000 Du        
   5934 ****       124.7500 248.7500 359.7500 Du        
   5935 ****       124.7500 248.7500 360.0000 Du        
   5936 ****       124.7500 249.0000 359.0000 Du        
   5937 ****       124.7500 249.0000 359.2500 Du        
   5938 ****       124.7500 249.0000 359.5000 Du        
   5939 ****       124.7500 249.0000 359.7500 Du        
   5940 ****       124.7500 249.0000 360.0000 Du        
   5941 ****       124.7500 249.0000 360.2500 Du        
   5942 ****       124.7500 249.2500 359.0000 Du        
   5943 ****       124.7500 249.2500 359.2500 Du        
   5944 ****       124.7500 249.2500 359.5000 Du        
   5945 ****       124.7500 249.2500 359.7500 Du        
   5946 ****       124.7500 249.2500 360.0000 Du        
   5947 ****       124.7500 249.2500 360.2500 Du        
   5948 ****       124.7500 249.5000 359.0000 Du        
   5949 ****       124.7500 249.5000 359.2500 Du        
   5950 ****       124.7500 249.5000 359.5000 Du        
   5951 ****       124.7500 249.5000 359.7500 Du        
   5952 ****       124.7500 249.5000 360.0000 Du        
   5953 ****       124.7500 249.5000 360.2500 Du        
   5954 ****       124.7500 249.5000 360.5000 Du        
   5955 ****       124.7500 249.7500 359.0000 Du        
   5956 ****       124.7500 249.7500 359.2500 Du        
   5957 ****       124.7500 249.7500 359.5000 Du        
   5958 ****       124.7500 249.7500 359.7500 Du        
   5959 ****       124.7500 249.7500 360.0000 Du        
   5960 ****       124.7500 249.7500 360.2500 Du        
   5961 ****       124.7500 249.7500 360.5000 Du        
   5962 ****       124.7500 250.0000 359.0000 Du        
   5963 ****       124.7500 250.0000 359.2500 Du        
   5964 ****       124.7500 250.0000 359.5000 Du        
   5965 ****       124.7500 250.0000 359.7500 Du        
   5966 ****       124.7500 250.0000 360.0000 Du        
   5967 ****       124.7500 250.0000 360.2500 Du        
   5968 ****       124.7500 250.0000 360.5000 Du        
   5969 ****       124.7500 250.2500 359.2500 Du        
   5970 ****       124.7500 250.2500 359.5000 Du        
   5971 ****       124.7500 250.2500 359.7500 Du        
   5972 ****       124.7500 250.2500 360.0000 Du        
   5973 ****       124.7500 250.2500 360.2500 Du        
   5974 ****       124.7500 250.5000 359.5000 Du        
   5975 ****       124.7500 250.5000 359.7500 Du        
   5976 ****       124.7500 250.5000 360.0000 Du        
   5977 ****       124.7500 250.7500 359.5000 Du        
   5978 ****       124.7500 250.7500 359.7500 Du        
   5979 ****       124.7500 255.2500 357.7500 Du        
   5980 ****       124.7500 255.2500 358.0000 Du        
   5981 ****       124.7500 255.5000 357.7500 Du        
   5982 ****       124.7500 255.5000 358.0000 Du        
   5983 ****       124.7500 255.5000 358.2500 Du        
   5984 ****       124.7500 255.7500 357.7500 Du        
   5985 ****       124.7500 255.7500 358.0000 Du        
   5986 ****       124.7500 255.7500 358.2500 Du        
   5987 ****       124.7500 256.0000 357.7500 Du        
   5988 ****       124.7500 256.0000 358.0000 Du        
   5989 ****       124.7500 256.0000 358.2500 Du        
   5990 ****       124.7500 256.0000 358.5000 Du        
   5991 ****       124.7500 256.0000 358.7500 Du        
   5992 ****       124.7500 256.2500 357.7500 Du        
   5993 ****       124.7500 256.2500 358.0000 Du        
   5994 ****       124.7500 256.2500 358.2500 Du        
   5995 ****       124.7500 256.2500 358.5000 Du        
   5996 ****       124.7500 256.2500 358.7500 Du        
   5997 ****       124.7500 256.2500 359.0000 Du        
   5998 ****       124.7500 256.5000 357.7500 Du        
   5999 ****       124.7500 256.5000 358.0000 Du        
   6000 ****       124.7500 256.5000 358.2500 Du        
   6001 ****       124.7500 256.5000 358.5000 Du        
   6002 ****       124.7500 256.5000 358.7500 Du        
   6003 ****       124.7500 256.5000 359.0000 Du        
   6004 ****       124.7500 256.5000 359.2500 Du        
   6005 ****       124.7500 256.5000 359.5000 Du        
   6006 ****       124.7500 256.7500 357.7500 Du        
   6007 ****       124.7500 256.7500 358.0000 Du        
   6008 ****       124.7500 256.7500 358.2500 Du        
   6009 ****       124.7500 256.7500 358.5000 Du        
   6010 ****       124.7500 256.7500 358.7500 Du        
   6011 ****       124.7500 256.7500 359.0000 Du        
   6012 ****       124.7500 256.7500 359.2500 Du        
   6013 ****       124.7500 256.7500 359.5000 Du        
   6014 ****       124.7500 256.7500 359.7500 Du        
   6015 ****       124.7500 256.7500 360.0000 Du        
   6016 ****       125.0000 244.0000 359.0000 Du        
   6017 ****       125.0000 245.5000 354.2500 Du        
   6018 ****       125.0000 245.5000 354.5000 Du        
   6019 ****       125.0000 245.5000 354.7500 Du        
   6020 ****       125.0000 245.7500 353.7500 Du        
   6021 ****       125.0000 245.7500 354.0000 Du        
   6022 ****       125.0000 245.7500 354.2500 Du        
   6023 ****       125.0000 245.7500 354.5000 Du        
   6024 ****       125.0000 245.7500 354.7500 Du        
   6025 ****       125.0000 245.7500 355.0000 Du        
   6026 ****       125.0000 245.7500 355.2500 Du        
   6027 ****       125.0000 246.0000 353.5000 Du        
   6028 ****       125.0000 246.0000 353.7500 Du        
   6029 ****       125.0000 246.0000 354.0000 Du        
   6030 ****       125.0000 246.0000 354.2500 Du        
   6031 ****       125.0000 246.0000 354.5000 Du        
   6032 ****       125.0000 246.0000 354.7500 Du        
   6033 ****       125.0000 246.0000 355.0000 Du        
   6034 ****       125.0000 246.0000 355.2500 Du        
   6035 ****       125.0000 246.0000 355.5000 Du        
   6036 ****       125.0000 246.0000 355.7500 Du        
   6037 ****       125.0000 246.0000 356.0000 Du        
   6038 ****       125.0000 246.2500 353.5000 Du        
   6039 ****       125.0000 246.2500 353.7500 Du        
   6040 ****       125.0000 246.2500 354.0000 Du        
   6041 ****       125.0000 246.2500 354.2500 Du        
   6042 ****       125.0000 246.2500 354.5000 Du        
   6043 ****       125.0000 246.2500 354.7500 Du        
   6044 ****       125.0000 246.2500 355.0000 Du        
   6045 ****       125.0000 246.2500 355.2500 Du        
   6046 ****       125.0000 246.2500 355.5000 Du        
   6047 ****       125.0000 246.2500 355.7500 Du        
   6048 ****       125.0000 246.2500 356.0000 Du        
   6049 ****       125.0000 246.5000 353.5000 Du        
   6050 ****       125.0000 246.5000 353.7500 Du        
   6051 ****       125.0000 246.5000 354.0000 Du        
   6052 ****       125.0000 246.5000 354.2500 Du        
   6053 ****       125.0000 246.5000 354.5000 Du        
   6054 ****       125.0000 246.5000 354.7500 Du        
   6055 ****       125.0000 246.5000 355.0000 Du        
   6056 ****       125.0000 246.5000 355.2500 Du        
   6057 ****       125.0000 246.7500 353.2500 Du        
   6058 ****       125.0000 246.7500 353.5000 Du        
   6059 ****       125.0000 246.7500 353.7500 Du        
   6060 ****       125.0000 246.7500 354.0000 Du        
   6061 ****       125.0000 246.7500 354.2500 Du        
   6062 ****       125.0000 246.7500 354.5000 Du        
   6063 ****       125.0000 246.7500 354.7500 Du        
   6064 ****       125.0000 246.7500 355.0000 Du        
   6065 ****       125.0000 246.7500 355.2500 Du        
   6066 ****       125.0000 247.0000 353.2500 Du        
   6067 ****       125.0000 247.0000 353.5000 Du        
   6068 ****       125.0000 247.0000 353.7500 Du        
   6069 ****       125.0000 247.0000 354.0000 Du        
   6070 ****       125.0000 247.0000 354.2500 Du        
   6071 ****       125.0000 247.0000 354.5000 Du        
   6072 ****       125.0000 247.0000 354.7500 Du        
   6073 ****       125.0000 247.0000 355.0000 Du        
   6074 ****       125.0000 247.2500 353.2500 Du        
   6075 ****       125.0000 247.2500 353.5000 Du        
   6076 ****       125.0000 247.2500 353.7500 Du        
   6077 ****       125.0000 247.2500 354.0000 Du        
   6078 ****       125.0000 247.2500 354.2500 Du        
   6079 ****       125.0000 247.5000 353.5000 Du        
   6080 ****       125.0000 247.5000 353.7500 Du        
   6081 ****       125.0000 247.5000 354.0000 Du        
   6082 ****       125.0000 247.5000 354.2500 Du        
   6083 ****       125.0000 247.7500 353.5000 Du        
   6084 ****       125.0000 247.7500 353.7500 Du        
   6085 ****       125.0000 247.7500 354.0000 Du        
   6086 ****       125.0000 248.0000 353.5000 Du        
   6087 ****       125.0000 248.0000 353.7500 Du        
   6088 ****       125.0000 248.0000 354.0000 Du        
   6089 ****       125.0000 248.2500 353.5000 Du        
   6090 ****       125.0000 248.2500 353.7500 Du        
   6091 ****       125.0000 248.2500 354.0000 Du        
   6092 ****       125.0000 248.2500 359.5000 Du        
   6093 ****       125.0000 248.2500 359.7500 Du        
   6094 ****       125.0000 248.5000 359.2500 Du        
   6095 ****       125.0000 248.5000 359.5000 Du        
   6096 ****       125.0000 248.5000 359.7500 Du        
   6097 ****       125.0000 248.5000 360.0000 Du        
   6098 ****       125.0000 248.7500 359.2500 Du        
   6099 ****       125.0000 248.7500 359.5000 Du        
   6100 ****       125.0000 248.7500 359.7500 Du        
   6101 ****       125.0000 248.7500 360.0000 Du        
   6102 ****       125.0000 249.0000 359.0000 Du        
   6103 ****       125.0000 249.0000 359.2500 Du        
   6104 ****       125.0000 249.0000 359.5000 Du        
   6105 ****       125.0000 249.0000 359.7500 Du        
   6106 ****       125.0000 249.0000 360.0000 Du        
   6107 ****       125.0000 249.0000 360.2500 Du        
   6108 ****       125.0000 249.2500 359.0000 Du        
   6109 ****       125.0000 249.2500 359.2500 Du        
   6110 ****       125.0000 249.2500 359.5000 Du        
   6111 ****       125.0000 249.2500 359.7500 Du        
   6112 ****       125.0000 249.2500 360.0000 Du        
   6113 ****       125.0000 249.2500 360.2500 Du        
   6114 ****       125.0000 249.5000 359.0000 Du        
   6115 ****       125.0000 249.5000 359.2500 Du        
   6116 ****       125.0000 249.5000 359.5000 Du        
   6117 ****       125.0000 249.5000 359.7500 Du        
   6118 ****       125.0000 249.5000 360.0000 Du        
   6119 ****       125.0000 249.5000 360.2500 Du        
   6120 ****       125.0000 249.7500 359.0000 Du        
   6121 ****       125.0000 249.7500 359.2500 Du        
   6122 ****       125.0000 249.7500 359.5000 Du        
   6123 ****       125.0000 249.7500 359.7500 Du        
   6124 ****       125.0000 249.7500 360.0000 Du        
   6125 ****       125.0000 249.7500 360.2500 Du        
   6126 ****       125.0000 250.0000 359.0000 Du        
   6127 ****       125.0000 250.0000 359.2500 Du        
   6128 ****       125.0000 250.0000 359.5000 Du        
   6129 ****       125.0000 250.0000 359.7500 Du        
   6130 ****       125.0000 250.0000 360.0000 Du        
   6131 ****       125.0000 250.0000 360.2500 Du        
   6132 ****       125.0000 250.2500 359.2500 Du        
   6133 ****       125.0000 250.2500 359.5000 Du        
   6134 ****       125.0000 250.2500 359.7500 Du        
   6135 ****       125.0000 250.2500 360.0000 Du        
   6136 ****       125.0000 250.5000 359.5000 Du        
   6137 ****       125.0000 250.5000 359.7500 Du        
   6138 ****       125.0000 255.2500 357.7500 Du        
   6139 ****       125.0000 255.5000 357.7500 Du        
   6140 ****       125.0000 255.5000 358.0000 Du        
   6141 ****       125.0000 255.7500 357.7500 Du        
   6142 ****       125.0000 255.7500 358.0000 Du        
   6143 ****       125.0000 255.7500 358.2500 Du        
   6144 ****       125.0000 255.7500 358.5000 Du        
   6145 ****       125.0000 256.0000 357.7500 Du        
   6146 ****       125.0000 256.0000 358.0000 Du        
   6147 ****       125.0000 256.0000 358.2500 Du        
   6148 ****       125.0000 256.0000 358.5000 Du        
   6149 ****       125.0000 256.0000 358.7500 Du        
   6150 ****       125.0000 256.2500 357.7500 Du        
   6151 ****       125.0000 256.2500 358.0000 Du        
   6152 ****       125.0000 256.2500 358.2500 Du        
   6153 ****       125.0000 256.2500 358.5000 Du        
   6154 ****       125.0000 256.2500 358.7500 Du        
   6155 ****       125.0000 256.2500 359.0000 Du        
   6156 ****       125.0000 256.5000 357.7500 Du        
   6157 ****       125.0000 256.5000 358.0000 Du        
   6158 ****       125.0000 256.5000 358.2500 Du        
   6159 ****       125.0000 256.5000 358.5000 Du        
   6160 ****       125.0000 256.5000 358.7500 Du        
   6161 ****       125.0000 256.5000 359.0000 Du        
   6162 ****       125.0000 256.5000 359.2500 Du        
   6163 ****       125.0000 256.5000 359.5000 Du        
   6164 ****       125.0000 256.7500 357.7500 Du        
   6165 ****       125.0000 256.7500 358.0000 Du        
   6166 ****       125.0000 256.7500 358.2500 Du        
   6167 ****       125.0000 256.7500 358.5000 Du        
   6168 ****       125.0000 256.7500 358.7500 Du        
   6169 ****       125.0000 256.7500 359.0000 Du        
   6170 ****       125.0000 256.7500 359.2500 Du        
   6171 ****       125.0000 256.7500 359.5000 Du        
   6172 ****       125.0000 256.7500 359.7500 Du        
   6173 ****       125.0000 256.7500 360.0000 Du        
   6174 ****       125.2500 245.7500 353.7500 Du        
   6175 ****       125.2500 245.7500 354.0000 Du        
   6176 ****       125.2500 245.7500 354.2500 Du        
   6177 ****       125.2500 245.7500 354.5000 Du        
   6178 ****       125.2500 245.7500 354.7500 Du        
   6179 ****       125.2500 246.0000 353.5000 Du        
   6180 ****       125.2500 246.0000 353.7500 Du        
   6181 ****       125.2500 246.0000 354.0000 Du        
   6182 ****       125.2500 246.0000 354.2500 Du        
   6183 ****       125.2500 246.0000 354.5000 Du        
   6184 ****       125.2500 246.0000 354.7500 Du        
   6185 ****       125.2500 246.0000 355.0000 Du        
   6186 ****       125.2500 246.0000 355.2500 Du        
   6187 ****       125.2500 246.2500 353.5000 Du        
   6188 ****       125.2500 246.2500 353.7500 Du        
   6189 ****       125.2500 246.2500 354.0000 Du        
   6190 ****       125.2500 246.2500 354.2500 Du        
   6191 ****       125.2500 246.2500 354.5000 Du        
   6192 ****       125.2500 246.2500 354.7500 Du        
   6193 ****       125.2500 246.2500 355.0000 Du        
   6194 ****       125.2500 246.2500 355.2500 Du        
   6195 ****       125.2500 246.2500 355.5000 Du        
   6196 ****       125.2500 246.2500 355.7500 Du        
   6197 ****       125.2500 246.5000 353.5000 Du        
   6198 ****       125.2500 246.5000 353.7500 Du        
   6199 ****       125.2500 246.5000 354.0000 Du        
   6200 ****       125.2500 246.5000 354.2500 Du        
   6201 ****       125.2500 246.5000 354.5000 Du        
   6202 ****       125.2500 246.5000 354.7500 Du        
   6203 ****       125.2500 246.5000 355.0000 Du        
   6204 ****       125.2500 246.5000 355.2500 Du        
   6205 ****       125.2500 246.7500 353.5000 Du        
   6206 ****       125.2500 246.7500 353.7500 Du        
   6207 ****       125.2500 246.7500 354.0000 Du        
   6208 ****       125.2500 246.7500 354.2500 Du        
   6209 ****       125.2500 246.7500 354.5000 Du        
   6210 ****       125.2500 246.7500 354.7500 Du        
   6211 ****       125.2500 246.7500 355.0000 Du        
   6212 ****       125.2500 246.7500 355.2500 Du        
   6213 ****       125.2500 247.0000 353.2500 Du        
   6214 ****       125.2500 247.0000 353.5000 Du        
   6215 ****       125.2500 247.0000 353.7500 Du        
   6216 ****       125.2500 247.0000 354.0000 Du        
   6217 ****       125.2500 247.0000 354.2500 Du        
   6218 ****       125.2500 247.0000 354.5000 Du        
   6219 ****       125.2500 247.0000 354.7500 Du        
   6220 ****       125.2500 247.0000 355.0000 Du        
   6221 ****       125.2500 247.0000 355.2500 Du        
   6222 ****       125.2500 247.2500 353.2500 Du        
   6223 ****       125.2500 247.2500 353.5000 Du        
   6224 ****       125.2500 247.2500 353.7500 Du        
   6225 ****       125.2500 247.2500 354.0000 Du        
   6226 ****       125.2500 247.2500 354.2500 Du        
   6227 ****       125.2500 247.2500 354.5000 Du        
   6228 ****       125.2500 247.2500 354.7500 Du        
   6229 ****       125.2500 247.5000 353.5000 Du        
   6230 ****       125.2500 247.5000 353.7500 Du        
   6231 ****       125.2500 247.5000 354.0000 Du        
   6232 ****       125.2500 247.7500 353.5000 Du        
   6233 ****       125.2500 247.7500 353.7500 Du        
   6234 ****       125.2500 247.7500 354.0000 Du        
   6235 ****       125.2500 248.0000 353.5000 Du        
   6236 ****       125.2500 248.0000 353.7500 Du        
   6237 ****       125.2500 248.2500 353.7500 Du        
   6238 ****       125.2500 248.5000 359.7500 Du        
   6239 ****       125.2500 248.7500 359.5000 Du        
   6240 ****       125.2500 248.7500 359.7500 Du        
   6241 ****       125.2500 248.7500 360.0000 Du        
   6242 ****       125.2500 249.0000 359.2500 Du        
   6243 ****       125.2500 249.0000 359.5000 Du        
   6244 ****       125.2500 249.0000 359.7500 Du        
   6245 ****       125.2500 249.0000 360.0000 Du        
   6246 ****       125.2500 249.0000 360.2500 Du        
   6247 ****       125.2500 249.2500 359.2500 Du        
   6248 ****       125.2500 249.2500 359.5000 Du        
   6249 ****       125.2500 249.2500 359.7500 Du        
   6250 ****       125.2500 249.2500 360.0000 Du        
   6251 ****       125.2500 249.2500 360.2500 Du        
   6252 ****       125.2500 249.5000 359.0000 Du        
   6253 ****       125.2500 249.5000 359.2500 Du        
   6254 ****       125.2500 249.5000 359.5000 Du        
   6255 ****       125.2500 249.5000 359.7500 Du        
   6256 ****       125.2500 249.5000 360.0000 Du        
   6257 ****       125.2500 249.5000 360.2500 Du        
   6258 ****       125.2500 249.7500 359.0000 Du        
   6259 ****       125.2500 249.7500 359.2500 Du        
   6260 ****       125.2500 249.7500 359.5000 Du        
   6261 ****       125.2500 249.7500 359.7500 Du        
   6262 ****       125.2500 249.7500 360.0000 Du        
   6263 ****       125.2500 250.0000 359.0000 Du        
   6264 ****       125.2500 250.0000 359.2500 Du        
   6265 ****       125.2500 250.0000 359.5000 Du        
   6266 ****       125.2500 250.0000 359.7500 Du        
   6267 ****       125.2500 250.0000 360.0000 Du        
   6268 ****       125.2500 250.2500 359.2500 Du        
   6269 ****       125.2500 250.2500 359.5000 Du        
   6270 ****       125.2500 250.2500 359.7500 Du        
   6271 ****       125.2500 255.5000 358.0000 Du        
   6272 ****       125.2500 255.7500 357.7500 Du        
   6273 ****       125.2500 255.7500 358.0000 Du        
   6274 ****       125.2500 255.7500 358.2500 Du        
   6275 ****       125.2500 256.0000 357.7500 Du        
   6276 ****       125.2500 256.0000 358.0000 Du        
   6277 ****       125.2500 256.0000 358.2500 Du        
   6278 ****       125.2500 256.0000 358.5000 Du        
   6279 ****       125.2500 256.0000 358.7500 Du        
   6280 ****       125.2500 256.2500 357.7500 Du        
   6281 ****       125.2500 256.2500 358.0000 Du        
   6282 ****       125.2500 256.2500 358.2500 Du        
   6283 ****       125.2500 256.2500 358.5000 Du        
   6284 ****       125.2500 256.2500 358.7500 Du        
   6285 ****       125.2500 256.2500 359.0000 Du        
   6286 ****       125.2500 256.5000 357.5000 Du        
   6287 ****       125.2500 256.5000 357.7500 Du        
   6288 ****       125.2500 256.5000 358.0000 Du        
   6289 ****       125.2500 256.5000 358.2500 Du        
   6290 ****       125.2500 256.5000 358.5000 Du        
   6291 ****       125.2500 256.5000 358.7500 Du        
   6292 ****       125.2500 256.5000 359.0000 Du        
   6293 ****       125.2500 256.5000 359.2500 Du        
   6294 ****       125.2500 256.5000 359.5000 Du        
   6295 ****       125.2500 256.7500 357.5000 Du        
   6296 ****       125.2500 256.7500 357.7500 Du        
   6297 ****       125.2500 256.7500 358.0000 Du        
   6298 ****       125.2500 256.7500 358.2500 Du        
   6299 ****       125.2500 256.7500 358.5000 Du        
   6300 ****       125.2500 256.7500 358.7500 Du        
   6301 ****       125.2500 256.7500 359.0000 Du        
   6302 ****       125.2500 256.7500 359.2500 Du        
   6303 ****       125.2500 256.7500 359.5000 Du        
   6304 ****       125.2500 256.7500 359.7500 Du        
   6305 ****       125.2500 256.7500 360.0000 Du        
   6306 ****       125.5000 245.7500 353.7500 Du        
   6307 ****       125.5000 245.7500 354.0000 Du        
   6308 ****       125.5000 245.7500 354.2500 Du        
   6309 ****       125.5000 246.0000 353.5000 Du        
   6310 ****       125.5000 246.0000 353.7500 Du        
   6311 ****       125.5000 246.0000 354.0000 Du        
   6312 ****       125.5000 246.0000 354.2500 Du        
   6313 ****       125.5000 246.0000 354.5000 Du        
   6314 ****       125.5000 246.0000 354.7500 Du        
   6315 ****       125.5000 246.2500 353.2500 Du        
   6316 ****       125.5000 246.2500 353.5000 Du        
   6317 ****       125.5000 246.2500 353.7500 Du        
   6318 ****       125.5000 246.2500 354.0000 Du        
   6319 ****       125.5000 246.2500 354.2500 Du        
   6320 ****       125.5000 246.2500 354.5000 Du        
   6321 ****       125.5000 246.2500 354.7500 Du        
   6322 ****       125.5000 246.2500 355.0000 Du        
   6323 ****       125.5000 246.5000 353.2500 Du        
   6324 ****       125.5000 246.5000 353.5000 Du        
   6325 ****       125.5000 246.5000 353.7500 Du        
   6326 ****       125.5000 246.5000 354.0000 Du        
   6327 ****       125.5000 246.5000 354.2500 Du        
   6328 ****       125.5000 246.5000 354.5000 Du        
   6329 ****       125.5000 246.5000 354.7500 Du        
   6330 ****       125.5000 246.7500 353.2500 Du        
   6331 ****       125.5000 246.7500 353.5000 Du        
   6332 ****       125.5000 246.7500 353.7500 Du        
   6333 ****       125.5000 246.7500 354.0000 Du        
   6334 ****       125.5000 246.7500 354.2500 Du        
   6335 ****       125.5000 246.7500 354.5000 Du        
   6336 ****       125.5000 246.7500 354.7500 Du        
   6337 ****       125.5000 246.7500 355.0000 Du        
   6338 ****       125.5000 247.0000 353.2500 Du        
   6339 ****       125.5000 247.0000 353.5000 Du        
   6340 ****       125.5000 247.0000 353.7500 Du        
   6341 ****       125.5000 247.0000 354.0000 Du        
   6342 ****       125.5000 247.0000 354.2500 Du        
   6343 ****       125.5000 247.0000 354.5000 Du        
   6344 ****       125.5000 247.0000 354.7500 Du        
   6345 ****       125.5000 247.0000 355.0000 Du        
   6346 ****       125.5000 247.2500 353.5000 Du        
   6347 ****       125.5000 247.2500 353.7500 Du        
   6348 ****       125.5000 247.2500 354.0000 Du        
   6349 ****       125.5000 247.2500 354.2500 Du        
   6350 ****       125.5000 247.2500 354.5000 Du        
   6351 ****       125.5000 247.5000 353.7500 Du        
   6352 ****       125.5000 247.5000 354.0000 Du        
   6353 ****       125.5000 247.5000 354.2500 Du        
   6354 ****       125.5000 247.7500 353.7500 Du        
   6355 ****       125.5000 249.0000 359.5000 Du        
   6356 ****       125.5000 249.0000 359.7500 Du        
   6357 ****       125.5000 249.0000 360.0000 Du        
   6358 ****       125.5000 249.2500 359.5000 Du        
   6359 ****       125.5000 249.2500 359.7500 Du        
   6360 ****       125.5000 249.2500 360.0000 Du        
   6361 ****       125.5000 249.5000 359.2500 Du        
   6362 ****       125.5000 249.5000 359.5000 Du        
   6363 ****       125.5000 249.5000 359.7500 Du        
   6364 ****       125.5000 249.5000 360.0000 Du        
   6365 ****       125.5000 249.7500 359.2500 Du        
   6366 ****       125.5000 249.7500 359.5000 Du        
   6367 ****       125.5000 249.7500 359.7500 Du        
   6368 ****       125.5000 250.0000 359.2500 Du        
   6369 ****       125.5000 250.0000 359.5000 Du        
   6370 ****       125.5000 256.0000 357.7500 Du        
   6371 ****       125.5000 256.0000 358.0000 Du        
   6372 ****       125.5000 256.0000 358.2500 Du        
   6373 ****       125.5000 256.2500 357.7500 Du        
   6374 ****       125.5000 256.2500 358.0000 Du        
   6375 ****       125.5000 256.2500 358.2500 Du        
   6376 ****       125.5000 256.2500 358.5000 Du        
   6377 ****       125.5000 256.2500 358.7500 Du        
   6378 ****       125.5000 256.5000 357.5000 Du        
   6379 ****       125.5000 256.5000 357.7500 Du        
   6380 ****       125.5000 256.5000 358.0000 Du        
   6381 ****       125.5000 256.5000 358.2500 Du        
   6382 ****       125.5000 256.5000 358.5000 Du        
   6383 ****       125.5000 256.5000 358.7500 Du        
   6384 ****       125.5000 256.5000 359.0000 Du        
   6385 ****       125.5000 256.5000 359.2500 Du        
   6386 ****       125.5000 256.7500 357.5000 Du        
   6387 ****       125.5000 256.7500 357.7500 Du        
   6388 ****       125.5000 256.7500 358.0000 Du        
   6389 ****       125.5000 256.7500 358.2500 Du        
   6390 ****       125.5000 256.7500 358.5000 Du        
   6391 ****       125.5000 256.7500 358.7500 Du        
   6392 ****       125.5000 256.7500 359.0000 Du        
   6393 ****       125.5000 256.7500 359.2500 Du        
   6394 ****       125.5000 256.7500 359.5000 Du        
   6395 ****       125.5000 256.7500 359.7500 Du        
   6396 ****       125.7500 246.0000 353.5000 Du        
   6397 ****       125.7500 246.0000 353.7500 Du        
   6398 ****       125.7500 246.0000 354.0000 Du        
   6399 ****       125.7500 246.0000 354.2500 Du        
   6400 ****       125.7500 246.2500 353.2500 Du        
   6401 ****       125.7500 246.2500 353.5000 Du        
   6402 ****       125.7500 246.2500 353.7500 Du        
   6403 ****       125.7500 246.2500 354.0000 Du        
   6404 ****       125.7500 246.2500 354.2500 Du        
   6405 ****       125.7500 246.2500 354.5000 Du        
   6406 ****       125.7500 246.5000 353.2500 Du        
   6407 ****       125.7500 246.5000 353.5000 Du        
   6408 ****       125.7500 246.5000 353.7500 Du        
   6409 ****       125.7500 246.5000 354.0000 Du        
   6410 ****       125.7500 246.5000 354.2500 Du        
   6411 ****       125.7500 246.5000 354.5000 Du        
   6412 ****       125.7500 246.7500 353.2500 Du        
   6413 ****       125.7500 246.7500 353.5000 Du        
   6414 ****       125.7500 246.7500 353.7500 Du        
   6415 ****       125.7500 246.7500 354.0000 Du        
   6416 ****       125.7500 246.7500 354.2500 Du        
   6417 ****       125.7500 246.7500 354.5000 Du        
   6418 ****       125.7500 246.7500 354.7500 Du        
   6419 ****       125.7500 246.7500 355.0000 Du        
   6420 ****       125.7500 247.0000 353.2500 Du        
   6421 ****       125.7500 247.0000 353.5000 Du        
   6422 ****       125.7500 247.0000 353.7500 Du        
   6423 ****       125.7500 247.0000 354.0000 Du        
   6424 ****       125.7500 247.0000 354.2500 Du        
   6425 ****       125.7500 247.0000 354.5000 Du        
   6426 ****       125.7500 247.0000 354.7500 Du        
   6427 ****       125.7500 247.0000 355.0000 Du        
   6428 ****       125.7500 247.0000 355.2500 Du        
   6429 ****       125.7500 247.2500 353.2500 Du        
   6430 ****       125.7500 247.2500 353.5000 Du        
   6431 ****       125.7500 247.2500 353.7500 Du        
   6432 ****       125.7500 247.2500 354.0000 Du        
   6433 ****       125.7500 247.2500 354.2500 Du        
   6434 ****       125.7500 247.2500 354.5000 Du        
   6435 ****       125.7500 247.5000 353.7500 Du        
   6436 ****       125.7500 247.5000 354.0000 Du        
   6437 ****       125.7500 247.5000 354.2500 Du        
   6438 ****       125.7500 247.7500 353.5000 Du        
   6439 ****       125.7500 247.7500 353.7500 Du        
   6440 ****       125.7500 248.0000 353.7500 Du        
   6441 ****       125.7500 249.2500 359.5000 Du        
   6442 ****       125.7500 249.2500 359.7500 Du        
   6443 ****       125.7500 249.5000 359.5000 Du        
   6444 ****       125.7500 249.5000 359.7500 Du        
   6445 ****       125.7500 249.7500 359.5000 Du        
   6446 ****       125.7500 249.7500 359.7500 Du        
   6447 ****       125.7500 250.0000 352.2500 Du        
   6448 ****       125.7500 256.0000 358.0000 Du        
   6449 ****       125.7500 256.0000 358.2500 Du        
   6450 ****       125.7500 256.2500 357.7500 Du        
   6451 ****       125.7500 256.2500 358.0000 Du        
   6452 ****       125.7500 256.2500 358.2500 Du        
   6453 ****       125.7500 256.5000 357.5000 Du        
   6454 ****       125.7500 256.5000 357.7500 Du        
   6455 ****       125.7500 256.5000 358.0000 Du        
   6456 ****       125.7500 256.5000 358.2500 Du        
   6457 ****       125.7500 256.5000 358.5000 Du        
   6458 ****       125.7500 256.5000 358.7500 Du        
   6459 ****       125.7500 256.5000 359.0000 Du        
   6460 ****       125.7500 256.5000 359.2500 Du        
   6461 ****       125.7500 256.7500 357.5000 Du        
   6462 ****       125.7500 256.7500 357.7500 Du        
   6463 ****       125.7500 256.7500 358.0000 Du        
   6464 ****       125.7500 256.7500 358.2500 Du        
   6465 ****       125.7500 256.7500 358.5000 Du        
   6466 ****       125.7500 256.7500 358.7500 Du        
   6467 ****       125.7500 256.7500 359.0000 Du        
   6468 ****       125.7500 256.7500 359.2500 Du        
   6469 ****       125.7500 256.7500 359.5000 Du        
   6470 ****       125.7500 256.7500 359.7500 Du        
   6471 ****       126.0000 246.0000 353.5000 Du        
   6472 ****       126.0000 246.0000 353.7500 Du        
   6473 ****       126.0000 246.2500 353.2500 Du        
   6474 ****       126.0000 246.2500 353.5000 Du        
   6475 ****       126.0000 246.2500 353.7500 Du        
   6476 ****       126.0000 246.2500 354.0000 Du        
   6477 ****       126.0000 246.2500 354.2500 Du        
   6478 ****       126.0000 246.5000 353.2500 Du        
   6479 ****       126.0000 246.5000 353.5000 Du        
   6480 ****       126.0000 246.5000 353.7500 Du        
   6481 ****       126.0000 246.5000 354.0000 Du        
   6482 ****       126.0000 246.5000 354.2500 Du        
   6483 ****       126.0000 246.7500 353.2500 Du        
   6484 ****       126.0000 246.7500 353.5000 Du        
   6485 ****       126.0000 246.7500 353.7500 Du        
   6486 ****       126.0000 246.7500 354.0000 Du        
   6487 ****       126.0000 246.7500 354.2500 Du        
   6488 ****       126.0000 246.7500 354.5000 Du        
   6489 ****       126.0000 246.7500 354.7500 Du        
   6490 ****       126.0000 247.0000 353.2500 Du        
   6491 ****       126.0000 247.0000 353.5000 Du        
   6492 ****       126.0000 247.0000 353.7500 Du        
   6493 ****       126.0000 247.0000 354.0000 Du        
   6494 ****       126.0000 247.0000 354.2500 Du        
   6495 ****       126.0000 247.0000 354.5000 Du        
   6496 ****       126.0000 247.0000 354.7500 Du        
   6497 ****       126.0000 247.0000 355.0000 Du        
   6498 ****       126.0000 247.2500 353.2500 Du        
   6499 ****       126.0000 247.2500 353.5000 Du        
   6500 ****       126.0000 247.2500 353.7500 Du        
   6501 ****       126.0000 247.2500 354.0000 Du        
   6502 ****       126.0000 247.2500 354.2500 Du        
   6503 ****       126.0000 247.2500 354.5000 Du        
   6504 ****       126.0000 247.2500 354.7500 Du        
   6505 ****       126.0000 247.2500 355.0000 Du        
   6506 ****       126.0000 247.5000 353.5000 Du        
   6507 ****       126.0000 247.5000 353.7500 Du        
   6508 ****       126.0000 247.5000 354.0000 Du        
   6509 ****       126.0000 247.7500 353.5000 Du        
   6510 ****       126.0000 247.7500 353.7500 Du        
   6511 ****       126.0000 247.7500 354.0000 Du        
   6512 ****       126.0000 249.7500 352.2500 Du        
   6513 ****       126.0000 250.0000 352.0000 Du        
   6514 ****       126.0000 250.0000 352.2500 Du        
   6515 ****       126.2500 246.2500 353.2500 Du        
   6516 ****       126.2500 246.2500 353.5000 Du        
   6517 ****       126.2500 246.2500 353.7500 Du        
   6518 ****       126.2500 246.5000 353.2500 Du        
   6519 ****       126.2500 246.5000 353.5000 Du        
   6520 ****       126.2500 246.5000 353.7500 Du        
   6521 ****       126.2500 246.5000 354.0000 Du        
   6522 ****       126.2500 246.7500 353.2500 Du        
   6523 ****       126.2500 246.7500 353.5000 Du        
   6524 ****       126.2500 246.7500 353.7500 Du        
   6525 ****       126.2500 246.7500 354.0000 Du        
   6526 ****       126.2500 246.7500 354.2500 Du        
   6527 ****       126.2500 247.0000 353.2500 Du        
   6528 ****       126.2500 247.0000 353.5000 Du        
   6529 ****       126.2500 247.0000 353.7500 Du        
   6530 ****       126.2500 247.0000 354.0000 Du        
   6531 ****       126.2500 247.0000 354.2500 Du        
   6532 ****       126.2500 247.0000 354.5000 Du        
   6533 ****       126.2500 247.0000 354.7500 Du        
   6534 ****       126.2500 247.2500 353.2500 Du        
   6535 ****       126.2500 247.2500 353.5000 Du        
   6536 ****       126.2500 247.2500 353.7500 Du        
   6537 ****       126.2500 247.2500 354.0000 Du        
   6538 ****       126.2500 247.2500 354.2500 Du        
   6539 ****       126.2500 247.2500 354.5000 Du        
   6540 ****       126.2500 247.2500 354.7500 Du        
   6541 ****       126.2500 249.7500 352.0000 Du        
   6542 ****       126.2500 249.7500 352.2500 Du        
   6543 ****       126.2500 250.0000 352.0000 Du        
   6544 ****       126.2500 250.0000 352.2500 Du        
   6545 ****       126.2500 250.2500 352.2500 Du        
   6546 ****       126.5000 246.2500 353.2500 Du        
   6547 ****       126.5000 246.2500 353.5000 Du        
   6548 ****       126.5000 246.5000 353.2500 Du        
   6549 ****       126.5000 246.5000 353.5000 Du        
   6550 ****       126.5000 246.7500 353.2500 Du        
   6551 ****       126.5000 246.7500 353.5000 Du        
   6552 ****       126.5000 246.7500 353.7500 Du        
   6553 ****       126.5000 246.7500 354.0000 Du        
   6554 ****       126.5000 247.0000 353.2500 Du        
   6555 ****       126.5000 247.0000 353.5000 Du        
   6556 ****       126.5000 247.0000 353.7500 Du        
   6557 ****       126.5000 247.0000 354.0000 Du        
   6558 ****       126.5000 247.0000 354.2500 Du        
   6559 ****       126.5000 247.2500 353.2500 Du        
   6560 ****       126.5000 247.2500 353.5000 Du        
   6561 ****       126.5000 247.2500 353.7500 Du        
   6562 ****       126.5000 247.2500 354.0000 Du        
   6563 ****       126.5000 247.2500 354.2500 Du        
   6564 ****       126.7500 246.5000 353.2500 Du        
   6565 ****       126.7500 246.7500 353.2500 Du        
   6566 ****       126.7500 246.7500 353.5000 Du        
   6567 ****       126.7500 246.7500 353.7500 Du        
   6568 ****       126.7500 247.0000 353.2500 Du        
   6569 ****       126.7500 247.0000 353.5000 Du        
   6570 ****       126.7500 247.0000 353.7500 Du        
   6571 ****       126.7500 247.0000 354.0000 Du        
   6572 ****       126.7500 247.0000 354.2500 Du        
   6573 ****       126.7500 247.2500 353.2500 Du        
   6574 ****       126.7500 247.2500 353.5000 Du        
   6575 ****       126.7500 247.2500 353.7500 Du        
   6576 ****       126.7500 247.2500 354.0000 Du        
   6577 ****       126.7500 247.2500 354.2500 Du        
   6578 ****       126.7500 249.7500 352.0000 Du        
   6579 ****       126.7500 250.0000 351.7500 Du        
   6580 ****       126.7500 250.0000 352.0000 Du        
   6581 ****       126.7500 250.0000 352.2500 Du        
   6582 ****       127.0000 246.7500 353.0000 Du        
   6583 ****       127.0000 246.7500 353.2500 Du        
   6584 ****       127.0000 246.7500 353.5000 Du        
   6585 ****       127.0000 247.0000 353.0000 Du        
   6586 ****       127.0000 247.0000 353.2500 Du        
   6587 ****       127.0000 247.0000 353.5000 Du        
   6588 ****       127.0000 247.0000 353.7500 Du        
   6589 ****       127.0000 247.0000 354.0000 Du        
   6590 ****       127.0000 247.2500 353.0000 Du        
   6591 ****       127.0000 247.2500 353.2500 Du        
   6592 ****       127.0000 247.2500 353.5000 Du        
   6593 ****       127.0000 247.2500 353.7500 Du        
   6594 ****       127.0000 247.2500 354.0000 Du        
   6595 ****       127.0000 249.7500 351.2500 Du        
   6596 ****       127.0000 249.7500 351.7500 Du        
   6597 ****       127.0000 249.7500 352.0000 Du        
   6598 ****       127.0000 250.0000 351.7500 Du        
   6599 ****       127.0000 250.0000 352.0000 Du        
   6600 ****       127.0000 250.0000 352.2500 Du        
   6601 ****       127.0000 250.2500 352.0000 Du        
   6602 ****       127.0000 250.2500 352.2500 Du        
   6603 ****       127.2500 246.7500 353.0000 Du        
   6604 ****       127.2500 246.7500 353.2500 Du        
   6605 ****       127.2500 247.0000 353.0000 Du        
   6606 ****       127.2500 247.0000 353.2500 Du        
   6607 ****       127.2500 247.0000 353.5000 Du        
   6608 ****       127.2500 247.0000 353.7500 Du        
   6609 ****       127.2500 247.2500 353.0000 Du        
   6610 ****       127.2500 247.2500 353.2500 Du        
   6611 ****       127.2500 247.2500 353.5000 Du        
   6612 ****       127.2500 247.2500 353.7500 Du        
   6613 ****       127.2500 247.2500 354.0000 Du        
   6614 ****       127.2500 249.5000 351.2500 Du        
   6615 ****       127.2500 249.7500 350.7500 Du        
   6616 ****       127.2500 249.7500 351.0000 Du        
   6617 ****       127.2500 249.7500 351.2500 Du        
   6618 ****       127.2500 249.7500 351.5000 Du        
   6619 ****       127.2500 249.7500 351.7500 Du        
   6620 ****       127.2500 249.7500 352.0000 Du        
   6621 ****       127.2500 250.0000 351.2500 Du        
   6622 ****       127.2500 250.0000 351.5000 Du        
   6623 ****       127.2500 250.0000 351.7500 Du        
   6624 ****       127.2500 250.0000 352.0000 Du        
   6625 ****       127.2500 250.0000 352.2500 Du        
   6626 ****       127.2500 250.2500 351.7500 Du        
   6627 ****       127.2500 250.2500 352.0000 Du        
   6628 ****       127.2500 250.2500 352.2500 Du        
   6629 ****       127.5000 247.0000 353.0000 Du        
   6630 ****       127.5000 247.0000 353.2500 Du        
   6631 ****       127.5000 247.2500 353.0000 Du        
   6632 ****       127.5000 247.2500 353.2500 Du        
   6633 ****       127.5000 247.2500 353.5000 Du        
   6634 ****       127.5000 249.5000 350.7500 Du        
   6635 ****       127.5000 249.5000 351.0000 Du        
   6636 ****       127.5000 249.5000 351.2500 Du        
   6637 ****       127.5000 249.7500 350.7500 Du        
   6638 ****       127.5000 249.7500 351.0000 Du        
   6639 ****       127.5000 249.7500 351.2500 Du        
   6640 ****       127.5000 250.0000 351.2500 Du        
   6641 ****       127.7500 247.0000 353.0000 Du        
   6642 ****       127.7500 247.2500 353.0000 Du        
   6643 ****       127.7500 247.2500 353.2500 Du        
   6644 ****       127.7500 249.0000 351.2500 Du        
   6645 ****       127.7500 249.0000 352.0000 Du        
   6646 ****       127.7500 249.2500 350.2500 Du        
   6647 ****       127.7500 249.2500 350.5000 Du        
   6648 ****       127.7500 249.2500 350.7500 Du        
   6649 ****       127.7500 249.2500 351.0000 Du        
   6650 ****       127.7500 249.2500 351.2500 Du        
   6651 ****       127.7500 249.2500 351.5000 Du        
   6652 ****       127.7500 249.2500 351.7500 Du        
   6653 ****       127.7500 249.2500 352.0000 Du        
   6654 ****       127.7500 249.5000 350.5000 Du        
   6655 ****       127.7500 249.5000 350.7500 Du        
   6656 ****       127.7500 249.5000 351.0000 Du        
   6657 ****       127.7500 249.5000 351.2500 Du        
   6658 ****       127.7500 249.7500 350.7500 Du        
   6659 ****       127.7500 249.7500 351.0000 Du        
   6660 ****       127.7500 249.7500 351.2500 Du        
   6661 ****       127.7500 250.0000 351.2500 Du        
   6662 ****       128.0000 247.2500 352.7500 Du        
   6663 ****       128.0000 247.2500 353.0000 Du        
   6664 ****       128.0000 248.2500 352.2500 Du        
   6665 ****       128.0000 248.7500 351.0000 Du        
   6666 ****       128.0000 248.7500 351.2500 Du        
   6667 ****       128.0000 249.0000 350.0000 Du        
   6668 ****       128.0000 249.0000 350.2500 Du        
   6669 ****       128.0000 249.0000 350.5000 Du        
   6670 ****       128.0000 249.0000 350.7500 Du        
   6671 ****       128.0000 249.0000 351.0000 Du        
   6672 ****       128.0000 249.0000 351.2500 Du        
   6673 ****       128.0000 249.0000 351.5000 Du        
   6674 ****       128.0000 249.0000 351.7500 Du        
   6675 ****       128.0000 249.0000 352.0000 Du        
   6676 ****       128.0000 249.0000 352.2500 Du        
   6677 ****       128.0000 249.2500 350.2500 Du        
   6678 ****       128.0000 249.2500 350.5000 Du        
   6679 ****       128.0000 249.2500 350.7500 Du        
   6680 ****       128.0000 249.2500 351.0000 Du        
   6681 ****       128.0000 249.2500 351.2500 Du        
   6682 ****       128.0000 249.2500 351.5000 Du        
   6683 ****       128.0000 249.2500 351.7500 Du        
   6684 ****       128.0000 249.2500 352.0000 Du        
   6685 ****       128.0000 249.5000 350.7500 Du        
   6686 ****       128.0000 249.5000 351.0000 Du        
   6687 ****       128.0000 249.5000 351.2500 Du        
   6688 ****       128.0000 249.7500 351.0000 Du        
   6689 ****       128.0000 249.7500 351.2500 Du        
   6690 ****       128.0000 250.0000 352.0000 Du        
   6691 ****       128.2500 247.2500 352.7500 Du        
   6692 ****       128.2500 247.7500 352.2500 Du        
   6693 ****       128.2500 248.0000 352.0000 Du        
   6694 ****       128.2500 248.0000 352.2500 Du        
   6695 ****       128.2500 248.2500 351.7500 Du        
   6696 ****       128.2500 248.2500 352.0000 Du        
   6697 ****       128.2500 248.2500 352.2500 Du        
   6698 ****       128.2500 248.5000 351.0000 Du        
   6699 ****       128.2500 248.5000 351.2500 Du        
   6700 ****       128.2500 248.5000 351.7500 Du        
   6701 ****       128.2500 248.5000 352.0000 Du        
   6702 ****       128.2500 248.7500 350.0000 Du        
   6703 ****       128.2500 248.7500 350.2500 Du        
   6704 ****       128.2500 248.7500 350.5000 Du        
   6705 ****       128.2500 248.7500 350.7500 Du        
   6706 ****       128.2500 248.7500 351.0000 Du        
   6707 ****       128.2500 248.7500 351.2500 Du        
   6708 ****       128.2500 248.7500 351.5000 Du        
   6709 ****       128.2500 248.7500 351.7500 Du        
   6710 ****       128.2500 248.7500 352.0000 Du        
   6711 ****       128.2500 248.7500 352.2500 Du        
   6712 ****       128.2500 249.0000 350.0000 Du        
   6713 ****       128.2500 249.0000 350.2500 Du        
   6714 ****       128.2500 249.0000 350.5000 Du        
   6715 ****       128.2500 249.0000 350.7500 Du        
   6716 ****       128.2500 249.0000 351.0000 Du        
   6717 ****       128.2500 249.0000 351.2500 Du        
   6718 ****       128.2500 249.0000 351.5000 Du        
   6719 ****       128.2500 249.0000 351.7500 Du        
   6720 ****       128.2500 249.0000 352.0000 Du        
   6721 ****       128.2500 249.2500 350.2500 Du        
   6722 ****       128.2500 249.2500 350.5000 Du        
   6723 ****       128.2500 249.2500 350.7500 Du        
   6724 ****       128.2500 249.2500 351.0000 Du        
   6725 ****       128.2500 249.2500 351.2500 Du        
   6726 ****       128.2500 249.2500 351.5000 Du        
   6727 ****       128.2500 249.2500 351.7500 Du        
   6728 ****       128.2500 249.2500 352.0000 Du        
   6729 ****       128.2500 249.5000 351.0000 Du        
   6730 ****       128.2500 249.5000 351.2500 Du        
   6731 ****       128.2500 249.7500 351.2500 Du        
   6732 ****       128.5000 247.5000 352.2500 Du        
   6733 ****       128.5000 247.7500 352.0000 Du        
   6734 ****       128.5000 247.7500 352.2500 Du        
   6735 ****       128.5000 248.0000 351.7500 Du        
   6736 ****       128.5000 248.0000 352.0000 Du        
   6737 ****       128.5000 248.0000 352.2500 Du        
   6738 ****       128.5000 248.2500 350.2500 Du        
   6739 ****       128.5000 248.2500 350.5000 Du        
   6740 ****       128.5000 248.2500 350.7500 Du        
   6741 ****       128.5000 248.2500 351.0000 Du        
   6742 ****       128.5000 248.2500 351.2500 Du        
   6743 ****       128.5000 248.2500 351.5000 Du        
   6744 ****       128.5000 248.2500 351.7500 Du        
   6745 ****       128.5000 248.2500 352.0000 Du        
   6746 ****       128.5000 248.2500 352.2500 Du        
   6747 ****       128.5000 248.5000 350.2500 Du        
   6748 ****       128.5000 248.5000 350.5000 Du        
   6749 ****       128.5000 248.5000 350.7500 Du        
   6750 ****       128.5000 248.5000 351.0000 Du        
   6751 ****       128.5000 248.5000 351.2500 Du        
   6752 ****       128.5000 248.5000 351.5000 Du        
   6753 ****       128.5000 248.5000 351.7500 Du        
   6754 ****       128.5000 248.5000 352.0000 Du        
   6755 ****       128.5000 248.5000 352.2500 Du        
   6756 ****       128.5000 248.7500 350.0000 Du        
   6757 ****       128.5000 248.7500 350.2500 Du        
   6758 ****       128.5000 248.7500 350.5000 Du        
   6759 ****       128.5000 248.7500 350.7500 Du        
   6760 ****       128.5000 248.7500 351.0000 Du        
   6761 ****       128.5000 248.7500 351.2500 Du        
   6762 ****       128.5000 248.7500 351.5000 Du        
   6763 ****       128.5000 248.7500 351.7500 Du        
   6764 ****       128.5000 248.7500 352.0000 Du        
   6765 ****       128.5000 249.0000 350.2500 Du        
   6766 ****       128.5000 249.0000 350.5000 Du        
   6767 ****       128.5000 249.0000 350.7500 Du        
   6768 ****       128.5000 249.0000 351.0000 Du        
   6769 ****       128.5000 249.0000 351.2500 Du        
   6770 ****       128.5000 249.0000 351.5000 Du        
   6771 ****       128.5000 249.0000 351.7500 Du        
   6772 ****       128.5000 249.0000 352.0000 Du        
   6773 ****       128.5000 249.2500 350.7500 Du        
   6774 ****       128.5000 249.2500 351.0000 Du        
   6775 ****       128.5000 249.2500 351.2500 Du        
   6776 ****       128.5000 249.2500 351.5000 Du        
   6777 ****       128.5000 249.2500 351.7500 Du        
   6778 ****       128.5000 249.5000 351.2500 Du        
   6779 ****       128.7500 247.2500 352.0000 Du        
   6780 ****       128.7500 247.2500 352.2500 Du        
   6781 ****       128.7500 247.2500 352.5000 Du        
   6782 ****       128.7500 247.5000 351.7500 Du        
   6783 ****       128.7500 247.5000 352.0000 Du        
   6784 ****       128.7500 247.5000 352.2500 Du        
   6785 ****       128.7500 247.5000 352.5000 Du        
   6786 ****       128.7500 247.7500 351.0000 Du        
   6787 ****       128.7500 247.7500 351.2500 Du        
   6788 ****       128.7500 247.7500 351.5000 Du        
   6789 ****       128.7500 247.7500 351.7500 Du        
   6790 ****       128.7500 247.7500 352.0000 Du        
   6791 ****       128.7500 247.7500 352.2500 Du        
   6792 ****       128.7500 247.7500 352.5000 Du        
   6793 ****       128.7500 248.0000 350.0000 Du        
   6794 ****       128.7500 248.0000 350.2500 Du        
   6795 ****       128.7500 248.0000 350.5000 Du        
   6796 ****       128.7500 248.0000 350.7500 Du        
   6797 ****       128.7500 248.0000 351.0000 Du        
   6798 ****       128.7500 248.0000 351.2500 Du        
   6799 ****       128.7500 248.0000 351.5000 Du        
   6800 ****       128.7500 248.0000 351.7500 Du        
   6801 ****       128.7500 248.0000 352.0000 Du        
   6802 ****       128.7500 248.0000 352.2500 Du        
   6803 ****       128.7500 248.0000 352.5000 Du        
   6804 ****       128.7500 248.2500 350.0000 Du        
   6805 ****       128.7500 248.2500 350.2500 Du        
   6806 ****       128.7500 248.2500 350.5000 Du        
   6807 ****       128.7500 248.2500 350.7500 Du        
   6808 ****       128.7500 248.2500 351.0000 Du        
   6809 ****       128.7500 248.2500 351.2500 Du        
   6810 ****       128.7500 248.2500 351.5000 Du        
   6811 ****       128.7500 248.2500 351.7500 Du        
   6812 ****       128.7500 248.2500 352.0000 Du        
   6813 ****       128.7500 248.2500 352.2500 Du        
   6814 ****       128.7500 248.5000 349.7500 Du        
   6815 ****       128.7500 248.5000 350.0000 Du        
   6816 ****       128.7500 248.5000 350.2500 Du        
   6817 ****       128.7500 248.5000 350.5000 Du        
   6818 ****       128.7500 248.5000 350.7500 Du        
   6819 ****       128.7500 248.5000 351.0000 Du        
   6820 ****       128.7500 248.5000 351.2500 Du        
   6821 ****       128.7500 248.5000 351.5000 Du        
   6822 ****       128.7500 248.5000 351.7500 Du        
   6823 ****       128.7500 248.7500 349.7500 Du        
   6824 ****       128.7500 248.7500 350.0000 Du        
   6825 ****       128.7500 248.7500 350.2500 Du        
   6826 ****       128.7500 248.7500 350.5000 Du        
   6827 ****       128.7500 248.7500 350.7500 Du        
   6828 ****       128.7500 248.7500 351.0000 Du        
   6829 ****       128.7500 248.7500 351.2500 Du        
   6830 ****       128.7500 248.7500 351.5000 Du        
   6831 ****       128.7500 248.7500 351.7500 Du        
   6832 ****       128.7500 248.7500 352.0000 Du        
   6833 ****       128.7500 248.7500 352.2500 Du        
   6834 ****       128.7500 249.0000 350.2500 Du        
   6835 ****       128.7500 249.0000 350.5000 Du        
   6836 ****       128.7500 249.0000 350.7500 Du        
   6837 ****       128.7500 249.0000 351.0000 Du        
   6838 ****       128.7500 249.0000 351.2500 Du        
   6839 ****       128.7500 249.0000 351.5000 Du        
   6840 ****       128.7500 249.0000 351.7500 Du        
   6841 ****       128.7500 249.0000 352.0000 Du        
   6842 ****       128.7500 249.0000 352.2500 Du        
   6843 ****       128.7500 249.2500 350.7500 Du        
   6844 ****       128.7500 249.2500 351.0000 Du        
   6845 ****       128.7500 249.2500 351.2500 Du        
   6846 ****       128.7500 249.2500 351.5000 Du        
   6847 ****       128.7500 249.2500 351.7500 Du        
   6848 ****       128.7500 249.2500 352.0000 Du        
   6849 ****       128.7500 249.5000 351.2500 Du        
   6850 ****       129.0000 247.0000 352.2500 Du        
   6851 ****       129.0000 247.2500 351.7500 Du        
   6852 ****       129.0000 247.2500 352.0000 Du        
   6853 ****       129.0000 247.2500 352.2500 Du        
   6854 ****       129.0000 247.2500 352.5000 Du        
   6855 ****       129.0000 247.5000 351.2500 Du        
   6856 ****       129.0000 247.5000 351.5000 Du        
   6857 ****       129.0000 247.5000 351.7500 Du        
   6858 ****       129.0000 247.5000 352.0000 Du        
   6859 ****       129.0000 247.5000 352.2500 Du        
   6860 ****       129.0000 247.5000 352.5000 Du        
   6861 ****       129.0000 247.7500 349.7500 Du        
   6862 ****       129.0000 247.7500 350.0000 Du        
   6863 ****       129.0000 247.7500 350.2500 Du        
   6864 ****       129.0000 247.7500 350.5000 Du        
   6865 ****       129.0000 247.7500 350.7500 Du        
   6866 ****       129.0000 247.7500 351.0000 Du        
   6867 ****       129.0000 247.7500 351.2500 Du        
   6868 ****       129.0000 247.7500 351.5000 Du        
   6869 ****       129.0000 247.7500 351.7500 Du        
   6870 ****       129.0000 247.7500 352.0000 Du        
   6871 ****       129.0000 247.7500 352.2500 Du        
   6872 ****       129.0000 247.7500 352.5000 Du        
   6873 ****       129.0000 247.7500 352.7500 Du        
   6874 ****       129.0000 248.0000 349.7500 Du        
   6875 ****       129.0000 248.0000 350.0000 Du        
   6876 ****       129.0000 248.0000 350.2500 Du        
   6877 ****       129.0000 248.0000 350.5000 Du        
   6878 ****       129.0000 248.0000 350.7500 Du        
   6879 ****       129.0000 248.0000 351.0000 Du        
   6880 ****       129.0000 248.0000 351.2500 Du        
   6881 ****       129.0000 248.0000 351.5000 Du        
   6882 ****       129.0000 248.0000 351.7500 Du        
   6883 ****       129.0000 248.0000 352.0000 Du        
   6884 ****       129.0000 248.0000 352.2500 Du        
   6885 ****       129.0000 248.0000 352.5000 Du        
   6886 ****       129.0000 248.0000 352.7500 Du        
   6887 ****       129.0000 248.2500 349.7500 Du        
   6888 ****       129.0000 248.2500 350.0000 Du        
   6889 ****       129.0000 248.2500 350.2500 Du        
   6890 ****       129.0000 248.2500 350.5000 Du        
   6891 ****       129.0000 248.2500 350.7500 Du        
   6892 ****       129.0000 248.2500 351.0000 Du        
   6893 ****       129.0000 248.2500 351.2500 Du        
   6894 ****       129.0000 248.2500 351.5000 Du        
   6895 ****       129.0000 248.2500 351.7500 Du        
   6896 ****       129.0000 248.2500 352.0000 Du        
   6897 ****       129.0000 248.2500 352.2500 Du        
   6898 ****       129.0000 248.5000 349.7500 Du        
   6899 ****       129.0000 248.5000 350.0000 Du        
   6900 ****       129.0000 248.5000 350.2500 Du        
   6901 ****       129.0000 248.5000 350.5000 Du        
   6902 ****       129.0000 248.5000 350.7500 Du        
   6903 ****       129.0000 248.5000 351.0000 Du        
   6904 ****       129.0000 248.5000 351.2500 Du        
   6905 ****       129.0000 248.5000 351.5000 Du        
   6906 ****       129.0000 248.5000 351.7500 Du        
   6907 ****       129.0000 248.5000 352.0000 Du        
   6908 ****       129.0000 248.5000 352.2500 Du        
   6909 ****       129.0000 248.7500 349.7500 Du        
   6910 ****       129.0000 248.7500 350.0000 Du        
   6911 ****       129.0000 248.7500 350.2500 Du        
   6912 ****       129.0000 248.7500 350.5000 Du        
   6913 ****       129.0000 248.7500 350.7500 Du        
   6914 ****       129.0000 248.7500 351.0000 Du        
   6915 ****       129.0000 248.7500 351.2500 Du        
   6916 ****       129.0000 248.7500 351.5000 Du        
   6917 ****       129.0000 248.7500 351.7500 Du        
   6918 ****       129.0000 248.7500 352.0000 Du        
   6919 ****       129.0000 249.0000 350.2500 Du        
   6920 ****       129.0000 249.0000 350.5000 Du        
   6921 ****       129.0000 249.0000 350.7500 Du        
   6922 ****       129.0000 249.0000 351.0000 Du        
   6923 ****       129.0000 249.0000 351.2500 Du        
   6924 ****       129.0000 249.0000 351.5000 Du        
   6925 ****       129.0000 249.0000 351.7500 Du        
   6926 ****       129.0000 249.0000 352.0000 Du        
   6927 ****       129.0000 249.2500 351.0000 Du        
   6928 ****       129.0000 249.2500 351.2500 Du        
   6929 ****       129.0000 249.2500 351.5000 Du        
   6930 ****       129.0000 249.2500 351.7500 Du        
   6931 ****       129.0000 249.2500 352.0000 Du        
   6932 ****       129.2500 247.0000 352.0000 Du        
   6933 ****       129.2500 247.2500 349.7500 Du        
   6934 ****       129.2500 247.2500 350.0000 Du        
   6935 ****       129.2500 247.2500 350.2500 Du        
   6936 ****       129.2500 247.2500 351.0000 Du        
   6937 ****       129.2500 247.2500 351.2500 Du        
   6938 ****       129.2500 247.2500 351.5000 Du        
   6939 ****       129.2500 247.2500 351.7500 Du        
   6940 ****       129.2500 247.2500 352.0000 Du        
   6941 ****       129.2500 247.2500 352.2500 Du        
   6942 ****       129.2500 247.5000 349.5000 Du        
   6943 ****       129.2500 247.5000 349.7500 Du        
   6944 ****       129.2500 247.5000 350.0000 Du        
   6945 ****       129.2500 247.5000 350.2500 Du        
   6946 ****       129.2500 247.5000 350.5000 Du        
   6947 ****       129.2500 247.5000 350.7500 Du        
   6948 ****       129.2500 247.5000 351.0000 Du        
   6949 ****       129.2500 247.5000 351.2500 Du        
   6950 ****       129.2500 247.5000 351.5000 Du        
   6951 ****       129.2500 247.5000 351.7500 Du        
   6952 ****       129.2500 247.5000 352.0000 Du        
   6953 ****       129.2500 247.5000 352.2500 Du        
   6954 ****       129.2500 247.7500 349.5000 Du        
   6955 ****       129.2500 247.7500 349.7500 Du        
   6956 ****       129.2500 247.7500 350.0000 Du        
   6957 ****       129.2500 247.7500 350.2500 Du        
   6958 ****       129.2500 247.7500 350.5000 Du        
   6959 ****       129.2500 247.7500 350.7500 Du        
   6960 ****       129.2500 247.7500 351.0000 Du        
   6961 ****       129.2500 247.7500 351.2500 Du        
   6962 ****       129.2500 247.7500 351.5000 Du        
   6963 ****       129.2500 247.7500 351.7500 Du        
   6964 ****       129.2500 247.7500 352.0000 Du        
   6965 ****       129.2500 247.7500 352.2500 Du        
   6966 ****       129.2500 247.7500 352.5000 Du        
   6967 ****       129.2500 247.7500 352.7500 Du        
   6968 ****       129.2500 248.0000 349.5000 Du        
   6969 ****       129.2500 248.0000 349.7500 Du        
   6970 ****       129.2500 248.0000 350.0000 Du        
   6971 ****       129.2500 248.0000 350.2500 Du        
   6972 ****       129.2500 248.0000 350.5000 Du        
   6973 ****       129.2500 248.0000 350.7500 Du        
   6974 ****       129.2500 248.0000 351.0000 Du        
   6975 ****       129.2500 248.0000 351.2500 Du        
   6976 ****       129.2500 248.0000 351.5000 Du        
   6977 ****       129.2500 248.0000 351.7500 Du        
   6978 ****       129.2500 248.0000 352.0000 Du        
   6979 ****       129.2500 248.0000 352.2500 Du        
   6980 ****       129.2500 248.0000 352.5000 Du        
   6981 ****       129.2500 248.0000 352.7500 Du        
   6982 ****       129.2500 248.2500 349.5000 Du        
   6983 ****       129.2500 248.2500 349.7500 Du        
   6984 ****       129.2500 248.2500 350.0000 Du        
   6985 ****       129.2500 248.2500 350.2500 Du        
   6986 ****       129.2500 248.2500 350.5000 Du        
   6987 ****       129.2500 248.2500 350.7500 Du        
   6988 ****       129.2500 248.2500 351.0000 Du        
   6989 ****       129.2500 248.2500 351.2500 Du        
   6990 ****       129.2500 248.2500 351.5000 Du        
   6991 ****       129.2500 248.2500 351.7500 Du        
   6992 ****       129.2500 248.2500 352.0000 Du        
   6993 ****       129.2500 248.2500 352.2500 Du        
   6994 ****       129.2500 248.2500 352.7500 Du        
   6995 ****       129.2500 248.2500 353.0000 Du        
   6996 ****       129.2500 248.5000 349.5000 Du        
   6997 ****       129.2500 248.5000 349.7500 Du        
   6998 ****       129.2500 248.5000 350.0000 Du        
   6999 ****       129.2500 248.5000 350.2500 Du        
   7000 ****       129.2500 248.5000 350.5000 Du        
   7001 ****       129.2500 248.5000 350.7500 Du        
   7002 ****       129.2500 248.5000 351.0000 Du        
   7003 ****       129.2500 248.5000 351.2500 Du        
   7004 ****       129.2500 248.5000 351.5000 Du        
   7005 ****       129.2500 248.5000 351.7500 Du        
   7006 ****       129.2500 248.5000 352.0000 Du        
   7007 ****       129.2500 248.5000 352.2500 Du        
   7008 ****       129.2500 248.7500 349.7500 Du        
   7009 ****       129.2500 248.7500 350.0000 Du        
   7010 ****       129.2500 248.7500 350.2500 Du        
   7011 ****       129.2500 248.7500 350.5000 Du        
   7012 ****       129.2500 248.7500 350.7500 Du        
   7013 ****       129.2500 248.7500 351.0000 Du        
   7014 ****       129.2500 248.7500 351.2500 Du        
   7015 ****       129.2500 248.7500 351.5000 Du        
   7016 ****       129.2500 248.7500 351.7500 Du        
   7017 ****       129.2500 248.7500 352.0000 Du        
   7018 ****       129.2500 248.7500 352.2500 Du        
   7019 ****       129.2500 249.0000 350.2500 Du        
   7020 ****       129.2500 249.0000 350.5000 Du        
   7021 ****       129.2500 249.0000 350.7500 Du        
   7022 ****       129.2500 249.0000 351.0000 Du        
   7023 ****       129.2500 249.0000 351.2500 Du        
   7024 ****       129.2500 249.0000 351.5000 Du        
   7025 ****       129.2500 249.0000 351.7500 Du        
   7026 ****       129.2500 249.0000 352.0000 Du        
   7027 ****       129.2500 249.0000 352.2500 Du        
   7028 ****       129.2500 249.2500 351.0000 Du        
   7029 ****       129.2500 249.2500 351.2500 Du        
   7030 ****       129.2500 249.2500 351.5000 Du        
   7031 ****       129.2500 249.2500 351.7500 Du        
   7032 ****       129.2500 249.2500 352.0000 Du        
   7033 ****       129.2500 249.2500 352.2500 Du        
   7034 ****       129.5000 247.0000 349.2500 Du        
   7035 ****       129.5000 247.0000 349.5000 Du        
   7036 ****       129.5000 247.0000 349.7500 Du        
   7037 ****       129.5000 247.0000 350.0000 Du        
   7038 ****       129.5000 247.2500 349.2500 Du        
   7039 ****       129.5000 247.2500 349.5000 Du        
   7040 ****       129.5000 247.2500 349.7500 Du        
   7041 ****       129.5000 247.2500 350.0000 Du        
   7042 ****       129.5000 247.2500 350.2500 Du        
   7043 ****       129.5000 247.2500 350.5000 Du        
   7044 ****       129.5000 247.2500 350.7500 Du        
   7045 ****       129.5000 247.2500 351.0000 Du        
   7046 ****       129.5000 247.2500 351.2500 Du        
   7047 ****       129.5000 247.2500 351.5000 Du        
   7048 ****       129.5000 247.2500 351.7500 Du        
   7049 ****       129.5000 247.2500 352.0000 Du        
   7050 ****       129.5000 247.2500 352.2500 Du        
   7051 ****       129.5000 247.5000 349.2500 Du        
   7052 ****       129.5000 247.5000 349.5000 Du        
   7053 ****       129.5000 247.5000 349.7500 Du        
   7054 ****       129.5000 247.5000 350.0000 Du        
   7055 ****       129.5000 247.5000 350.2500 Du        
   7056 ****       129.5000 247.5000 350.5000 Du        
   7057 ****       129.5000 247.5000 350.7500 Du        
   7058 ****       129.5000 247.5000 351.0000 Du        
   7059 ****       129.5000 247.5000 351.2500 Du        
   7060 ****       129.5000 247.5000 351.5000 Du        
   7061 ****       129.5000 247.5000 351.7500 Du        
   7062 ****       129.5000 247.5000 352.0000 Du        
   7063 ****       129.5000 247.5000 352.2500 Du        
   7064 ****       129.5000 247.5000 352.5000 Du        
   7065 ****       129.5000 247.7500 349.2500 Du        
   7066 ****       129.5000 247.7500 349.5000 Du        
   7067 ****       129.5000 247.7500 349.7500 Du        
   7068 ****       129.5000 247.7500 350.0000 Du        
   7069 ****       129.5000 247.7500 350.2500 Du        
   7070 ****       129.5000 247.7500 350.5000 Du        
   7071 ****       129.5000 247.7500 350.7500 Du        
   7072 ****       129.5000 247.7500 351.0000 Du        
   7073 ****       129.5000 247.7500 351.2500 Du        
   7074 ****       129.5000 247.7500 351.5000 Du        
   7075 ****       129.5000 247.7500 351.7500 Du        
   7076 ****       129.5000 247.7500 352.0000 Du        
   7077 ****       129.5000 247.7500 352.2500 Du        
   7078 ****       129.5000 247.7500 352.5000 Du        
   7079 ****       129.5000 247.7500 352.7500 Du        
   7080 ****       129.5000 248.0000 349.2500 Du        
   7081 ****       129.5000 248.0000 349.5000 Du        
   7082 ****       129.5000 248.0000 349.7500 Du        
   7083 ****       129.5000 248.0000 350.0000 Du        
   7084 ****       129.5000 248.0000 350.2500 Du        
   7085 ****       129.5000 248.0000 350.5000 Du        
   7086 ****       129.5000 248.0000 350.7500 Du        
   7087 ****       129.5000 248.0000 351.0000 Du        
   7088 ****       129.5000 248.0000 351.2500 Du        
   7089 ****       129.5000 248.0000 351.5000 Du        
   7090 ****       129.5000 248.0000 351.7500 Du        
   7091 ****       129.5000 248.0000 352.0000 Du        
   7092 ****       129.5000 248.0000 352.2500 Du        
   7093 ****       129.5000 248.0000 352.5000 Du        
   7094 ****       129.5000 248.0000 352.7500 Du        
   7095 ****       129.5000 248.2500 349.2500 Du        
   7096 ****       129.5000 248.2500 349.5000 Du        
   7097 ****       129.5000 248.2500 349.7500 Du        
   7098 ****       129.5000 248.2500 350.0000 Du        
   7099 ****       129.5000 248.2500 350.2500 Du        
   7100 ****       129.5000 248.2500 350.5000 Du        
   7101 ****       129.5000 248.2500 350.7500 Du        
   7102 ****       129.5000 248.2500 351.0000 Du        
   7103 ****       129.5000 248.2500 351.2500 Du        
   7104 ****       129.5000 248.2500 351.5000 Du        
   7105 ****       129.5000 248.2500 351.7500 Du        
   7106 ****       129.5000 248.2500 352.0000 Du        
   7107 ****       129.5000 248.2500 352.2500 Du        
   7108 ****       129.5000 248.2500 352.5000 Du        
   7109 ****       129.5000 248.2500 352.7500 Du        
   7110 ****       129.5000 248.5000 349.2500 Du        
   7111 ****       129.5000 248.5000 349.5000 Du        
   7112 ****       129.5000 248.5000 349.7500 Du        
   7113 ****       129.5000 248.5000 350.0000 Du        
   7114 ****       129.5000 248.5000 350.2500 Du        
   7115 ****       129.5000 248.5000 350.5000 Du        
   7116 ****       129.5000 248.5000 350.7500 Du        
   7117 ****       129.5000 248.5000 351.0000 Du        
   7118 ****       129.5000 248.5000 351.2500 Du        
   7119 ****       129.5000 248.5000 351.5000 Du        
   7120 ****       129.5000 248.5000 351.7500 Du        
   7121 ****       129.5000 248.5000 352.0000 Du        
   7122 ****       129.5000 248.5000 352.2500 Du        
   7123 ****       129.5000 248.7500 349.7500 Du        
   7124 ****       129.5000 248.7500 350.0000 Du        
   7125 ****       129.5000 248.7500 350.2500 Du        
   7126 ****       129.5000 248.7500 350.5000 Du        
   7127 ****       129.5000 248.7500 350.7500 Du        
   7128 ****       129.5000 248.7500 351.0000 Du        
   7129 ****       129.5000 248.7500 351.2500 Du        
   7130 ****       129.5000 248.7500 351.5000 Du        
   7131 ****       129.5000 248.7500 351.7500 Du        
   7132 ****       129.5000 248.7500 352.0000 Du        
   7133 ****       129.5000 248.7500 352.2500 Du        
   7134 ****       129.5000 249.0000 350.5000 Du        
   7135 ****       129.5000 249.0000 350.7500 Du        
   7136 ****       129.5000 249.0000 351.0000 Du        
   7137 ****       129.5000 249.0000 351.2500 Du        
   7138 ****       129.5000 249.0000 351.5000 Du        
   7139 ****       129.5000 249.0000 351.7500 Du        
   7140 ****       129.5000 249.0000 352.0000 Du        
   7141 ****       129.5000 249.2500 351.0000 Du        
   7142 ****       129.5000 249.2500 351.2500 Du        
   7143 ****       129.7500 246.7500 349.0000 Du        
   7144 ****       129.7500 246.7500 349.2500 Du        
   7145 ****       129.7500 246.7500 349.5000 Du        
   7146 ****       129.7500 246.7500 349.7500 Du        
   7147 ****       129.7500 247.0000 349.0000 Du        
   7148 ****       129.7500 247.0000 349.2500 Du        
   7149 ****       129.7500 247.0000 349.5000 Du        
   7150 ****       129.7500 247.0000 349.7500 Du        
   7151 ****       129.7500 247.0000 350.0000 Du        
   7152 ****       129.7500 247.0000 350.2500 Du        
   7153 ****       129.7500 247.2500 349.0000 Du        
   7154 ****       129.7500 247.2500 349.2500 Du        
   7155 ****       129.7500 247.2500 349.5000 Du        
   7156 ****       129.7500 247.2500 349.7500 Du        
   7157 ****       129.7500 247.2500 350.0000 Du        
   7158 ****       129.7500 247.2500 350.2500 Du        
   7159 ****       129.7500 247.2500 350.5000 Du        
   7160 ****       129.7500 247.2500 350.7500 Du        
   7161 ****       129.7500 247.2500 351.0000 Du        
   7162 ****       129.7500 247.2500 351.2500 Du        
   7163 ****       129.7500 247.2500 351.5000 Du        
   7164 ****       129.7500 247.2500 351.7500 Du        
   7165 ****       129.7500 247.2500 352.0000 Du        
   7166 ****       129.7500 247.5000 349.0000 Du        
   7167 ****       129.7500 247.5000 349.2500 Du        
   7168 ****       129.7500 247.5000 349.5000 Du        
   7169 ****       129.7500 247.5000 349.7500 Du        
   7170 ****       129.7500 247.5000 350.0000 Du        
   7171 ****       129.7500 247.5000 350.2500 Du        
   7172 ****       129.7500 247.5000 350.5000 Du        
   7173 ****       129.7500 247.5000 350.7500 Du        
   7174 ****       129.7500 247.5000 351.0000 Du        
   7175 ****       129.7500 247.5000 351.2500 Du        
   7176 ****       129.7500 247.5000 351.5000 Du        
   7177 ****       129.7500 247.5000 351.7500 Du        
   7178 ****       129.7500 247.5000 352.0000 Du        
   7179 ****       129.7500 247.5000 352.2500 Du        
   7180 ****       129.7500 247.7500 349.0000 Du        
   7181 ****       129.7500 247.7500 349.2500 Du        
   7182 ****       129.7500 247.7500 349.5000 Du        
   7183 ****       129.7500 247.7500 349.7500 Du        
   7184 ****       129.7500 247.7500 350.0000 Du        
   7185 ****       129.7500 247.7500 350.2500 Du        
   7186 ****       129.7500 247.7500 350.5000 Du        
   7187 ****       129.7500 247.7500 350.7500 Du        
   7188 ****       129.7500 247.7500 351.0000 Du        
   7189 ****       129.7500 247.7500 351.2500 Du        
   7190 ****       129.7500 247.7500 351.5000 Du        
   7191 ****       129.7500 247.7500 351.7500 Du        
   7192 ****       129.7500 247.7500 352.0000 Du        
   7193 ****       129.7500 247.7500 352.2500 Du        
   7194 ****       129.7500 247.7500 352.5000 Du        
   7195 ****       129.7500 248.0000 349.0000 Du        
   7196 ****       129.7500 248.0000 349.2500 Du        
   7197 ****       129.7500 248.0000 349.5000 Du        
   7198 ****       129.7500 248.0000 349.7500 Du        
   7199 ****       129.7500 248.0000 350.0000 Du        
   7200 ****       129.7500 248.0000 350.2500 Du        
   7201 ****       129.7500 248.0000 350.5000 Du        
   7202 ****       129.7500 248.0000 350.7500 Du        
   7203 ****       129.7500 248.0000 351.0000 Du        
   7204 ****       129.7500 248.0000 351.2500 Du        
   7205 ****       129.7500 248.0000 351.5000 Du        
   7206 ****       129.7500 248.0000 351.7500 Du        
   7207 ****       129.7500 248.0000 352.0000 Du        
   7208 ****       129.7500 248.0000 352.2500 Du        
   7209 ****       129.7500 248.0000 352.5000 Du        
   7210 ****       129.7500 248.0000 352.7500 Du        
   7211 ****       129.7500 248.0000 353.0000 Du        
   7212 ****       129.7500 248.2500 349.2500 Du        
   7213 ****       129.7500 248.2500 349.5000 Du        
   7214 ****       129.7500 248.2500 349.7500 Du        
   7215 ****       129.7500 248.2500 350.0000 Du        
   7216 ****       129.7500 248.2500 350.2500 Du        
   7217 ****       129.7500 248.2500 350.5000 Du        
   7218 ****       129.7500 248.2500 350.7500 Du        
   7219 ****       129.7500 248.2500 351.0000 Du        
   7220 ****       129.7500 248.2500 351.2500 Du        
   7221 ****       129.7500 248.2500 351.5000 Du        
   7222 ****       129.7500 248.2500 351.7500 Du        
   7223 ****       129.7500 248.2500 352.0000 Du        
   7224 ****       129.7500 248.2500 352.2500 Du        
   7225 ****       129.7500 248.2500 352.5000 Du        
   7226 ****       129.7500 248.2500 352.7500 Du        
   7227 ****       129.7500 248.2500 353.0000 Du        
   7228 ****       129.7500 248.5000 349.5000 Du        
   7229 ****       129.7500 248.5000 349.7500 Du        
   7230 ****       129.7500 248.5000 350.0000 Du        
   7231 ****       129.7500 248.5000 350.2500 Du        
   7232 ****       129.7500 248.5000 350.5000 Du        
   7233 ****       129.7500 248.5000 350.7500 Du        
   7234 ****       129.7500 248.5000 351.0000 Du        
   7235 ****       129.7500 248.5000 351.2500 Du        
   7236 ****       129.7500 248.5000 351.5000 Du        
   7237 ****       129.7500 248.5000 351.7500 Du        
   7238 ****       129.7500 248.5000 352.0000 Du        
   7239 ****       129.7500 248.5000 352.2500 Du        
   7240 ****       129.7500 248.7500 350.0000 Du        
   7241 ****       129.7500 248.7500 350.2500 Du        
   7242 ****       129.7500 248.7500 350.5000 Du        
   7243 ****       129.7500 248.7500 350.7500 Du        
   7244 ****       129.7500 248.7500 351.0000 Du        
   7245 ****       129.7500 248.7500 351.2500 Du        
   7246 ****       129.7500 248.7500 351.5000 Du        
   7247 ****       129.7500 248.7500 351.7500 Du        
   7248 ****       129.7500 248.7500 352.0000 Du        
   7249 ****       129.7500 248.7500 352.2500 Du        
   7250 ****       129.7500 249.0000 350.7500 Du        
   7251 ****       129.7500 249.0000 351.0000 Du        
   7252 ****       129.7500 249.0000 351.2500 Du        
   7253 ****       129.7500 249.0000 351.5000 Du        
   7254 ****       129.7500 249.0000 351.7500 Du        
   7255 ****       129.7500 249.0000 352.0000 Du        
   7256 ****       129.7500 249.2500 351.2500 Du        
   7257 ****       130.0000 246.5000 349.5000 Du        
   7258 ****       130.0000 246.7500 349.5000 Du        
   7259 ****       130.0000 246.7500 349.7500 Du        
   7260 ****       130.0000 247.0000 349.5000 Du        
   7261 ****       130.0000 247.0000 349.7500 Du        
   7262 ****       130.0000 247.0000 350.0000 Du        
   7263 ****       130.0000 247.0000 350.2500 Du        
   7264 ****       130.0000 247.2500 349.5000 Du        
   7265 ****       130.0000 247.2500 349.7500 Du        
   7266 ****       130.0000 247.2500 350.0000 Du        
   7267 ****       130.0000 247.2500 350.2500 Du        
   7268 ****       130.0000 247.2500 350.5000 Du        
   7269 ****       130.0000 247.5000 349.5000 Du        
   7270 ****       130.0000 247.5000 349.7500 Du        
   7271 ****       130.0000 247.5000 350.0000 Du        
   7272 ****       130.0000 247.5000 350.2500 Du        
   7273 ****       130.0000 247.5000 350.5000 Du        
   7274 ****       130.0000 247.7500 349.5000 Du        
   7275 ****       130.0000 247.7500 349.7500 Du        
   7276 ****       130.0000 247.7500 350.0000 Du        
   7277 ****       130.0000 247.7500 350.2500 Du        
   7278 ****       130.0000 247.7500 350.5000 Du        
   7279 ****       130.0000 247.7500 350.7500 Du        
   7280 ****       130.0000 247.7500 351.0000 Du        
   7281 ****       130.0000 247.7500 351.7500 Du        
   7282 ****       130.0000 247.7500 352.0000 Du        
   7283 ****       130.0000 247.7500 352.2500 Du        
   7284 ****       130.0000 248.0000 349.5000 Du        
   7285 ****       130.0000 248.0000 349.7500 Du        
   7286 ****       130.0000 248.0000 350.0000 Du        
   7287 ****       130.0000 248.0000 350.2500 Du        
   7288 ****       130.0000 248.0000 350.5000 Du        
   7289 ****       130.0000 248.0000 350.7500 Du        
   7290 ****       130.0000 248.0000 351.0000 Du        
   7291 ****       130.0000 248.0000 351.2500 Du        
   7292 ****       130.0000 248.0000 351.5000 Du        
   7293 ****       130.0000 248.0000 351.7500 Du        
   7294 ****       130.0000 248.0000 352.0000 Du        
   7295 ****       130.0000 248.0000 352.2500 Du        
   7296 ****       130.0000 248.0000 352.5000 Du        
   7297 ****       130.0000 248.0000 352.7500 Du        
   7298 ****       130.0000 248.2500 349.5000 Du        
   7299 ****       130.0000 248.2500 349.7500 Du        
   7300 ****       130.0000 248.2500 350.0000 Du        
   7301 ****       130.0000 248.2500 350.2500 Du        
   7302 ****       130.0000 248.2500 350.5000 Du        
   7303 ****       130.0000 248.2500 350.7500 Du        
   7304 ****       130.0000 248.2500 351.0000 Du        
   7305 ****       130.0000 248.2500 351.2500 Du        
   7306 ****       130.0000 248.2500 351.5000 Du        
   7307 ****       130.0000 248.2500 351.7500 Du        
   7308 ****       130.0000 248.2500 352.0000 Du        
   7309 ****       130.0000 248.2500 352.2500 Du        
   7310 ****       130.0000 248.2500 352.5000 Du        
   7311 ****       130.0000 248.2500 352.7500 Du        
   7312 ****       130.0000 248.2500 353.0000 Du        
   7313 ****       130.0000 248.5000 349.7500 Du        
   7314 ****       130.0000 248.5000 350.0000 Du        
   7315 ****       130.0000 248.5000 350.2500 Du        
   7316 ****       130.0000 248.5000 350.5000 Du        
   7317 ****       130.0000 248.5000 350.7500 Du        
   7318 ****       130.0000 248.5000 351.0000 Du        
   7319 ****       130.0000 248.5000 351.2500 Du        
   7320 ****       130.0000 248.5000 351.5000 Du        
   7321 ****       130.0000 248.5000 351.7500 Du        
   7322 ****       130.0000 248.5000 352.0000 Du        
   7323 ****       130.0000 248.5000 352.2500 Du        
   7324 ****       130.0000 248.7500 350.5000 Du        
   7325 ****       130.0000 248.7500 350.7500 Du        
   7326 ****       130.0000 248.7500 351.0000 Du        
   7327 ****       130.0000 248.7500 351.2500 Du        
   7328 ****       130.0000 248.7500 351.5000 Du        
   7329 ****       130.0000 248.7500 351.7500 Du        
   7330 ****       130.0000 248.7500 352.0000 Du        
   7331 ****       130.0000 248.7500 352.2500 Du        
   7332 ****       130.0000 249.0000 351.0000 Du        
   7333 ****       130.0000 249.0000 351.2500 Du        
   7334 ****       130.0000 249.0000 351.5000 Du        
   7335 ****       130.0000 249.0000 351.7500 Du        
   7336 ****       130.0000 249.0000 352.0000 Du        
   7337 ****       130.0000 249.0000 352.2500 Du        
   7338 ****       130.0000 249.2500 351.2500 Du        
   7339 ****       130.2500 246.5000 349.5000 Du        
   7340 ****       130.2500 246.7500 349.5000 Du        
   7341 ****       130.2500 247.0000 349.5000 Du        
   7342 ****       130.2500 247.0000 349.7500 Du        
   7343 ****       130.2500 247.2500 349.5000 Du        
   7344 ****       130.2500 247.2500 349.7500 Du        
   7345 ****       130.2500 247.2500 350.0000 Du        
   7346 ****       130.2500 247.5000 349.5000 Du        
   7347 ****       130.2500 247.5000 349.7500 Du        
   7348 ****       130.2500 247.5000 350.0000 Du        
   7349 ****       130.2500 247.7500 349.5000 Du        
   7350 ****       130.2500 247.7500 349.7500 Du        
   7351 ****       130.2500 247.7500 350.0000 Du        
   7352 ****       130.2500 247.7500 350.2500 Du        
   7353 ****       130.2500 248.0000 349.5000 Du        
   7354 ****       130.2500 248.0000 349.7500 Du        
   7355 ****       130.2500 248.0000 350.0000 Du        
   7356 ****       130.2500 248.0000 350.2500 Du        
   7357 ****       130.2500 248.0000 350.5000 Du        
   7358 ****       130.2500 248.0000 350.7500 Du        
   7359 ****       130.2500 248.2500 349.7500 Du        
   7360 ****       130.2500 248.2500 350.0000 Du        
   7361 ****       130.2500 248.2500 350.2500 Du        
   7362 ****       130.2500 248.2500 350.5000 Du        
   7363 ****       130.2500 248.2500 350.7500 Du        
   7364 ****       130.2500 248.2500 351.0000 Du        
   7365 ****       130.2500 248.2500 351.2500 Du        
   7366 ****       130.2500 248.2500 352.0000 Du        
   7367 ****       130.2500 248.2500 352.2500 Du        
   7368 ****       130.2500 248.2500 353.0000 Du        
   7369 ****       130.2500 248.2500 353.2500 Du        
   7370 ****       130.2500 248.5000 350.2500 Du        
   7371 ****       130.2500 248.5000 350.5000 Du        
   7372 ****       130.2500 248.5000 350.7500 Du        
   7373 ****       130.2500 248.5000 351.0000 Du        
   7374 ****       130.2500 248.5000 351.2500 Du        
   7375 ****       130.2500 248.5000 351.5000 Du        
   7376 ****       130.2500 248.5000 351.7500 Du        
   7377 ****       130.2500 248.5000 352.0000 Du        
   7378 ****       130.2500 248.7500 350.7500 Du        
   7379 ****       130.2500 248.7500 351.0000 Du        
   7380 ****       130.2500 248.7500 351.2500 Du        
   7381 ****       130.2500 248.7500 351.5000 Du        
   7382 ****       130.2500 248.7500 351.7500 Du        
   7383 ****       130.2500 248.7500 352.0000 Du        
   7384 ****       130.2500 248.7500 352.2500 Du        
   7385 ****       130.2500 249.0000 351.0000 Du        
   7386 ****       130.2500 249.0000 351.2500 Du        
   7387 ****       130.2500 249.0000 351.5000 Du        
   7388 ****       130.2500 249.0000 351.7500 Du        
   7389 ****       130.2500 249.0000 352.0000 Du        
   7390 ****       130.2500 249.0000 352.2500 Du        
   7391 ****       130.2500 249.2500 351.7500 Du        
   7392 ****       130.2500 249.2500 352.0000 Du        
   7393 ****       130.5000 247.2500 349.5000 Du        
   7394 ****       130.5000 247.5000 349.5000 Du        
   7395 ****       130.5000 247.7500 349.5000 Du        
   7396 ****       130.5000 247.7500 349.7500 Du        
   7397 ****       130.5000 248.0000 350.0000 Du        
   7398 ****       130.5000 248.7500 351.2500 Du        
   7399 ****       130.5000 249.0000 351.2500 Du        
   7400 ****       130.5000 249.0000 351.7500 Du        
   7401 ****       130.5000 249.0000 352.0000 Du        
   7402 ****       130.5000 249.0000 352.2500 Du        
   7403 ****       130.5000 249.2500 351.7500 Du        
   7404 ****       130.7500 249.0000 352.0000 Du        
