#       Name:                CT1002167954
#       Creating user name   hitesit
#       Creation time:       Sun Apr 16 22:51:07 2023


#       File generated by GOLD software.
#

@<TRIPOS>MOLECULE
CT1002167954|ligand_prepared|mol2|1|dock1
    29    30     1
SMALL
NO_CHARGES


@<TRIPOS>ATOM
      1 C1         123.0472 245.7250 357.5899 C.3            1 RES1               0.0000
      2 C2         121.6617 245.9954 358.2112 C.ar           1 RES1               0.0000
      3 C3         124.0629 246.4287 358.4852 C.2            1 RES1               0.0000
      4 C4         123.2049 244.2092 357.5421 C.2            1 RES1               0.0000
      5 C5         123.2028 246.2672 356.1500 C.3            1 RES1               0.0000
      6 C6         121.0362 245.0306 358.9952 C.ar           1 RES1               0.0000
      7 C7         120.9990 247.2036 358.0119 C.ar           1 RES1               0.0000
      8 N8         124.8342 245.6513 359.2980 N.am           1 RES1               0.0000
      9 O9         124.1582 247.6496 358.5065 O.2            1 RES1               0.0000
     10 N10        124.1763 243.6398 358.3229 N.am           1 RES1               0.0000
     11 O11        122.4856 243.5014 356.8479 O.2            1 RES1               0.0000
     12 C12        124.4753 245.8076 355.4559 C.3            1 RES1               0.0000
     13 C13        119.7945 245.2661 359.5619 C.ar           1 RES1               0.0000
     14 C14        119.7572 247.4369 358.5794 C.ar           1 RES1               0.0000
     15 C15        124.9778 244.2892 359.2219 C.2            1 RES1               0.0000
     16 C16        119.1545 246.4694 359.3548 C.ar           1 RES1               0.0000
     17 O17        125.7911 243.7004 359.9282 O.2            1 RES1               0.0000
     18 H18        122.3396 245.9433 355.5555 H              1 RES1               0.0000
     19 H19        123.1949 247.3637 356.1828 H              1 RES1               0.0000
     20 H20        121.5235 244.0766 359.1673 H              1 RES1               0.0000
     21 H21        121.4537 247.9788 357.4046 H              1 RES1               0.0000
     22 H22        125.3521 246.1267 360.0302 H              1 RES1               0.0000
     23 H23        124.3150 242.6390 358.2248 H              1 RES1               0.0000
     24 H24        124.5348 246.2163 354.4494 H              1 RES1               0.0000
     25 H25        125.3548 246.1343 356.0069 H              1 RES1               0.0000
     26 H26        124.5046 244.7224 355.3834 H              1 RES1               0.0000
     27 H27        119.3238 244.5009 360.1703 H              1 RES1               0.0000
     28 H28        119.2569 248.3852 358.4132 H              1 RES1               0.0000
     29 H29        118.1820 246.6538 359.7992 H              1 RES1               0.0000
@<TRIPOS>BOND
    1    1    2 1     
    2    1    3 1     
    3    1    4 1     
    4    1    5 1     
    5    2    6 ar    
    6    2    7 ar    
    7    3    8 1     
    8    3    9 2     
    9    4   10 1     
   10    4   11 2     
   11    5   12 1     
   12    5   18 1     
   13    5   19 1     
   14    6   13 ar    
   15    6   20 1     
   16    7   14 ar    
   17    7   21 1     
   18    8   15 1     
   19    8   22 1     
   20   10   15 1     
   21   10   23 1     
   22   12   24 1     
   23   12   25 1     
   24   12   26 1     
   25   13   16 ar    
   26   13   27 1     
   27   14   16 ar    
   28   14   28 1     
   29   15   17 2     
   30   16   29 1     
@<TRIPOS>SUBSTRUCTURE
      1 RES1           1
@<TRIPOS>SET
DONOR_HYDROGENS      STATIC     ATOMS    <user>   **** ""
2 22 23
ATOM$RED        STATIC     ATOMS    COLORGROUP SYSTEM
2 22 23
@<TRIPOS>COMMENT
> <Gold.Version>
2022.3.0

> <Gold.Id.Protein>
unknown|4uh6_clean|pdb

> <Gold.Protein.RotatedTorsions>
[ 9116 9086 9085 9083 ] final  -36.07 input   60.02 | X-H torsion
[ 9012 8996 8995 8992 ] final -169.81 input   59.99 | X-H torsion
[ 8362 8332 8331 8329 ] final -145.15 input   59.98 | X-H torsion
[ 5561 5545 5544 5541 ] final  -13.23 input   59.99 | X-H torsion
[ 8516 8500 8499 8496 ] final   16.65 input   60.00 | X-H torsion
[ 12904 12876 12875 12873 ] final  103.84 input   59.99 | X-H torsion
[ 13458 13433 13432 13428 ] final  -33.71 input   60.03 | X-H torsion
[ 9192 9171 9169 9166 ] final   44.69 input   60.01 | X-H torsion

> <Gold.Protein.ActiveResidues>
 TRP311  MET341  HIS342  TRP414  ARG419  CYS420  VAL421  GLY422  LEU429  LEU460 
 SER462  ALA463  ILE464  ASN481  SER482  GLN483  LEU484  ILE485  ARG486  ASP500 
 ALA502  ASN503  TRP566  TYR567  GLY568  LEU569  PRO570  ALA571  VAL572  SER573 
 ASN574  MET575  PRO588  PHE589  SER590  GLY591  TRP592  TYR593  MET594  GLY595 
 THR596  GLU597  ILE598  VAL600  ARG601  ASP602  TYR603  ASP605  ARG608  ILE653 
 VAL654  TRP683  PRO687  SER691  PHE696  HIS697  TYR711  HEM750  H4B760 

> <Gold.Protein.RotatedAtoms>
  127.6039  249.6380  363.5215 H   0  0  0  0  0  0  0  0  0  0  0  0  # atno 5561 bound_to 5545
  125.2834  243.4880  362.4583 H   0  0  0  0  0  0  0  0  0  0  0  0  # atno 8362 bound_to 8332
  124.1806  251.6221  366.2934 H   0  0  0  0  0  0  0  0  0  0  0  0  # atno 8516 bound_to 8500
  116.0565  244.8941  369.2410 H   0  0  0  0  0  0  0  0  0  0  0  0  # atno 9012 bound_to 8996
  123.0168  241.9161  360.1321 H   0  0  0  0  0  0  0  0  0  0  0  0  # atno 9116 bound_to 9086
  118.1757  240.3805  352.0291 H   0  0  0  0  0  0  0  0  0  0  0  0  # atno 9192 bound_to 9171
  119.5342  255.0424  354.5547 H   0  0  0  0  0  0  0  0  0  0  0  0  # atno 12904 bound_to 12876
  124.4378  249.6619  347.1690 H   0  0  0  0  0  0  0  0  0  0  0  0  # atno 13458 bound_to 13433
  123.1506  241.1433  361.5580 LP  0  0  0  0  0  0  0  0  0  0  0  0  # atno 13496 bound_to 9086
  122.3246  242.5487  361.4622 LP  0  0  0  0  0  0  0  0  0  0  0  0  # atno 13497 bound_to 9086
  114.8817  244.5767  368.1608 LP  0  0  0  0  0  0  0  0  0  0  0  0  # atno 13516 bound_to 8996
  115.0819  246.0935  368.7317 LP  0  0  0  0  0  0  0  0  0  0  0  0  # atno 13517 bound_to 8996
  125.4872  242.3843  361.2798 LP  0  0  0  0  0  0  0  0  0  0  0  0  # atno 13530 bound_to 8332
  126.7437  242.8055  362.2338 LP  0  0  0  0  0  0  0  0  0  0  0  0  # atno 13531 bound_to 8332
  128.5051  250.1799  362.2802 LP  0  0  0  0  0  0  0  0  0  0  0  0  # atno 13538 bound_to 5545
  127.0129  249.5756  362.0070 LP  0  0  0  0  0  0  0  0  0  0  0  0  # atno 13539 bound_to 5545
  123.9279  250.1594  366.9606 LP  0  0  0  0  0  0  0  0  0  0  0  0  # atno 13551 bound_to 8500
  124.7263  251.3137  367.7953 LP  0  0  0  0  0  0  0  0  0  0  0  0  # atno 13552 bound_to 8500
  120.7650  254.2190  355.2298 LP  0  0  0  0  0  0  0  0  0  0  0  0  # atno 13567 bound_to 12876
  120.9970  255.0468  353.8414 LP  0  0  0  0  0  0  0  0  0  0  0  0  # atno 13568 bound_to 12876
  125.4743  250.7347  346.5183 LP  0  0  0  0  0  0  0  0  0  0  0  0  # atno 13569 bound_to 13433
  124.2501  250.1309  345.6220 LP  0  0  0  0  0  0  0  0  0  0  0  0  # atno 13570 bound_to 13433

> <Gold.Score>
     Fitness  S(hb_ext) S(vdw_ext)  S(hb_int)    S(int)      intcor
     38.00       6.78      23.51       0.00      -1.10      -0.79

> <Gold.Goldscore.Fitness>
37.9978

> <Gold.Goldscore.Internal.Vdw>
-1.3792

> <Gold.Goldscore.Internal.Torsion>
-0.5060

> <Gold.Goldscore.External.Vdw>
23.5066

> <Gold.Goldscore.Internal.HBond>
0.0000

> <Gold.Goldscore.External.HBond>
6.7764

> <Gold.Goldscore.Internal.Correction>
-0.7850

> <Gold.Goldscore.Hbonds>
donor molecule, donor type, donor heavy atom, donor atom, acceptor molecule, acceptor atom, score
      P1  H  5679  5707       L1    17  0.45
      P1  H  5682  5711       L1    17  0.03
      L1  H    10    23       P1  9362  0.66

> <Gold.Goldscore.Internal.Vdw.Weighted>
-1.3792

> <Gold.Goldscore.Internal.Torsion.Weighted>
-0.5060

> <Gold.Goldscore.External.Vdw.Weighted>
32.3216

> <Gold.Goldscore.Internal.HBond.Weighted>
0.0000

> <Gold.Goldscore.External.HBond.Weighted>
6.7764

> <Gold.Goldscore.Internal.Correction.Weighted>
-0.7850

> <Gold.Rescore>
     Score     S(PLP)   S(hbond)     S(cho)   S(metal)  DE(clash)   DE(tors)     intcor
     27.67     -24.40       2.00       0.00       0.00       0.45       1.14       ----

> <Gold.PLP.Fitness>
27.6690

> <Gold.PLP.PLP>
-24.4034

> <Gold.PLP.part.hbond>
-6.2248

> <Gold.PLP.part.metal>
0.0000

> <Gold.PLP.part.buried>
6.1845

> <Gold.PLP.part.nonpolar>
-30.2385

> <Gold.PLP.part.repulsive>
3.9413

> <Gold.PLP.ligand.clash>
0.4514

> <Gold.PLP.ligand.torsion>
1.1445

> <Gold.PLP.Chemscore.Hbond>
2.0020

> <Gold.PLP.Chemscore.CHOScore>
0.0000

> <Gold.PLP.Chemscore.Metal>
0.0000

> <Gold.Chemscore.Hbonds>
donor molecule, donor type, donor heavy atom, donor atom, acceptor molecule, acceptor atom, score
      L1  H     8    22       P1  5570  0.18
      L1  H    10    23       P1  9362  0.55
      P1  H  5679  5707       L1    17  0.49

> <Gold.PLP.Chemscore.Internal.Correction>
   9.000000E+99

