#       Name:                CT1002167954
#       Creating user name   hitesit
#       Creation time:       Sun Apr 16 22:51:15 2023


#       File generated by GOLD software.
#

@<TRIPOS>MOLECULE
CT1002167954|ligand_prepared|mol2|1|dock9
    29    30     1
SMALL
NO_CHARGES


@<TRIPOS>ATOM
      1 C1         122.1782 248.3207 358.6597 C.3            1 RES1               0.0000
      2 C2         120.8740 247.5297 358.8881 C.ar           1 RES1               0.0000
      3 C3         121.8137 249.4969 357.7586 C.2            1 RES1               0.0000
      4 C4         122.6782 248.7272 360.0415 C.2            1 RES1               0.0000
      5 C5         123.2935 247.5009 357.9701 C.3            1 RES1               0.0000
      6 C6         120.9125 246.2195 359.3555 C.ar           1 RES1               0.0000
      7 C7         119.6270 248.0967 358.6388 C.ar           1 RES1               0.0000
      8 N8         121.7559 250.7348 358.3279 N.am           1 RES1               0.0000
      9 O9         121.5425 249.3352 356.5752 O.2            1 RES1               0.0000
     10 N10        122.7004 250.0623 360.3492 N.am           1 RES1               0.0000
     11 O11        123.0374 247.9022 360.8726 O.2            1 RES1               0.0000
     12 C12        124.5158 248.3235 357.5939 C.3            1 RES1               0.0000
     13 C13        119.7466 245.5029 359.5689 C.ar           1 RES1               0.0000
     14 C14        118.4622 247.3783 358.8527 C.ar           1 RES1               0.0000
     15 C15        122.2331 251.0824 359.5661 C.2            1 RES1               0.0000
     16 C16        118.5208 246.0819 359.3181 C.ar           1 RES1               0.0000
     17 O17        122.2370 252.2535 359.9345 O.2            1 RES1               0.0000
     18 H18        123.6053 246.6928 358.6433 H              1 RES1               0.0000
     19 H19        122.8840 247.0415 357.0620 H              1 RES1               0.0000
     20 H20        121.8680 245.7464 359.5561 H              1 RES1               0.0000
     21 H21        119.5568 249.1149 358.2713 H              1 RES1               0.0000
     22 H22        121.3173 251.4701 357.7826 H              1 RES1               0.0000
     23 H23        123.1028 250.3196 361.2449 H              1 RES1               0.0000
     24 H24        125.2673 247.7003 357.1137 H              1 RES1               0.0000
     25 H25        124.2466 249.1214 356.9050 H              1 RES1               0.0000
     26 H26        124.9636 248.7748 358.4769 H              1 RES1               0.0000
     27 H27        119.7981 244.4825 359.9339 H              1 RES1               0.0000
     28 H28        117.4997 247.8377 358.6534 H              1 RES1               0.0000
     29 H29        117.6076 245.5205 359.4857 H              1 RES1               0.0000
@<TRIPOS>BOND
    1    1    2 1     
    2    1    3 1     
    3    1    4 1     
    4    1    5 1     
    5    2    6 ar    
    6    2    7 ar    
    7    3    8 1     
    8    3    9 2     
    9    4   10 1     
   10    4   11 2     
   11    5   12 1     
   12    5   18 1     
   13    5   19 1     
   14    6   13 ar    
   15    6   20 1     
   16    7   14 ar    
   17    7   21 1     
   18    8   15 1     
   19    8   22 1     
   20   10   15 1     
   21   10   23 1     
   22   12   24 1     
   23   12   25 1     
   24   12   26 1     
   25   13   16 ar    
   26   13   27 1     
   27   14   16 ar    
   28   14   28 1     
   29   15   17 2     
   30   16   29 1     
@<TRIPOS>SUBSTRUCTURE
      1 RES1           1
@<TRIPOS>SET
DONOR_HYDROGENS      STATIC     ATOMS    <user>   **** ""
2 22 23
ATOM$RED        STATIC     ATOMS    COLORGROUP SYSTEM
2 22 23
@<TRIPOS>COMMENT
> <Gold.Version>
2022.3.0

> <Gold.Id.Protein>
unknown|4uh6_clean|pdb

> <Gold.Protein.RotatedTorsions>
[ 9116 9086 9085 9083 ] final    1.65 input   60.02 | X-H torsion
[ 9012 8996 8995 8992 ] final   56.65 input   59.99 | X-H torsion
[ 8362 8332 8331 8329 ] final  127.42 input   59.98 | X-H torsion
[ 5561 5545 5544 5541 ] final   51.05 input   59.99 | X-H torsion
[ 8516 8500 8499 8496 ] final  158.64 input   60.00 | X-H torsion
[ 12904 12876 12875 12873 ] final  -11.81 input   59.99 | X-H torsion
[ 13458 13433 13432 13428 ] final  -67.10 input   60.03 | X-H torsion
[ 9192 9171 9169 9166 ] final   90.24 input   60.01 | X-H torsion

> <Gold.Protein.ActiveResidues>
 TRP311  MET341  HIS342  TRP414  ARG419  CYS420  VAL421  GLY422  LEU429  LEU460 
 SER462  ALA463  ILE464  ASN481  SER482  GLN483  LEU484  ILE485  ARG486  ASP500 
 ALA502  ASN503  TRP566  TYR567  GLY568  LEU569  PRO570  ALA571  VAL572  SER573 
 ASN574  MET575  PRO588  PHE589  SER590  GLY591  TRP592  TYR593  MET594  GLY595 
 THR596  GLU597  ILE598  VAL600  ARG601  ASP602  TYR603  ASP605  ARG608  ILE653 
 VAL654  TRP683  PRO687  SER691  PHE696  HIS697  TYR711  HEM750  H4B760 

> <Gold.Protein.RotatedAtoms>
  126.8914  249.4172  362.8619 H   0  0  0  0  0  0  0  0  0  0  0  0  # atno 5561 bound_to 5545
  125.0917  242.6780  361.4671 H   0  0  0  0  0  0  0  0  0  0  0  0  # atno 8362 bound_to 8332
  124.6337  250.9777  367.8794 H   0  0  0  0  0  0  0  0  0  0  0  0  # atno 8516 bound_to 8500
  114.7675  244.7596  368.1098 H   0  0  0  0  0  0  0  0  0  0  0  0  # atno 9012 bound_to 8996
  122.6879  242.3993  360.2900 H   0  0  0  0  0  0  0  0  0  0  0  0  # atno 9116 bound_to 9086
  118.2058  240.7004  351.3792 H   0  0  0  0  0  0  0  0  0  0  0  0  # atno 9192 bound_to 9171
  120.6986  254.2263  355.2557 H   0  0  0  0  0  0  0  0  0  0  0  0  # atno 12904 bound_to 12876
  124.8705  249.9373  347.3313 H   0  0  0  0  0  0  0  0  0  0  0  0  # atno 13458 bound_to 13433
  123.3296  241.0723  360.9797 LP  0  0  0  0  0  0  0  0  0  0  0  0  # atno 13496 bound_to 9086
  122.4767  242.1334  361.8815 LP  0  0  0  0  0  0  0  0  0  0  0  0  # atno 13497 bound_to 9086
  115.2486  246.1109  368.8780 LP  0  0  0  0  0  0  0  0  0  0  0  0  # atno 13516 bound_to 8996
  116.0136  244.6948  369.1541 LP  0  0  0  0  0  0  0  0  0  0  0  0  # atno 13517 bound_to 8996
  126.6654  242.4745  361.8288 LP  0  0  0  0  0  0  0  0  0  0  0  0  # atno 13530 bound_to 8332
  125.7585  243.5306  362.6825 LP  0  0  0  0  0  0  0  0  0  0  0  0  # atno 13531 bound_to 8332
  128.3611  249.9936  363.2553 LP  0  0  0  0  0  0  0  0  0  0  0  0  # atno 13538 bound_to 5545
  127.8747  249.9845  361.6965 LP  0  0  0  0  0  0  0  0  0  0  0  0  # atno 13539 bound_to 5545
  124.3621  251.8315  366.5208 LP  0  0  0  0  0  0  0  0  0  0  0  0  # atno 13551 bound_to 8500
  123.8359  250.2902  366.6387 LP  0  0  0  0  0  0  0  0  0  0  0  0  # atno 13552 bound_to 8500
  121.0497  255.0099  353.8731 LP  0  0  0  0  0  0  0  0  0  0  0  0  # atno 13567 bound_to 12876
  119.5402  255.0774  354.4925 LP  0  0  0  0  0  0  0  0  0  0  0  0  # atno 13568 bound_to 12876
  125.2904  250.7929  346.0122 LP  0  0  0  0  0  0  0  0  0  0  0  0  # atno 13569 bound_to 13433
  123.9983  249.7955  345.9647 LP  0  0  0  0  0  0  0  0  0  0  0  0  # atno 13570 bound_to 13433

> <Gold.Score>
     Fitness  S(hb_ext) S(vdw_ext)  S(hb_int)    S(int)      intcor
     32.86       5.76      20.56       0.00      -1.16      -0.77

> <Gold.Goldscore.Fitness>
32.8603

> <Gold.Goldscore.Internal.Vdw>
-1.4780

> <Gold.Goldscore.Internal.Torsion>
-0.4489

> <Gold.Goldscore.External.Vdw>
20.5553

> <Gold.Goldscore.Internal.HBond>
0.0000

> <Gold.Goldscore.External.HBond>
5.7551

> <Gold.Goldscore.Internal.Correction>
-0.7686

> <Gold.Goldscore.Hbonds>
donor molecule, donor type, donor heavy atom, donor atom, acceptor molecule, acceptor atom, score
      L1  H     8    22       P1 13292  0.93
      L1  H    10    23       P1  5543  0.09

> <Gold.Goldscore.Internal.Vdw.Weighted>
-1.4780

> <Gold.Goldscore.Internal.Torsion.Weighted>
-0.4489

> <Gold.Goldscore.External.Vdw.Weighted>
28.2635

> <Gold.Goldscore.Internal.HBond.Weighted>
0.0000

> <Gold.Goldscore.External.HBond.Weighted>
5.7551

> <Gold.Goldscore.Internal.Correction.Weighted>
-0.7686

> <Gold.Rescore>
     Score     S(PLP)   S(hbond)     S(cho)   S(metal)  DE(clash)   DE(tors)     intcor
     32.41     -30.40       1.17       0.00       0.00       0.00       0.76       ----

> <Gold.PLP.Fitness>
32.4076

> <Gold.PLP.PLP>
-30.4001

> <Gold.PLP.part.hbond>
-2.0000

> <Gold.PLP.part.metal>
0.0000

> <Gold.PLP.part.buried>
-3.4086

> <Gold.PLP.part.nonpolar>
-26.8138

> <Gold.PLP.part.repulsive>
1.1239

> <Gold.PLP.ligand.clash>
0.0000

> <Gold.PLP.ligand.torsion>
0.7579

> <Gold.PLP.Chemscore.Hbond>
1.1745

> <Gold.PLP.Chemscore.CHOScore>
0.0000

> <Gold.PLP.Chemscore.Metal>
0.0000

> <Gold.Chemscore.Hbonds>
donor molecule, donor type, donor heavy atom, donor atom, acceptor molecule, acceptor atom, score
      L1  H     8    22       P1 13292  1.00

> <Gold.PLP.Chemscore.Internal.Correction>
   9.000000E+99

