#       Name:                CT1002167954
#       Creating user name   hitesit
#       Creation time:       Sun Apr 16 22:51:10 2023


#       File generated by GOLD software.
#

@<TRIPOS>MOLECULE
CT1002167954|ligand_prepared|mol2|1|dock4
    29    30     1
SMALL
NO_CHARGES


@<TRIPOS>ATOM
      1 C1         122.7178 245.9397 358.6139 C.3            1 RES1               0.0000
      2 C2         123.8759 246.9432 358.7881 C.ar           1 RES1               0.0000
      3 C3         122.0786 246.2532 357.2643 C.2            1 RES1               0.0000
      4 C4         123.3403 244.5506 358.6999 C.2            1 RES1               0.0000
      5 C5         121.6303 246.0444 359.7085 C.3            1 RES1               0.0000
      6 C6         124.8694 247.0538 357.8199 C.ar           1 RES1               0.0000
      7 C7         123.9628 247.7656 359.9084 C.ar           1 RES1               0.0000
      8 N8         122.3149 245.3878 356.2371 N.am           1 RES1               0.0000
      9 O9         121.4100 247.2651 357.0935 O.2            1 RES1               0.0000
     10 N10        123.3139 243.7646 357.5777 N.am           1 RES1               0.0000
     11 O11        123.8683 244.1360 359.7244 O.2            1 RES1               0.0000
     12 C12        120.4507 245.1097 359.4923 C.3            1 RES1               0.0000
     13 C13        125.9105 247.9558 357.9648 C.ar           1 RES1               0.0000
     14 C14        125.0049 248.6668 360.0514 C.ar           1 RES1               0.0000
     15 C15        122.8568 244.1319 356.3414 C.2            1 RES1               0.0000
     16 C16        125.9787 248.7631 359.0802 C.ar           1 RES1               0.0000
     17 O17        122.9166 243.3879 355.3667 O.2            1 RES1               0.0000
     18 H18        122.0854 245.8195 360.6810 H              1 RES1               0.0000
     19 H19        121.2612 247.0769 359.7419 H              1 RES1               0.0000
     20 H20        124.8338 246.4250 356.9365 H              1 RES1               0.0000
     21 H21        123.2085 247.7063 360.6856 H              1 RES1               0.0000
     22 H22        122.0657 245.7036 355.3052 H              1 RES1               0.0000
     23 H23        123.6677 242.8180 357.6728 H              1 RES1               0.0000
     24 H24        119.7175 245.2235 360.2880 H              1 RES1               0.0000
     25 H25        119.9587 245.3222 358.5453 H              1 RES1               0.0000
     26 H26        120.7781 244.0722 359.4789 H              1 RES1               0.0000
     27 H27        126.6751 248.0267 357.1983 H              1 RES1               0.0000
     28 H28        125.0549 249.2997 360.9312 H              1 RES1               0.0000
     29 H29        126.7941 249.4699 359.1933 H              1 RES1               0.0000
@<TRIPOS>BOND
    1    1    2 1     
    2    1    3 1     
    3    1    4 1     
    4    1    5 1     
    5    2    6 ar    
    6    2    7 ar    
    7    3    8 1     
    8    3    9 2     
    9    4   10 1     
   10    4   11 2     
   11    5   12 1     
   12    5   18 1     
   13    5   19 1     
   14    6   13 ar    
   15    6   20 1     
   16    7   14 ar    
   17    7   21 1     
   18    8   15 1     
   19    8   22 1     
   20   10   15 1     
   21   10   23 1     
   22   12   24 1     
   23   12   25 1     
   24   12   26 1     
   25   13   16 ar    
   26   13   27 1     
   27   14   16 ar    
   28   14   28 1     
   29   15   17 2     
   30   16   29 1     
@<TRIPOS>SUBSTRUCTURE
      1 RES1           1
@<TRIPOS>SET
DONOR_HYDROGENS      STATIC     ATOMS    <user>   **** ""
2 22 23
ATOM$RED        STATIC     ATOMS    COLORGROUP SYSTEM
2 22 23
@<TRIPOS>COMMENT
> <Gold.Version>
2022.3.0

> <Gold.Id.Protein>
unknown|4uh6_clean|pdb

> <Gold.Protein.RotatedTorsions>
[ 9116 9086 9085 9083 ] final  -52.90 input   60.02 | X-H torsion
[ 9012 8996 8995 8992 ] final  -83.19 input   59.99 | X-H torsion
[ 8362 8332 8331 8329 ] final  138.62 input   59.98 | X-H torsion
[ 5561 5545 5544 5541 ] final  143.07 input   59.99 | X-H torsion
[ 8516 8500 8499 8496 ] final  -36.13 input   60.00 | X-H torsion
[ 12904 12876 12875 12873 ] final   64.57 input   59.99 | X-H torsion
[ 13458 13433 13432 13428 ] final   70.15 input   60.03 | X-H torsion
[ 9192 9171 9169 9166 ] final  -81.40 input   60.01 | X-H torsion

> <Gold.Protein.ActiveResidues>
 TRP311  MET341  HIS342  TRP414  ARG419  CYS420  VAL421  GLY422  LEU429  LEU460 
 SER462  ALA463  ILE464  ASN481  SER482  GLN483  LEU484  ILE485  ARG486  ASP500 
 ALA502  ASN503  TRP566  TYR567  GLY568  LEU569  PRO570  ALA571  VAL572  SER573 
 ASN574  MET575  PRO588  PHE589  SER590  GLY591  TRP592  TYR593  MET594  GLY595 
 THR596  GLU597  ILE598  VAL600  ARG601  ASP602  TYR603  ASP605  ARG608  ILE653 
 VAL654  TRP683  PRO687  SER691  PHE696  HIS697  TYR711  HEM750  H4B760 

> <Gold.Protein.RotatedAtoms>
  127.4564  249.8072  361.7036 H   0  0  0  0  0  0  0  0  0  0  0  0  # atno 5561 bound_to 5545
  125.0049  242.7997  361.5722 H   0  0  0  0  0  0  0  0  0  0  0  0  # atno 8362 bound_to 8332
  123.8538  250.8624  366.1975 H   0  0  0  0  0  0  0  0  0  0  0  0  # atno 8516 bound_to 8500
  115.4993  246.0382  369.0695 H   0  0  0  0  0  0  0  0  0  0  0  0  # atno 9012 bound_to 8996
  123.1459  241.6809  360.1872 H   0  0  0  0  0  0  0  0  0  0  0  0  # atno 9116 bound_to 9086
  116.9865  239.2995  351.5775 H   0  0  0  0  0  0  0  0  0  0  0  0  # atno 9192 bound_to 9171
  119.6525  254.6807  355.0561 H   0  0  0  0  0  0  0  0  0  0  0  0  # atno 12904 bound_to 12876
  124.1050  249.9629  345.7646 H   0  0  0  0  0  0  0  0  0  0  0  0  # atno 13458 bound_to 13433
  123.0208  241.2799  361.7595 LP  0  0  0  0  0  0  0  0  0  0  0  0  # atno 13496 bound_to 9086
  122.3245  242.6491  361.2052 LP  0  0  0  0  0  0  0  0  0  0  0  0  # atno 13497 bound_to 9086
  115.8783  244.4584  368.9767 LP  0  0  0  0  0  0  0  0  0  0  0  0  # atno 13516 bound_to 8996
  114.6467  245.0592  368.0885 LP  0  0  0  0  0  0  0  0  0  0  0  0  # atno 13517 bound_to 8996
  126.5744  242.3870  361.6951 LP  0  0  0  0  0  0  0  0  0  0  0  0  # atno 13530 bound_to 8332
  125.9369  243.4956  362.7105 LP  0  0  0  0  0  0  0  0  0  0  0  0  # atno 13531 bound_to 8332
  127.1141  249.4594  363.2556 LP  0  0  0  0  0  0  0  0  0  0  0  0  # atno 13538 bound_to 5545
  128.5524  250.1257  362.8631 LP  0  0  0  0  0  0  0  0  0  0  0  0  # atno 13539 bound_to 5545
  124.3166  250.3612  367.6751 LP  0  0  0  0  0  0  0  0  0  0  0  0  # atno 13551 bound_to 8500
  124.6665  251.8765  367.1772 LP  0  0  0  0  0  0  0  0  0  0  0  0  # atno 13552 bound_to 8500
  121.2265  254.3450  354.8142 LP  0  0  0  0  0  0  0  0  0  0  0  0  # atno 13567 bound_to 12876
  120.4166  255.2849  353.7523 LP  0  0  0  0  0  0  0  0  0  0  0  0  # atno 13568 bound_to 12876
  124.6450  249.7738  347.2881 LP  0  0  0  0  0  0  0  0  0  0  0  0  # atno 13569 bound_to 13433
  125.4145  250.7888  346.2662 LP  0  0  0  0  0  0  0  0  0  0  0  0  # atno 13570 bound_to 13433

> <Gold.Score>
     Fitness  S(hb_ext) S(vdw_ext)  S(hb_int)    S(int)      intcor
     32.07       4.66      19.97       0.00      -0.05      -0.77

> <Gold.Goldscore.Fitness>
32.0742

> <Gold.Goldscore.Internal.Vdw>
-0.4327

> <Gold.Goldscore.Internal.Torsion>
-0.3857

> <Gold.Goldscore.External.Vdw>
19.9750

> <Gold.Goldscore.Internal.HBond>
0.0000

> <Gold.Goldscore.External.HBond>
4.6577

> <Gold.Goldscore.Internal.Correction>
-0.7693

> <Gold.Goldscore.Hbonds>
donor molecule, donor type, donor heavy atom, donor atom, acceptor molecule, acceptor atom, score
      P1  H  8332  8362       L1    11  0.20
      L1  H    10    23       P1  9362  0.71

> <Gold.Goldscore.Internal.Vdw.Weighted>
-0.4327

> <Gold.Goldscore.Internal.Torsion.Weighted>
-0.3857

> <Gold.Goldscore.External.Vdw.Weighted>
27.4656

> <Gold.Goldscore.Internal.HBond.Weighted>
0.0000

> <Gold.Goldscore.External.HBond.Weighted>
4.6577

> <Gold.Goldscore.Internal.Correction.Weighted>
-0.7693

> <Gold.Rescore>
     Score     S(PLP)   S(hbond)     S(cho)   S(metal)  DE(clash)   DE(tors)     intcor
     14.53     -14.30       0.99       0.00       0.00       0.00       1.37       ----

> <Gold.PLP.Fitness>
14.5260

> <Gold.PLP.PLP>
-14.3008

> <Gold.PLP.part.hbond>
-2.1265

> <Gold.PLP.part.metal>
0.0000

> <Gold.PLP.part.buried>
3.3173

> <Gold.PLP.part.nonpolar>
-20.8132

> <Gold.PLP.part.repulsive>
4.6017

> <Gold.PLP.ligand.clash>
0.0000

> <Gold.PLP.ligand.torsion>
1.3743

> <Gold.PLP.Chemscore.Hbond>
0.9913

> <Gold.PLP.Chemscore.CHOScore>
0.0000

> <Gold.PLP.Chemscore.Metal>
0.0000

> <Gold.Chemscore.Hbonds>
donor molecule, donor type, donor heavy atom, donor atom, acceptor molecule, acceptor atom, score
      L1  H    10    23       P1  9362  0.51

> <Gold.PLP.Chemscore.Internal.Correction>
   9.000000E+99

