#       Name:                CT1002167954
#       Creating user name   hitesit
#       Creation time:       Sun Apr 16 22:51:13 2023


#       File generated by GOLD software.
#

@<TRIPOS>MOLECULE
CT1002167954|ligand_prepared|mol2|1|dock8
    29    30     1
SMALL
NO_CHARGES


@<TRIPOS>ATOM
      1 C1         122.7248 247.9259 358.2759 C.3            1 RES1               0.0000
      2 C2         122.9708 246.9539 357.1039 C.ar           1 RES1               0.0000
      3 C3         122.3248 249.2589 357.6503 C.2            1 RES1               0.0000
      4 C4         121.6375 247.2910 359.1357 C.2            1 RES1               0.0000
      5 C5         123.9666 248.1553 359.1686 C.3            1 RES1               0.0000
      6 C6         121.9456 246.1403 356.6310 C.ar           1 RES1               0.0000
      7 C7         124.2146 246.8618 356.4850 C.ar           1 RES1               0.0000
      8 N8         121.0139 249.6264 357.7305 N.am           1 RES1               0.0000
      9 O9         123.1395 249.9582 357.0609 O.2            1 RES1               0.0000
     10 N10        120.4283 247.9305 359.2174 N.am           1 RES1               0.0000
     11 O11        121.8114 246.2341 359.7298 O.2            1 RES1               0.0000
     12 C12        123.6763 248.9542 360.4294 C.3            1 RES1               0.0000
     13 C13        122.1553 245.2682 355.5756 C.ar           1 RES1               0.0000
     14 C14        124.4222 245.9888 355.4298 C.ar           1 RES1               0.0000
     15 C15        120.0571 249.0534 358.5292 C.2            1 RES1               0.0000
     16 C16        123.3934 245.1922 354.9741 C.ar           1 RES1               0.0000
     17 O17        118.9326 249.5388 358.6135 O.2            1 RES1               0.0000
     18 H18        124.3801 247.1806 359.4555 H              1 RES1               0.0000
     19 H19        124.7293 248.6840 358.5835 H              1 RES1               0.0000
     20 H20        120.9652 246.1845 357.0935 H              1 RES1               0.0000
     21 H21        125.0389 247.4781 356.8275 H              1 RES1               0.0000
     22 H22        120.7175 250.3987 357.1422 H              1 RES1               0.0000
     23 H23        119.7413 247.5327 359.8500 H              1 RES1               0.0000
     24 H24        124.5809 249.0862 361.0192 H              1 RES1               0.0000
     25 H25        123.2870 249.9393 360.1808 H              1 RES1               0.0000
     26 H26        122.9399 248.4449 361.0477 H              1 RES1               0.0000
     27 H27        121.3427 244.6424 355.2216 H              1 RES1               0.0000
     28 H28        125.3984 245.9319 354.9598 H              1 RES1               0.0000
     29 H29        123.5573 244.5093 354.1471 H              1 RES1               0.0000
@<TRIPOS>BOND
    1    1    2 1     
    2    1    3 1     
    3    1    4 1     
    4    1    5 1     
    5    2    6 ar    
    6    2    7 ar    
    7    3    8 1     
    8    3    9 2     
    9    4   10 1     
   10    4   11 2     
   11    5   12 1     
   12    5   18 1     
   13    5   19 1     
   14    6   13 ar    
   15    6   20 1     
   16    7   14 ar    
   17    7   21 1     
   18    8   15 1     
   19    8   22 1     
   20   10   15 1     
   21   10   23 1     
   22   12   24 1     
   23   12   25 1     
   24   12   26 1     
   25   13   16 ar    
   26   13   27 1     
   27   14   16 ar    
   28   14   28 1     
   29   15   17 2     
   30   16   29 1     
@<TRIPOS>SUBSTRUCTURE
      1 RES1           1
@<TRIPOS>SET
DONOR_HYDROGENS      STATIC     ATOMS    <user>   **** ""
2 22 23
ATOM$RED        STATIC     ATOMS    COLORGROUP SYSTEM
2 22 23
@<TRIPOS>COMMENT
> <Gold.Version>
2022.3.0

> <Gold.Id.Protein>
unknown|4uh6_clean|pdb

> <Gold.Protein.RotatedTorsions>
[ 9116 9086 9085 9083 ] final   60.08 input   60.02 | X-H torsion
[ 9012 8996 8995 8992 ] final  171.10 input   59.99 | X-H torsion
[ 8362 8332 8331 8329 ] final  157.09 input   59.98 | X-H torsion
[ 5561 5545 5544 5541 ] final   49.70 input   59.99 | X-H torsion
[ 8516 8500 8499 8496 ] final   15.23 input   60.00 | X-H torsion
[ 12904 12876 12875 12873 ] final   55.50 input   59.99 | X-H torsion
[ 13458 13433 13432 13428 ] final  -75.74 input   60.03 | X-H torsion
[ 9192 9171 9169 9166 ] final  -49.64 input   60.01 | X-H torsion

> <Gold.Protein.ActiveResidues>
 TRP311  MET341  HIS342  TRP414  ARG419  CYS420  VAL421  GLY422  LEU429  LEU460 
 SER462  ALA463  ILE464  ASN481  SER482  GLN483  LEU484  ILE485  ARG486  ASP500 
 ALA502  ASN503  TRP566  TYR567  GLY568  LEU569  PRO570  ALA571  VAL572  SER573 
 ASN574  MET575  PRO588  PHE589  SER590  GLY591  TRP592  TYR593  MET594  GLY595 
 THR596  GLU597  ILE598  VAL600  ARG601  ASP602  TYR603  ASP605  ARG608  ILE653 
 VAL654  TRP683  PRO687  SER691  PHE696  HIS697  TYR711  HEM750  H4B760 

> <Gold.Protein.RotatedAtoms>
  126.8982  249.4174  362.8829 H   0  0  0  0  0  0  0  0  0  0  0  0  # atno 5561 bound_to 5545
  124.9319  243.0059  361.7784 H   0  0  0  0  0  0  0  0  0  0  0  0  # atno 8362 bound_to 8332
  124.1692  251.6055  366.2817 H   0  0  0  0  0  0  0  0  0  0  0  0  # atno 8516 bound_to 8500
  115.9797  244.6259  369.1048 H   0  0  0  0  0  0  0  0  0  0  0  0  # atno 9012 bound_to 8996
  122.3389  242.6649  361.0919 H   0  0  0  0  0  0  0  0  0  0  0  0  # atno 9116 bound_to 9086
  117.2386  239.3767  352.0170 H   0  0  0  0  0  0  0  0  0  0  0  0  # atno 9192 bound_to 9171
  119.7354  254.5969  355.1456 H   0  0  0  0  0  0  0  0  0  0  0  0  # atno 12904 bound_to 12876
  124.9802  250.0259  347.3253 H   0  0  0  0  0  0  0  0  0  0  0  0  # atno 13458 bound_to 13433
  123.1968  241.5855  360.2274 LP  0  0  0  0  0  0  0  0  0  0  0  0  # atno 13496 bound_to 9086
  122.9611  241.3527  361.8264 LP  0  0  0  0  0  0  0  0  0  0  0  0  # atno 13497 bound_to 9086
  114.7222  244.8373  368.0941 LP  0  0  0  0  0  0  0  0  0  0  0  0  # atno 13516 bound_to 8996
  115.3188  246.1032  368.9356 LP  0  0  0  0  0  0  0  0  0  0  0  0  # atno 13517 bound_to 8996
  126.3650  242.2861  361.5013 LP  0  0  0  0  0  0  0  0  0  0  0  0  # atno 13530 bound_to 8332
  126.2197  243.3890  362.6968 LP  0  0  0  0  0  0  0  0  0  0  0  0  # atno 13531 bound_to 8332
  128.3744  250.0013  363.2392 LP  0  0  0  0  0  0  0  0  0  0  0  0  # atno 13538 bound_to 5545
  127.8545  249.9765  361.6914 LP  0  0  0  0  0  0  0  0  0  0  0  0  # atno 13539 bound_to 5545
  123.9358  250.1552  366.9822 LP  0  0  0  0  0  0  0  0  0  0  0  0  # atno 13551 bound_to 8500
  124.7298  251.3346  367.7854 LP  0  0  0  0  0  0  0  0  0  0  0  0  # atno 13552 bound_to 8500
  121.2866  254.4056  354.6920 LP  0  0  0  0  0  0  0  0  0  0  0  0  # atno 13567 bound_to 12876
  120.2731  255.3087  353.7844 LP  0  0  0  0  0  0  0  0  0  0  0  0  # atno 13568 bound_to 12876
  125.2081  250.7739  345.8980 LP  0  0  0  0  0  0  0  0  0  0  0  0  # atno 13569 bound_to 13433
  123.9703  249.7253  346.0850 LP  0  0  0  0  0  0  0  0  0  0  0  0  # atno 13570 bound_to 13433

> <Gold.Score>
     Fitness  S(hb_ext) S(vdw_ext)  S(hb_int)    S(int)      intcor
     30.53       4.04      19.77       0.00      -0.70      -0.77

> <Gold.Goldscore.Fitness>
30.5271

> <Gold.Goldscore.Internal.Vdw>
-0.9979

> <Gold.Goldscore.Internal.Torsion>
-0.4699

> <Gold.Goldscore.External.Vdw>
19.7688

> <Gold.Goldscore.Internal.HBond>
0.0000

> <Gold.Goldscore.External.HBond>
4.0442

> <Gold.Goldscore.Internal.Correction>
-0.7686

> <Gold.Goldscore.Hbonds>
donor molecule, donor type, donor heavy atom, donor atom, acceptor molecule, acceptor atom, score
      L1  H     8    22       P1 13292  0.67

> <Gold.Goldscore.Internal.Vdw.Weighted>
-0.9979

> <Gold.Goldscore.Internal.Torsion.Weighted>
-0.4699

> <Gold.Goldscore.External.Vdw.Weighted>
27.1821

> <Gold.Goldscore.Internal.HBond.Weighted>
0.0000

> <Gold.Goldscore.External.HBond.Weighted>
4.0442

> <Gold.Goldscore.Internal.Correction.Weighted>
-0.7686

> <Gold.Rescore>
     Score     S(PLP)   S(hbond)     S(cho)   S(metal)  DE(clash)   DE(tors)     intcor
     25.17     -24.63       0.99       0.00       0.00       2.10       0.17       ----

> <Gold.PLP.Fitness>
25.1736

> <Gold.PLP.PLP>
-24.6299

> <Gold.PLP.part.hbond>
-3.0000

> <Gold.PLP.part.metal>
0.0000

> <Gold.PLP.part.buried>
-2.4653

> <Gold.PLP.part.nonpolar>
-19.6845

> <Gold.PLP.part.repulsive>
0.3617

> <Gold.PLP.ligand.clash>
2.0963

> <Gold.PLP.ligand.torsion>
0.1669

> <Gold.PLP.Chemscore.Hbond>
0.9913

> <Gold.PLP.Chemscore.CHOScore>
0.0000

> <Gold.PLP.Chemscore.Metal>
0.0000

> <Gold.Chemscore.Hbonds>
donor molecule, donor type, donor heavy atom, donor atom, acceptor molecule, acceptor atom, score
      L1  H     8    22       P1 13292  1.00

> <Gold.PLP.Chemscore.Internal.Correction>
   9.000000E+99

