#       Name:                CT1002167954
#       Creating user name   hitesit
#       Creation time:       Sun Apr 16 22:51:08 2023


#       File generated by GOLD software.
#

@<TRIPOS>MOLECULE
CT1002167954|ligand_prepared|mol2|1|dock2
    29    30     1
SMALL
NO_CHARGES


@<TRIPOS>ATOM
      1 C1         123.2551 245.3229 357.6415 C.3            1 RES1               0.0000
      2 C2         123.7071 245.5948 356.1922 C.ar           1 RES1               0.0000
      3 C3         123.3806 243.8171 357.8541 C.2            1 RES1               0.0000
      4 C4         124.1669 246.1555 358.5360 C.2            1 RES1               0.0000
      5 C5         121.7938 245.7394 357.9289 C.3            1 RES1               0.0000
      6 C6         125.0387 245.8814 355.9071 C.ar           1 RES1               0.0000
      7 C7         122.8061 245.5599 355.1313 C.ar           1 RES1               0.0000
      8 N8         124.4128 243.3719 358.6263 N.am           1 RES1               0.0000
      9 O9         122.6091 243.0299 357.3200 O.2            1 RES1               0.0000
     10 N10        125.0205 245.4921 359.3779 N.am           1 RES1               0.0000
     11 O11        124.1655 247.3801 358.5073 O.2            1 RES1               0.0000
     12 C12        121.4051 245.6401 359.3956 C.3            1 RES1               0.0000
     13 C13        125.4552 246.1216 354.6082 C.ar           1 RES1               0.0000
     14 C14        123.2246 245.8006 353.8330 C.ar           1 RES1               0.0000
     15 C15        125.2066 244.1380 359.4415 C.2            1 RES1               0.0000
     16 C16        124.5487 246.0809 353.5704 C.ar           1 RES1               0.0000
     17 O17        126.0328 243.6186 360.1863 O.2            1 RES1               0.0000
     18 H18        121.6494 246.7742 357.5946 H              1 RES1               0.0000
     19 H19        121.1226 245.1006 357.3417 H              1 RES1               0.0000
     20 H20        125.7660 245.9201 356.7112 H              1 RES1               0.0000
     21 H21        121.7593 245.3425 355.3144 H              1 RES1               0.0000
     22 H22        124.6130 242.3773 358.5947 H              1 RES1               0.0000
     23 H23        125.5679 246.0603 360.0165 H              1 RES1               0.0000
     24 H24        120.3706 245.9436 359.5418 H              1 RES1               0.0000
     25 H25        121.5126 244.6187 359.7548 H              1 RES1               0.0000
     26 H26        122.0363 246.2824 360.0062 H              1 RES1               0.0000
     27 H27        126.4981 246.3431 354.4069 H              1 RES1               0.0000
     28 H28        122.5076 245.7682 353.0194 H              1 RES1               0.0000
     29 H29        124.8753 246.2687 352.5529 H              1 RES1               0.0000
@<TRIPOS>BOND
    1    1    2 1     
    2    1    3 1     
    3    1    4 1     
    4    1    5 1     
    5    2    6 ar    
    6    2    7 ar    
    7    3    8 1     
    8    3    9 2     
    9    4   10 1     
   10    4   11 2     
   11    5   12 1     
   12    5   18 1     
   13    5   19 1     
   14    6   13 ar    
   15    6   20 1     
   16    7   14 ar    
   17    7   21 1     
   18    8   15 1     
   19    8   22 1     
   20   10   15 1     
   21   10   23 1     
   22   12   24 1     
   23   12   25 1     
   24   12   26 1     
   25   13   16 ar    
   26   13   27 1     
   27   14   16 ar    
   28   14   28 1     
   29   15   17 2     
   30   16   29 1     
@<TRIPOS>SUBSTRUCTURE
      1 RES1           1
@<TRIPOS>SET
DONOR_HYDROGENS      STATIC     ATOMS    <user>   **** ""
2 22 23
ATOM$RED        STATIC     ATOMS    COLORGROUP SYSTEM
2 22 23
@<TRIPOS>COMMENT
> <Gold.Version>
2022.3.0

> <Gold.Id.Protein>
unknown|4uh6_clean|pdb

> <Gold.Protein.RotatedTorsions>
[ 9116 9086 9085 9083 ] final -118.59 input   60.02 | X-H torsion
[ 9012 8996 8995 8992 ] final  -31.69 input   59.99 | X-H torsion
[ 8362 8332 8331 8329 ] final  -78.48 input   59.98 | X-H torsion
[ 5561 5545 5544 5541 ] final  -77.28 input   59.99 | X-H torsion
[ 8516 8500 8499 8496 ] final -120.28 input   60.00 | X-H torsion
[ 12904 12876 12875 12873 ] final   24.79 input   59.99 | X-H torsion
[ 13458 13433 13432 13428 ] final  -92.88 input   60.03 | X-H torsion
[ 9192 9171 9169 9166 ] final   99.31 input   60.01 | X-H torsion

> <Gold.Protein.ActiveResidues>
 TRP311  MET341  HIS342  TRP414  ARG419  CYS420  VAL421  GLY422  LEU429  LEU460 
 SER462  ALA463  ILE464  ASN481  SER482  GLN483  LEU484  ILE485  ARG486  ASP500 
 ALA502  ASN503  TRP566  TYR567  GLY568  LEU569  PRO570  ALA571  VAL572  SER573 
 ASN574  MET575  PRO588  PHE589  SER590  GLY591  TRP592  TYR593  MET594  GLY595 
 THR596  GLU597  ILE598  VAL600  ARG601  ASP602  TYR603  ASP605  ARG608  ILE653 
 VAL654  TRP683  PRO687  SER691  PHE696  HIS697  TYR711  HEM750  H4B760 

> <Gold.Protein.RotatedAtoms>
  128.4304  250.0400  363.1470 H   0  0  0  0  0  0  0  0  0  0  0  0  # atno 5561 bound_to 5545
  126.2791  243.3502  362.6795 H   0  0  0  0  0  0  0  0  0  0  0  0  # atno 8362 bound_to 8332
  124.0336  250.1517  367.2163 H   0  0  0  0  0  0  0  0  0  0  0  0  # atno 8516 bound_to 8500
  114.8876  245.9866  368.5360 H   0  0  0  0  0  0  0  0  0  0  0  0  # atno 9012 bound_to 8996
  123.3238  241.0759  360.9835 H   0  0  0  0  0  0  0  0  0  0  0  0  # atno 9116 bound_to 9086
  118.1630  240.7166  351.2384 H   0  0  0  0  0  0  0  0  0  0  0  0  # atno 9192 bound_to 9171
  120.1298  254.3569  355.3269 H   0  0  0  0  0  0  0  0  0  0  0  0  # atno 12904 bound_to 12876
  125.1777  250.2098  347.2543 H   0  0  0  0  0  0  0  0  0  0  0  0  # atno 13458 bound_to 13433
  122.4752  242.1365  361.8799 LP  0  0  0  0  0  0  0  0  0  0  0  0  # atno 13496 bound_to 9086
  122.6909  242.4016  360.2831 LP  0  0  0  0  0  0  0  0  0  0  0  0  # atno 13497 bound_to 9086
  116.0609  245.1785  369.3222 LP  0  0  0  0  0  0  0  0  0  0  0  0  # atno 13516 bound_to 8996
  115.0802  244.3911  368.2806 LP  0  0  0  0  0  0  0  0  0  0  0  0  # atno 13517 bound_to 8996
  124.9227  243.0575  361.8292 LP  0  0  0  0  0  0  0  0  0  0  0  0  # atno 13530 bound_to 8332
  126.3058  242.2710  361.4617 LP  0  0  0  0  0  0  0  0  0  0  0  0  # atno 13531 bound_to 8332
  127.7495  249.9338  361.6733 LP  0  0  0  0  0  0  0  0  0  0  0  0  # atno 13538 bound_to 5545
  126.9357  249.4168  362.9912 LP  0  0  0  0  0  0  0  0  0  0  0  0  # atno 13539 bound_to 5545
  124.7497  251.5478  367.6483 LP  0  0  0  0  0  0  0  0  0  0  0  0  # atno 13551 bound_to 8500
  124.0524  251.4053  366.1786 LP  0  0  0  0  0  0  0  0  0  0  0  0  # atno 13552 bound_to 8500
  121.3266  254.6675  354.2687 LP  0  0  0  0  0  0  0  0  0  0  0  0  # atno 13567 bound_to 12876
  119.8360  255.2884  354.0251 LP  0  0  0  0  0  0  0  0  0  0  0  0  # atno 13568 bound_to 12876
  125.0141  250.6966  345.7100 LP  0  0  0  0  0  0  0  0  0  0  0  0  # atno 13569 bound_to 13433
  123.9654  249.6175  346.3444 LP  0  0  0  0  0  0  0  0  0  0  0  0  # atno 13570 bound_to 13433

> <Gold.Score>
     Fitness  S(hb_ext) S(vdw_ext)  S(hb_int)    S(int)      intcor
     42.69       6.17      27.02       0.00      -0.64      -0.79

> <Gold.Goldscore.Fitness>
42.6916

> <Gold.Goldscore.Internal.Vdw>
-0.9651

> <Gold.Goldscore.Internal.Torsion>
-0.4550

> <Gold.Goldscore.External.Vdw>
27.0237

> <Gold.Goldscore.Internal.HBond>
0.0000

> <Gold.Goldscore.External.HBond>
6.1690

> <Gold.Goldscore.Internal.Correction>
-0.7850

> <Gold.Goldscore.Hbonds>
donor molecule, donor type, donor heavy atom, donor atom, acceptor molecule, acceptor atom, score
      P1  H  5679  5707       L1    17  0.81
      L1  H     8    22       P1  9362  0.22

> <Gold.Goldscore.Internal.Vdw.Weighted>
-0.9651

> <Gold.Goldscore.Internal.Torsion.Weighted>
-0.4550

> <Gold.Goldscore.External.Vdw.Weighted>
37.1576

> <Gold.Goldscore.Internal.HBond.Weighted>
0.0000

> <Gold.Goldscore.External.HBond.Weighted>
6.1690

> <Gold.Goldscore.Internal.Correction.Weighted>
-0.7850

> <Gold.Rescore>
     Score     S(PLP)   S(hbond)     S(cho)   S(metal)  DE(clash)   DE(tors)     intcor
     25.28     -22.07       1.88       0.00       0.00       1.94       0.24       ----

> <Gold.PLP.Fitness>
25.2816

> <Gold.PLP.PLP>
-22.0718

> <Gold.PLP.part.hbond>
-5.2122

> <Gold.PLP.part.metal>
0.0000

> <Gold.PLP.part.buried>
3.2650

> <Gold.PLP.part.nonpolar>
-26.7527

> <Gold.PLP.part.repulsive>
5.2223

> <Gold.PLP.ligand.clash>
1.9395

> <Gold.PLP.ligand.torsion>
0.2422

> <Gold.PLP.Chemscore.Hbond>
1.8779

> <Gold.PLP.Chemscore.CHOScore>
0.0000

> <Gold.PLP.Chemscore.Metal>
0.0000

> <Gold.Chemscore.Hbonds>
donor molecule, donor type, donor heavy atom, donor atom, acceptor molecule, acceptor atom, score
      L1  H     8    22       P1  9362  0.56
      P1  H  5679  5707       L1    17  1.00

> <Gold.PLP.Chemscore.Internal.Correction>
   9.000000E+99

