#       Name:                CT1002167954
#       Creating user name   hitesit
#       Creation time:       Sun Apr 16 22:51:11 2023


#       File generated by GOLD software.
#

@<TRIPOS>MOLECULE
CT1002167954|ligand_prepared|mol2|1|dock5
    29    30     1
SMALL
NO_CHARGES


@<TRIPOS>ATOM
      1 C1         123.2415 245.2972 357.6234 C.3            1 RES1               0.0000
      2 C2         121.8664 245.6290 358.2382 C.ar           1 RES1               0.0000
      3 C3         124.2651 246.1319 358.3875 C.2            1 RES1               0.0000
      4 C4         123.4260 243.7917 357.7784 C.2            1 RES1               0.0000
      5 C5         123.3525 245.6399 356.1195 C.3            1 RES1               0.0000
      6 C6         121.2770 244.7700 359.1610 C.ar           1 RES1               0.0000
      7 C7         121.1778 246.7894 357.8951 C.ar           1 RES1               0.0000
      8 N8         125.0699 245.4846 359.2782 N.am           1 RES1               0.0000
      9 O9         124.3382 247.3456 358.2398 O.2            1 RES1               0.0000
     10 N10        124.4263 243.3490 358.6037 N.am           1 RES1               0.0000
     11 O11        122.7036 242.9849 357.2062 O.2            1 RES1               0.0000
     12 C12        124.5935 245.0698 355.4508 C.3            1 RES1               0.0000
     13 C13        120.0451 245.0620 359.7227 C.ar           1 RES1               0.0000
     14 C14        119.9458 247.0794 358.4578 C.ar           1 RES1               0.0000
     15 C15        125.2368 244.1272 359.3846 C.2            1 RES1               0.0000
     16 C16        119.3789 246.2169 359.3719 C.ar           1 RES1               0.0000
     17 O17        126.0776 243.6527 360.1430 O.2            1 RES1               0.0000
     18 H18        122.4646 245.2547 355.6031 H              1 RES1               0.0000
     19 H19        123.3597 246.7309 356.0055 H              1 RES1               0.0000
     20 H20        121.7851 243.8553 359.4474 H              1 RES1               0.0000
     21 H21        121.6041 247.4820 357.1773 H              1 RES1               0.0000
     22 H22        125.5962 246.0633 359.9250 H              1 RES1               0.0000
     23 H23        124.5811 242.3464 358.6393 H              1 RES1               0.0000
     24 H24        124.6223 245.3396 354.3971 H              1 RES1               0.0000
     25 H25        125.4961 245.4517 355.9231 H              1 RES1               0.0000
     26 H26        124.6064 243.9842 355.5231 H              1 RES1               0.0000
     27 H27        119.6026 244.3793 360.4405 H              1 RES1               0.0000
     28 H28        119.4249 247.9892 358.1784 H              1 RES1               0.0000
     29 H29        118.4141 246.4456 359.8123 H              1 RES1               0.0000
@<TRIPOS>BOND
    1    1    2 1     
    2    1    3 1     
    3    1    4 1     
    4    1    5 1     
    5    2    6 ar    
    6    2    7 ar    
    7    3    8 1     
    8    3    9 2     
    9    4   10 1     
   10    4   11 2     
   11    5   12 1     
   12    5   18 1     
   13    5   19 1     
   14    6   13 ar    
   15    6   20 1     
   16    7   14 ar    
   17    7   21 1     
   18    8   15 1     
   19    8   22 1     
   20   10   15 1     
   21   10   23 1     
   22   12   24 1     
   23   12   25 1     
   24   12   26 1     
   25   13   16 ar    
   26   13   27 1     
   27   14   16 ar    
   28   14   28 1     
   29   15   17 2     
   30   16   29 1     
@<TRIPOS>SUBSTRUCTURE
      1 RES1           1
@<TRIPOS>SET
DONOR_HYDROGENS      STATIC     ATOMS    <user>   **** ""
2 22 23
ATOM$RED        STATIC     ATOMS    COLORGROUP SYSTEM
2 22 23
@<TRIPOS>COMMENT
> <Gold.Version>
2022.3.0

> <Gold.Id.Protein>
unknown|4uh6_clean|pdb

> <Gold.Protein.RotatedTorsions>
[ 9116 9086 9085 9083 ] final  -80.87 input   60.02 | X-H torsion
[ 9012 8996 8995 8992 ] final -179.58 input   59.99 | X-H torsion
[ 8362 8332 8331 8329 ] final  -31.56 input   59.98 | X-H torsion
[ 5561 5545 5544 5541 ] final   57.03 input   59.99 | X-H torsion
[ 8516 8500 8499 8496 ] final  115.42 input   60.00 | X-H torsion
[ 12904 12876 12875 12873 ] final    5.44 input   59.99 | X-H torsion
[ 13458 13433 13432 13428 ] final   84.29 input   60.03 | X-H torsion
[ 9192 9171 9169 9166 ] final   18.87 input   60.01 | X-H torsion

> <Gold.Protein.ActiveResidues>
 TRP311  MET341  HIS342  TRP414  ARG419  CYS420  VAL421  GLY422  LEU429  LEU460 
 SER462  ALA463  ILE464  ASN481  SER482  GLN483  LEU484  ILE485  ARG486  ASP500 
 ALA502  ASN503  TRP566  TYR567  GLY568  LEU569  PRO570  ALA571  VAL572  SER573 
 ASN574  MET575  PRO588  PHE589  SER590  GLY591  TRP592  TYR593  MET594  GLY595 
 THR596  GLU597  ILE598  VAL600  ARG601  ASP602  TYR603  ASP605  ARG608  ILE653 
 VAL654  TRP683  PRO687  SER691  PHE696  HIS697  TYR711  HEM750  H4B760 

> <Gold.Protein.RotatedAtoms>
  126.8668  249.4187  362.7674 H   0  0  0  0  0  0  0  0  0  0  0  0  # atno 5561 bound_to 5545
  126.7182  242.8757  362.3079 H   0  0  0  0  0  0  0  0  0  0  0  0  # atno 8362 bound_to 8332
  124.7434  251.5982  367.5988 H   0  0  0  0  0  0  0  0  0  0  0  0  # atno 8516 bound_to 8500
  116.0267  244.7509  369.1778 H   0  0  0  0  0  0  0  0  0  0  0  0  # atno 9012 bound_to 8996
  123.2962  241.3346  360.4368 H   0  0  0  0  0  0  0  0  0  0  0  0  # atno 9116 bound_to 9086
  117.9879  240.0799  352.2516 H   0  0  0  0  0  0  0  0  0  0  0  0  # atno 9192 bound_to 9171
  120.4300  254.2623  355.3289 H   0  0  0  0  0  0  0  0  0  0  0  0  # atno 12904 bound_to 12876
  124.2315  250.1116  345.6418 H   0  0  0  0  0  0  0  0  0  0  0  0  # atno 13458 bound_to 13433
  122.7752  241.6110  361.9536 LP  0  0  0  0  0  0  0  0  0  0  0  0  # atno 13496 bound_to 9086
  122.4187  242.6666  360.7598 LP  0  0  0  0  0  0  0  0  0  0  0  0  # atno 13497 bound_to 9086
  114.7925  244.7033  368.1184 LP  0  0  0  0  0  0  0  0  0  0  0  0  # atno 13516 bound_to 8996
  115.2011  246.1112  368.8377 LP  0  0  0  0  0  0  0  0  0  0  0  0  # atno 13517 bound_to 8996
  125.2029  243.4631  362.3954 LP  0  0  0  0  0  0  0  0  0  0  0  0  # atno 13530 bound_to 8332
  125.5836  242.3431  361.2697 LP  0  0  0  0  0  0  0  0  0  0  0  0  # atno 13531 bound_to 8332
  128.2980  249.9581  363.3220 LP  0  0  0  0  0  0  0  0  0  0  0  0  # atno 13538 bound_to 5545
  127.9625  250.0184  361.7250 LP  0  0  0  0  0  0  0  0  0  0  0  0  # atno 13539 bound_to 5545
  124.0222  251.3436  366.1623 LP  0  0  0  0  0  0  0  0  0  0  0  0  # atno 13551 bound_to 8500
  124.0654  250.1535  367.2796 LP  0  0  0  0  0  0  0  0  0  0  0  0  # atno 13552 bound_to 8500
  121.2203  254.8524  354.0344 LP  0  0  0  0  0  0  0  0  0  0  0  0  # atno 13567 bound_to 12876
  119.6401  255.1987  354.2575 LP  0  0  0  0  0  0  0  0  0  0  0  0  # atno 13568 bound_to 12876
  124.4621  249.6690  347.1908 LP  0  0  0  0  0  0  0  0  0  0  0  0  # atno 13569 bound_to 13433
  125.4701  250.7439  346.4871 LP  0  0  0  0  0  0  0  0  0  0  0  0  # atno 13570 bound_to 13433

> <Gold.Score>
     Fitness  S(hb_ext) S(vdw_ext)  S(hb_int)    S(int)      intcor
     37.69       5.86      23.99       0.00      -1.15      -0.77

> <Gold.Goldscore.Fitness>
37.6906

> <Gold.Goldscore.Internal.Vdw>
-1.3541

> <Gold.Goldscore.Internal.Torsion>
-0.5667

> <Gold.Goldscore.External.Vdw>
23.9894

> <Gold.Goldscore.Internal.HBond>
0.0000

> <Gold.Goldscore.External.HBond>
5.8568

> <Gold.Goldscore.Internal.Correction>
-0.7693

> <Gold.Goldscore.Hbonds>
donor molecule, donor type, donor heavy atom, donor atom, acceptor molecule, acceptor atom, score
      P1  H  5679  5707       L1    17  0.79
      L1  H    10    23       P1  9362  0.18

> <Gold.Goldscore.Internal.Vdw.Weighted>
-1.3541

> <Gold.Goldscore.Internal.Torsion.Weighted>
-0.5667

> <Gold.Goldscore.External.Vdw.Weighted>
32.9854

> <Gold.Goldscore.Internal.HBond.Weighted>
0.0000

> <Gold.Goldscore.External.HBond.Weighted>
5.8568

> <Gold.Goldscore.Internal.Correction.Weighted>
-0.7693

> <Gold.Rescore>
     Score     S(PLP)   S(hbond)     S(cho)   S(metal)  DE(clash)   DE(tors)     intcor
     28.45     -24.61       2.10       0.00       0.00       0.91       0.78       ----

> <Gold.PLP.Fitness>
28.4501

> <Gold.PLP.PLP>
-24.6145

> <Gold.PLP.part.hbond>
-6.1216

> <Gold.PLP.part.metal>
0.0000

> <Gold.PLP.part.buried>
6.7896

> <Gold.PLP.part.nonpolar>
-30.6105

> <Gold.PLP.part.repulsive>
3.4461

> <Gold.PLP.ligand.clash>
0.9143

> <Gold.PLP.ligand.torsion>
0.7752

> <Gold.PLP.Chemscore.Hbond>
2.1001

> <Gold.PLP.Chemscore.CHOScore>
0.0000

> <Gold.PLP.Chemscore.Metal>
0.0000

> <Gold.Chemscore.Hbonds>
donor molecule, donor type, donor heavy atom, donor atom, acceptor molecule, acceptor atom, score
      L1  H     8    22       P1  5570  0.01
      L1  H    10    23       P1  9362  0.59
      P1  H  5679  5707       L1    17  1.00

> <Gold.PLP.Chemscore.Internal.Correction>
   9.000000E+99

