#       Name:                CT1002167954
#       Creating user name   hitesit
#       Creation time:       Sun Apr 16 22:51:15 2023


#       File generated by GOLD software.
#

@<TRIPOS>MOLECULE
CT1002167954|ligand_prepared|mol2|1|dock10
    29    30     1
SMALL
NO_CHARGES


@<TRIPOS>ATOM
      1 C1         123.7223 248.0269 357.4176 C.3            1 RES1               0.0000
      2 C2         123.3093 246.7240 356.7031 C.ar           1 RES1               0.0000
      3 C3         124.9502 248.5503 356.6783 C.2            1 RES1               0.0000
      4 C4         122.5131 248.9530 357.3488 C.2            1 RES1               0.0000
      5 C5         124.0913 247.8329 358.9068 C.3            1 RES1               0.0000
      6 C6         123.2605 246.6626 355.3136 C.ar           1 RES1               0.0000
      7 C7         122.9774 245.5765 357.4185 C.ar           1 RES1               0.0000
      8 N8         124.7864 249.6381 355.8722 N.am           1 RES1               0.0000
      9 O9         126.0371 247.9930 356.7702 O.2            1 RES1               0.0000
     10 N10        122.6252 250.1016 356.6098 N.am           1 RES1               0.0000
     11 O11        121.4587 248.6903 357.9141 O.2            1 RES1               0.0000
     12 C12        124.7164 249.0614 359.5487 C.3            1 RES1               0.0000
     13 C13        122.8961 245.4956 354.6628 C.ar           1 RES1               0.0000
     14 C14        122.6129 244.4106 356.7656 C.ar           1 RES1               0.0000
     15 C15        123.6968 250.4709 355.8434 C.2            1 RES1               0.0000
     16 C16        122.5725 244.3688 355.3882 C.ar           1 RES1               0.0000
     17 O17        123.7019 251.4927 355.1629 O.2            1 RES1               0.0000
     18 H18        123.1844 247.5664 359.4635 H              1 RES1               0.0000
     19 H19        124.7942 246.9948 358.9901 H              1 RES1               0.0000
     20 H20        123.5094 247.5400 354.7260 H              1 RES1               0.0000
     21 H21        123.0012 245.5865 358.5029 H              1 RES1               0.0000
     22 H22        125.5441 249.8521 355.2316 H              1 RES1               0.0000
     23 H23        121.8368 250.7405 356.6335 H              1 RES1               0.0000
     24 H24        124.9560 248.8714 360.5928 H              1 RES1               0.0000
     25 H25        125.6346 249.3398 359.0356 H              1 RES1               0.0000
     26 H26        124.0343 249.9081 359.5061 H              1 RES1               0.0000
     27 H27        122.8645 245.4683 353.5786 H              1 RES1               0.0000
     28 H28        122.3585 243.5263 357.3406 H              1 RES1               0.0000
     29 H29        122.2874 243.4546 354.8781 H              1 RES1               0.0000
@<TRIPOS>BOND
    1    1    2 1     
    2    1    3 1     
    3    1    4 1     
    4    1    5 1     
    5    2    6 ar    
    6    2    7 ar    
    7    3    8 1     
    8    3    9 2     
    9    4   10 1     
   10    4   11 2     
   11    5   12 1     
   12    5   18 1     
   13    5   19 1     
   14    6   13 ar    
   15    6   20 1     
   16    7   14 ar    
   17    7   21 1     
   18    8   15 1     
   19    8   22 1     
   20   10   15 1     
   21   10   23 1     
   22   12   24 1     
   23   12   25 1     
   24   12   26 1     
   25   13   16 ar    
   26   13   27 1     
   27   14   16 ar    
   28   14   28 1     
   29   15   17 2     
   30   16   29 1     
@<TRIPOS>SUBSTRUCTURE
      1 RES1           1
@<TRIPOS>SET
DONOR_HYDROGENS      STATIC     ATOMS    <user>   **** ""
2 22 23
ATOM$RED        STATIC     ATOMS    COLORGROUP SYSTEM
2 22 23
@<TRIPOS>COMMENT
> <Gold.Version>
2022.3.0

> <Gold.Id.Protein>
unknown|4uh6_clean|pdb

> <Gold.Protein.RotatedTorsions>
[ 9116 9086 9085 9083 ] final  -37.36 input   60.02 | X-H torsion
[ 9012 8996 8995 8992 ] final   83.78 input   59.99 | X-H torsion
[ 8362 8332 8331 8329 ] final  -22.43 input   59.98 | X-H torsion
[ 5561 5545 5544 5541 ] final  122.75 input   59.99 | X-H torsion
[ 8516 8500 8499 8496 ] final  -49.47 input   60.00 | X-H torsion
[ 12904 12876 12875 12873 ] final   -1.21 input   59.99 | X-H torsion
[ 13458 13433 13432 13428 ] final  -49.21 input   60.03 | X-H torsion
[ 9192 9171 9169 9166 ] final   93.60 input   60.01 | X-H torsion

> <Gold.Protein.ActiveResidues>
 TRP311  MET341  HIS342  TRP414  ARG419  CYS420  VAL421  GLY422  LEU429  LEU460 
 SER462  ALA463  ILE464  ASN481  SER482  GLN483  LEU484  ILE485  ARG486  ASP500 
 ALA502  ASN503  TRP566  TYR567  GLY568  LEU569  PRO570  ALA571  VAL572  SER573 
 ASN574  MET575  PRO588  PHE589  SER590  GLY591  TRP592  TYR593  MET594  GLY595 
 THR596  GLU597  ILE598  VAL600  ARG601  ASP602  TYR603  ASP605  ARG608  ILE653 
 VAL654  TRP683  PRO687  SER691  PHE696  HIS697  TYR711  HEM750  H4B760 

> <Gold.Protein.RotatedAtoms>
  127.1858  249.6742  361.8378 H   0  0  0  0  0  0  0  0  0  0  0  0  # atno 5561 bound_to 5545
  126.7416  242.7740  362.2015 H   0  0  0  0  0  0  0  0  0  0  0  0  # atno 8362 bound_to 8332
  123.8189  250.6664  366.2856 H   0  0  0  0  0  0  0  0  0  0  0  0  # atno 8516 bound_to 8500
  115.0307  244.4365  368.2481 H   0  0  0  0  0  0  0  0  0  0  0  0  # atno 9012 bound_to 8996
  123.0274  241.8980  360.1336 H   0  0  0  0  0  0  0  0  0  0  0  0  # atno 9116 bound_to 9086
  118.1917  240.7085  351.3267 H   0  0  0  0  0  0  0  0  0  0  0  0  # atno 9192 bound_to 9171
  120.5349  254.2427  355.3088 H   0  0  0  0  0  0  0  0  0  0  0  0  # atno 12904 bound_to 12876
  124.6355  249.7731  347.2798 H   0  0  0  0  0  0  0  0  0  0  0  0  # atno 13458 bound_to 13433
  123.1415  241.1517  361.5753 LP  0  0  0  0  0  0  0  0  0  0  0  0  # atno 13496 bound_to 9086
  122.3230  242.5586  361.4435 LP  0  0  0  0  0  0  0  0  0  0  0  0  # atno 13497 bound_to 9086
  114.9294  246.0255  368.5841 LP  0  0  0  0  0  0  0  0  0  0  0  0  # atno 13516 bound_to 8996
  116.0677  245.1057  369.3086 LP  0  0  0  0  0  0  0  0  0  0  0  0  # atno 13517 bound_to 8996
  125.3155  243.5048  362.4854 LP  0  0  0  0  0  0  0  0  0  0  0  0  # atno 13530 bound_to 8332
  125.4475  242.4037  361.2868 LP  0  0  0  0  0  0  0  0  0  0  0  0  # atno 13531 bound_to 8332
  127.3709  249.5447  363.4490 LP  0  0  0  0  0  0  0  0  0  0  0  0  # atno 13538 bound_to 5545
  128.5683  250.1745  362.5345 LP  0  0  0  0  0  0  0  0  0  0  0  0  # atno 13539 bound_to 5545
  124.4239  250.5148  367.7887 LP  0  0  0  0  0  0  0  0  0  0  0  0  # atno 13551 bound_to 8500
  124.5943  251.9202  366.9750 LP  0  0  0  0  0  0  0  0  0  0  0  0  # atno 13552 bound_to 8500
  121.1622  254.9148  353.9659 LP  0  0  0  0  0  0  0  0  0  0  0  0  # atno 13567 bound_to 12876
  119.5925  255.1559  354.3462 LP  0  0  0  0  0  0  0  0  0  0  0  0  # atno 13568 bound_to 12876
  125.4181  250.7875  346.2762 LP  0  0  0  0  0  0  0  0  0  0  0  0  # atno 13569 bound_to 13433
  124.1073  249.9663  345.7526 LP  0  0  0  0  0  0  0  0  0  0  0  0  # atno 13570 bound_to 13433

> <Gold.Score>
     Fitness  S(hb_ext) S(vdw_ext)  S(hb_int)    S(int)      intcor
     26.91       3.08      17.41       0.00      -0.11      -0.76

> <Gold.Goldscore.Fitness>
26.9070

> <Gold.Goldscore.Internal.Vdw>
-0.3629

> <Gold.Goldscore.Internal.Torsion>
-0.5170

> <Gold.Goldscore.External.Vdw>
17.4126

> <Gold.Goldscore.Internal.HBond>
0.0000

> <Gold.Goldscore.External.HBond>
3.0797

> <Gold.Goldscore.Internal.Correction>
-0.7650

> <Gold.Goldscore.Hbonds>
donor molecule, donor type, donor heavy atom, donor atom, acceptor molecule, acceptor atom, score
      L1  H    10    23       P1 13292  0.51

> <Gold.Goldscore.Internal.Vdw.Weighted>
-0.3629

> <Gold.Goldscore.Internal.Torsion.Weighted>
-0.5170

> <Gold.Goldscore.External.Vdw.Weighted>
23.9423

> <Gold.Goldscore.Internal.HBond.Weighted>
0.0000

> <Gold.Goldscore.External.HBond.Weighted>
3.0797

> <Gold.Goldscore.Internal.Correction.Weighted>
-0.7650

> <Gold.Rescore>
     Score     S(PLP)   S(hbond)     S(cho)   S(metal)  DE(clash)   DE(tors)     intcor
     28.46     -26.85       1.02       0.00       0.00       0.00       0.72       ----

> <Gold.PLP.Fitness>
28.4599

> <Gold.PLP.PLP>
-26.8517

> <Gold.PLP.part.hbond>
-2.8888

> <Gold.PLP.part.metal>
0.0000

> <Gold.PLP.part.buried>
-3.8503

> <Gold.PLP.part.nonpolar>
-20.2389

> <Gold.PLP.part.repulsive>
0.4642

> <Gold.PLP.ligand.clash>
0.0000

> <Gold.PLP.ligand.torsion>
0.7202

> <Gold.PLP.Chemscore.Hbond>
1.0162

> <Gold.PLP.Chemscore.CHOScore>
0.0000

> <Gold.PLP.Chemscore.Metal>
0.0000

> <Gold.Chemscore.Hbonds>
donor molecule, donor type, donor heavy atom, donor atom, acceptor molecule, acceptor atom, score
      L1  H    10    23       P1 13292  0.96
      P1  H  5682  5710       L1     9  0.02

> <Gold.PLP.Chemscore.Internal.Correction>
   9.000000E+99

