#       Name:                CT1002167954
#       Creating user name   hitesit
#       Creation time:       Sun Apr 16 22:51:09 2023


#       File generated by GOLD software.
#

@<TRIPOS>MOLECULE
CT1002167954|ligand_prepared|mol2|1|dock3
    29    30     1
SMALL
NO_CHARGES


@<TRIPOS>ATOM
      1 C1         123.0900 245.1855 357.7213 C.3            1 RES1               0.0000
      2 C2         123.3980 245.4647 356.2360 C.ar           1 RES1               0.0000
      3 C3         123.2838 243.6857 357.9244 C.2            1 RES1               0.0000
      4 C4         124.0520 246.0519 358.5266 C.2            1 RES1               0.0000
      5 C5         121.6483 245.5558 358.1407 C.3            1 RES1               0.0000
      6 C6         122.4287 245.2547 355.2597 C.ar           1 RES1               0.0000
      7 C7         124.6436 245.9343 355.8279 C.ar           1 RES1               0.0000
      8 N8         124.3965 243.2781 358.5995 N.am           1 RES1               0.0000
      9 O9         122.4928 242.8712 357.4649 O.2            1 RES1               0.0000
     10 N10        125.0006 245.4208 359.2880 N.am           1 RES1               0.0000
     11 O11        124.0078 247.2755 358.4958 O.2            1 RES1               0.0000
     12 C12        121.4043 245.4693 359.6391 C.3            1 RES1               0.0000
     13 C13        122.6941 245.5077 353.9241 C.ar           1 RES1               0.0000
     14 C14        124.9069 246.1864 354.4916 C.ar           1 RES1               0.0000
     15 C15        125.2361 244.0738 359.3369 C.2            1 RES1               0.0000
     16 C16        123.9330 245.9741 353.5392 C.ar           1 RES1               0.0000
     17 O17        126.1437 243.5852 360.0037 O.2            1 RES1               0.0000
     18 H18        121.4350 246.5786 357.8066 H              1 RES1               0.0000
     19 H19        120.9481 244.8833 357.6297 H              1 RES1               0.0000
     20 H20        121.4487 244.8857 355.5433 H              1 RES1               0.0000
     21 H21        125.4253 246.1075 356.5596 H              1 RES1               0.0000
     22 H22        124.6255 242.2904 358.5516 H              1 RES1               0.0000
     23 H23        125.5853 246.0097 359.8725 H              1 RES1               0.0000
     24 H24        120.3779 245.7390 359.8790 H              1 RES1               0.0000
     25 H25        121.5827 244.4590 360.0013 H              1 RES1               0.0000
     26 H26        122.0667 246.1442 360.1772 H              1 RES1               0.0000
     27 H27        121.9246 245.3377 353.1782 H              1 RES1               0.0000
     28 H28        125.8836 246.5528 354.1932 H              1 RES1               0.0000
     29 H29        124.1405 246.1726 352.4929 H              1 RES1               0.0000
@<TRIPOS>BOND
    1    1    2 1     
    2    1    3 1     
    3    1    4 1     
    4    1    5 1     
    5    2    6 ar    
    6    2    7 ar    
    7    3    8 1     
    8    3    9 2     
    9    4   10 1     
   10    4   11 2     
   11    5   12 1     
   12    5   18 1     
   13    5   19 1     
   14    6   13 ar    
   15    6   20 1     
   16    7   14 ar    
   17    7   21 1     
   18    8   15 1     
   19    8   22 1     
   20   10   15 1     
   21   10   23 1     
   22   12   24 1     
   23   12   25 1     
   24   12   26 1     
   25   13   16 ar    
   26   13   27 1     
   27   14   16 ar    
   28   14   28 1     
   29   15   17 2     
   30   16   29 1     
@<TRIPOS>SUBSTRUCTURE
      1 RES1           1
@<TRIPOS>SET
DONOR_HYDROGENS      STATIC     ATOMS    <user>   **** ""
2 22 23
ATOM$RED        STATIC     ATOMS    COLORGROUP SYSTEM
2 22 23
@<TRIPOS>COMMENT
> <Gold.Version>
2022.3.0

> <Gold.Id.Protein>
unknown|4uh6_clean|pdb

> <Gold.Protein.RotatedTorsions>
[ 9116 9086 9085 9083 ] final -147.63 input   60.02 | X-H torsion
[ 9012 8996 8995 8992 ] final  -74.11 input   59.99 | X-H torsion
[ 8362 8332 8331 8329 ] final -135.17 input   59.98 | X-H torsion
[ 5561 5545 5544 5541 ] final   56.97 input   59.99 | X-H torsion
[ 8516 8500 8499 8496 ] final  -92.97 input   60.00 | X-H torsion
[ 12904 12876 12875 12873 ] final   -4.91 input   59.99 | X-H torsion
[ 13458 13433 13432 13428 ] final -125.24 input   60.03 | X-H torsion
[ 9192 9171 9169 9166 ] final  170.94 input   60.01 | X-H torsion

> <Gold.Protein.ActiveResidues>
 TRP311  MET341  HIS342  TRP414  ARG419  CYS420  VAL421  GLY422  LEU429  LEU460 
 SER462  ALA463  ILE464  ASN481  SER482  GLN483  LEU484  ILE485  ARG486  ASP500 
 ALA502  ASN503  TRP566  TYR567  GLY568  LEU569  PRO570  ALA571  VAL572  SER573 
 ASN574  MET575  PRO588  PHE589  SER590  GLY591  TRP592  TYR593  MET594  GLY595 
 THR596  GLU597  ILE598  VAL600  ARG601  ASP602  TYR603  ASP605  ARG608  ILE653 
 VAL654  TRP683  PRO687  SER691  PHE696  HIS697  TYR711  HEM750  H4B760 

> <Gold.Protein.RotatedAtoms>
  126.8670  249.4187  362.7684 H   0  0  0  0  0  0  0  0  0  0  0  0  # atno 5561 bound_to 5545
  125.4167  243.5209  362.5461 H   0  0  0  0  0  0  0  0  0  0  0  0  # atno 8362 bound_to 8332
  123.8772  250.2125  366.8072 H   0  0  0  0  0  0  0  0  0  0  0  0  # atno 8516 bound_to 8500
  115.3859  246.0818  368.9847 H   0  0  0  0  0  0  0  0  0  0  0  0  # atno 9012 bound_to 8996
  123.2016  241.1018  361.4361 H   0  0  0  0  0  0  0  0  0  0  0  0  # atno 9116 bound_to 9086
  117.4594  240.2750  350.5237 H   0  0  0  0  0  0  0  0  0  0  0  0  # atno 9192 bound_to 9171
  120.5928  254.2349  355.2931 H   0  0  0  0  0  0  0  0  0  0  0  0  # atno 12904 bound_to 12876
  125.4284  250.5357  346.9330 H   0  0  0  0  0  0  0  0  0  0  0  0  # atno 13458 bound_to 13433
  122.3412  242.4757  361.5791 LP  0  0  0  0  0  0  0  0  0  0  0  0  # atno 13496 bound_to 9086
  122.9479  242.0363  360.1281 LP  0  0  0  0  0  0  0  0  0  0  0  0  # atno 13497 bound_to 9086
  115.9493  244.5573  369.0632 LP  0  0  0  0  0  0  0  0  0  0  0  0  # atno 13516 bound_to 8996
  114.6899  244.9163  368.0875 LP  0  0  0  0  0  0  0  0  0  0  0  0  # atno 13517 bound_to 8996
  125.3460  242.4609  361.3132 LP  0  0  0  0  0  0  0  0  0  0  0  0  # atno 13530 bound_to 8332
  126.7507  242.6958  362.1121 LP  0  0  0  0  0  0  0  0  0  0  0  0  # atno 13531 bound_to 8332
  128.2987  249.9584  363.3214 LP  0  0  0  0  0  0  0  0  0  0  0  0  # atno 13538 bound_to 5545
  127.9616  250.0181  361.7247 LP  0  0  0  0  0  0  0  0  0  0  0  0  # atno 13539 bound_to 5545
  124.6925  251.1566  367.8525 LP  0  0  0  0  0  0  0  0  0  0  0  0  # atno 13551 bound_to 8500
  124.2671  251.7354  366.3861 LP  0  0  0  0  0  0  0  0  0  0  0  0  # atno 13552 bound_to 8500
  121.1256  254.9488  353.9311 LP  0  0  0  0  0  0  0  0  0  0  0  0  # atno 13567 bound_to 12876
  119.5709  255.1299  354.3968 LP  0  0  0  0  0  0  0  0  0  0  0  0  # atno 13568 bound_to 12876
  124.5925  250.4330  345.5404 LP  0  0  0  0  0  0  0  0  0  0  0  0  # atno 13569 bound_to 13433
  124.1347  249.5530  346.8376 LP  0  0  0  0  0  0  0  0  0  0  0  0  # atno 13570 bound_to 13433

> <Gold.Score>
     Fitness  S(hb_ext) S(vdw_ext)  S(hb_int)    S(int)      intcor
     43.29       6.49      27.46       0.00      -0.95      -0.77

> <Gold.Goldscore.Fitness>
43.2876

> <Gold.Goldscore.Internal.Vdw>
-1.2501

> <Gold.Goldscore.Internal.Torsion>
-0.4717

> <Gold.Goldscore.External.Vdw>
27.4561

> <Gold.Goldscore.Internal.HBond>
0.0000

> <Gold.Goldscore.External.HBond>
6.4880

> <Gold.Goldscore.Internal.Correction>
-0.7693

> <Gold.Goldscore.Hbonds>
donor molecule, donor type, donor heavy atom, donor atom, acceptor molecule, acceptor atom, score
      P1  H  5679  5707       L1    17  0.82
      P1  H  5682  5711       L1    17  0.02
      L1  H     8    22       P1  9362  0.24

> <Gold.Goldscore.Internal.Vdw.Weighted>
-1.2501

> <Gold.Goldscore.Internal.Torsion.Weighted>
-0.4717

> <Gold.Goldscore.External.Vdw.Weighted>
37.7521

> <Gold.Goldscore.Internal.HBond.Weighted>
0.0000

> <Gold.Goldscore.External.HBond.Weighted>
6.4880

> <Gold.Goldscore.Internal.Correction.Weighted>
-0.7693

> <Gold.Rescore>
     Score     S(PLP)   S(hbond)     S(cho)   S(metal)  DE(clash)   DE(tors)     intcor
     24.94     -21.27       1.82       0.00       0.00       1.44       0.17       ----

> <Gold.PLP.Fitness>
24.9420

> <Gold.PLP.PLP>
-21.2723

> <Gold.PLP.part.hbond>
-4.5053

> <Gold.PLP.part.metal>
0.0000

> <Gold.PLP.part.buried>
0.1124

> <Gold.PLP.part.nonpolar>
-24.2792

> <Gold.PLP.part.repulsive>
6.0310

> <Gold.PLP.ligand.clash>
1.4442

> <Gold.PLP.ligand.torsion>
0.1694

> <Gold.PLP.Chemscore.Hbond>
1.8176

> <Gold.PLP.Chemscore.CHOScore>
0.0000

> <Gold.PLP.Chemscore.Metal>
0.0000

> <Gold.Chemscore.Hbonds>
donor molecule, donor type, donor heavy atom, donor atom, acceptor molecule, acceptor atom, score
      L1  H     8    22       P1  9362  0.56
      P1  H  5679  5707       L1    17  0.99

> <Gold.PLP.Chemscore.Internal.Correction>
   9.000000E+99

