#       Name:                CT1002167954
#       Creating user name   hitesit
#       Creation time:       Sun Apr 16 22:51:13 2023


#       File generated by GOLD software.
#

@<TRIPOS>MOLECULE
CT1002167954|ligand_prepared|mol2|1|dock7
    29    30     1
SMALL
NO_CHARGES


@<TRIPOS>ATOM
      1 C1         123.0088 245.9393 358.0793 C.3            1 RES1               0.0000
      2 C2         122.5890 247.3675 358.4827 C.ar           1 RES1               0.0000
      3 C3         121.7295 245.1080 358.0532 C.2            1 RES1               0.0000
      4 C4         123.6976 246.0637 356.7248 C.2            1 RES1               0.0000
      5 C5         124.0035 245.2793 359.0623 C.3            1 RES1               0.0000
      6 C6         123.5162 248.2519 359.0258 C.ar           1 RES1               0.0000
      7 C7         121.2812 247.8152 358.3156 C.ar           1 RES1               0.0000
      8 N8         121.2253 244.7625 356.8341 N.am           1 RES1               0.0000
      9 O9         121.1502 244.7941 359.0858 O.2            1 RES1               0.0000
     10 N10        123.0934 245.4816 355.6413 N.am           1 RES1               0.0000
     11 O11        124.7497 246.6747 356.5830 O.2            1 RES1               0.0000
     12 C12        124.2980 243.8206 358.7495 C.3            1 RES1               0.0000
     13 C13        123.1502 249.5381 359.3861 C.ar           1 RES1               0.0000
     14 C14        120.9172 249.1019 358.6768 C.ar           1 RES1               0.0000
     15 C15        121.8730 244.8630 355.6291 C.2            1 RES1               0.0000
     16 C16        121.8507 249.9642 359.2115 C.ar           1 RES1               0.0000
     17 O17        121.3709 244.4119 354.6037 O.2            1 RES1               0.0000
     18 H18        124.9451 245.8417 359.0427 H              1 RES1               0.0000
     19 H19        123.5938 245.3468 360.0777 H              1 RES1               0.0000
     20 H20        124.5429 247.9336 359.1729 H              1 RES1               0.0000
     21 H21        120.5298 247.1539 357.8979 H              1 RES1               0.0000
     22 H22        120.2791 244.3954 356.8168 H              1 RES1               0.0000
     23 H23        123.6004 245.5122 354.7625 H              1 RES1               0.0000
     24 H24        125.0009 243.4061 359.4691 H              1 RES1               0.0000
     25 H25        123.3869 243.2269 358.7852 H              1 RES1               0.0000
     26 H26        124.7302 243.7189 357.7562 H              1 RES1               0.0000
     27 H27        123.8883 250.2124 359.8077 H              1 RES1               0.0000
     28 H28        119.8932 249.4327 358.5382 H              1 RES1               0.0000
     29 H29        121.5642 250.9720 359.4934 H              1 RES1               0.0000
@<TRIPOS>BOND
    1    1    2 1     
    2    1    3 1     
    3    1    4 1     
    4    1    5 1     
    5    2    6 ar    
    6    2    7 ar    
    7    3    8 1     
    8    3    9 2     
    9    4   10 1     
   10    4   11 2     
   11    5   12 1     
   12    5   18 1     
   13    5   19 1     
   14    6   13 ar    
   15    6   20 1     
   16    7   14 ar    
   17    7   21 1     
   18    8   15 1     
   19    8   22 1     
   20   10   15 1     
   21   10   23 1     
   22   12   24 1     
   23   12   25 1     
   24   12   26 1     
   25   13   16 ar    
   26   13   27 1     
   27   14   16 ar    
   28   14   28 1     
   29   15   17 2     
   30   16   29 1     
@<TRIPOS>SUBSTRUCTURE
      1 RES1           1
@<TRIPOS>SET
DONOR_HYDROGENS      STATIC     ATOMS    <user>   **** ""
2 22 23
ATOM$RED        STATIC     ATOMS    COLORGROUP SYSTEM
2 22 23
@<TRIPOS>COMMENT
> <Gold.Version>
2022.3.0

> <Gold.Id.Protein>
unknown|4uh6_clean|pdb

> <Gold.Protein.RotatedTorsions>
[ 9116 9086 9085 9083 ] final  108.58 input   60.02 | X-H torsion
[ 9012 8996 8995 8992 ] final  173.97 input   59.99 | X-H torsion
[ 8362 8332 8331 8329 ] final -163.99 input   59.98 | X-H torsion
[ 5561 5545 5544 5541 ] final  163.50 input   59.99 | X-H torsion
[ 8516 8500 8499 8496 ] final  128.26 input   60.00 | X-H torsion
[ 12904 12876 12875 12873 ] final  -25.00 input   59.99 | X-H torsion
[ 13458 13433 13432 13428 ] final -149.60 input   60.03 | X-H torsion
[ 9192 9171 9169 9166 ] final   98.14 input   60.01 | X-H torsion

> <Gold.Protein.ActiveResidues>
 TRP311  MET341  HIS342  TRP414  ARG419  CYS420  VAL421  GLY422  LEU429  LEU460 
 SER462  ALA463  ILE464  ASN481  SER482  GLN483  LEU484  ILE485  ARG486  ASP500 
 ALA502  ASN503  TRP566  TYR567  GLY568  LEU569  PRO570  ALA571  VAL572  SER573 
 ASN574  MET575  PRO588  PHE589  SER590  GLY591  TRP592  TYR593  MET594  GLY595 
 THR596  GLU597  ILE598  VAL600  ARG601  ASP602  TYR603  ASP605  ARG608  ILE653 
 VAL654  TRP683  PRO687  SER691  PHE696  HIS697  TYR711  HEM750  H4B760 

> <Gold.Protein.RotatedAtoms>
  127.7599  249.9400  361.6818 H   0  0  0  0  0  0  0  0  0  0  0  0  # atno 5561 bound_to 5545
  125.0804  243.3781  362.2567 H   0  0  0  0  0  0  0  0  0  0  0  0  # atno 8362 bound_to 8332
  124.7373  251.4324  367.7266 H   0  0  0  0  0  0  0  0  0  0  0  0  # atno 8516 bound_to 8500
  115.9960  244.6630  369.1285 H   0  0  0  0  0  0  0  0  0  0  0  0  # atno 9012 bound_to 8996
  122.4033  242.2963  361.7639 H   0  0  0  0  0  0  0  0  0  0  0  0  # atno 9116 bound_to 9086
  118.1693  240.7155  351.2563 H   0  0  0  0  0  0  0  0  0  0  0  0  # atno 9192 bound_to 9171
  120.8892  254.2319  355.1558 H   0  0  0  0  0  0  0  0  0  0  0  0  # atno 12904 bound_to 12876
  125.4735  250.7118  346.5822 H   0  0  0  0  0  0  0  0  0  0  0  0  # atno 13458 bound_to 13433
  122.8039  242.2517  360.1872 LP  0  0  0  0  0  0  0  0  0  0  0  0  # atno 13496 bound_to 9086
  123.2890  241.0576  361.1899 LP  0  0  0  0  0  0  0  0  0  0  0  0  # atno 13497 bound_to 9086
  114.7422  244.7948  368.0998 LP  0  0  0  0  0  0  0  0  0  0  0  0  # atno 13516 bound_to 8996
  115.2823  246.1082  368.9059 LP  0  0  0  0  0  0  0  0  0  0  0  0  # atno 13517 bound_to 8996
  125.7787  242.2832  361.2758 LP  0  0  0  0  0  0  0  0  0  0  0  0  # atno 13530 bound_to 8332
  126.6566  243.0172  362.4408 LP  0  0  0  0  0  0  0  0  0  0  0  0  # atno 13531 bound_to 8332
  126.9304  249.4160  362.9796 LP  0  0  0  0  0  0  0  0  0  0  0  0  # atno 13538 bound_to 5545
  128.4304  250.0353  363.1611 LP  0  0  0  0  0  0  0  0  0  0  0  0  # atno 13539 bound_to 5545
  124.1163  251.5216  366.2249 LP  0  0  0  0  0  0  0  0  0  0  0  0  # atno 13551 bound_to 8500
  123.9775  250.1425  367.0883 LP  0  0  0  0  0  0  0  0  0  0  0  0  # atno 13552 bound_to 8500
  120.8806  255.1165  353.7898 LP  0  0  0  0  0  0  0  0  0  0  0  0  # atno 13567 bound_to 12876
  119.5176  254.9652  354.6764 LP  0  0  0  0  0  0  0  0  0  0  0  0  # atno 13568 bound_to 12876
  124.2943  250.1758  345.5969 LP  0  0  0  0  0  0  0  0  0  0  0  0  # atno 13569 bound_to 13433
  124.3874  249.6329  347.1342 LP  0  0  0  0  0  0  0  0  0  0  0  0  # atno 13570 bound_to 13433

> <Gold.Score>
     Fitness  S(hb_ext) S(vdw_ext)  S(hb_int)    S(int)      intcor
     34.01       4.66      22.21       0.00      -1.19      -0.77

> <Gold.Goldscore.Fitness>
34.0104

> <Gold.Goldscore.Internal.Vdw>
-1.5191

> <Gold.Goldscore.Internal.Torsion>
-0.4362

> <Gold.Goldscore.External.Vdw>
22.2106

> <Gold.Goldscore.Internal.HBond>
0.0000

> <Gold.Goldscore.External.HBond>
4.6575

> <Gold.Goldscore.Internal.Correction>
-0.7686

> <Gold.Goldscore.Hbonds>
donor molecule, donor type, donor heavy atom, donor atom, acceptor molecule, acceptor atom, score
      L1  H     8    22       P1  9200  0.78

> <Gold.Goldscore.Internal.Vdw.Weighted>
-1.5191

> <Gold.Goldscore.Internal.Torsion.Weighted>
-0.4362

> <Gold.Goldscore.External.Vdw.Weighted>
30.5395

> <Gold.Goldscore.Internal.HBond.Weighted>
0.0000

> <Gold.Goldscore.External.HBond.Weighted>
4.6575

> <Gold.Goldscore.Internal.Correction.Weighted>
-0.7686

> <Gold.Rescore>
     Score     S(PLP)   S(hbond)     S(cho)   S(metal)  DE(clash)   DE(tors)     intcor
     21.36     -19.97       1.00       0.00       0.00       0.77       0.42       ----

> <Gold.PLP.Fitness>
21.3566

> <Gold.PLP.PLP>
-19.9745

> <Gold.PLP.part.hbond>
-2.0059

> <Gold.PLP.part.metal>
0.0000

> <Gold.PLP.part.buried>
1.1126

> <Gold.PLP.part.nonpolar>
-19.8174

> <Gold.PLP.part.repulsive>
0.4918

> <Gold.PLP.ligand.clash>
0.7749

> <Gold.PLP.ligand.torsion>
0.4215

> <Gold.PLP.Chemscore.Hbond>
1.0000

> <Gold.PLP.Chemscore.CHOScore>
0.0000

> <Gold.PLP.Chemscore.Metal>
0.0000

> <Gold.Chemscore.Hbonds>
donor molecule, donor type, donor heavy atom, donor atom, acceptor molecule, acceptor atom, score
      L1  H     8    22       P1  9200  0.96

> <Gold.PLP.Chemscore.Internal.Correction>
   9.000000E+99

