#       Name:                CT1002167954
#       Creating user name   hitesit
#       Creation time:       Sun Apr 16 22:51:12 2023


#       File generated by GOLD software.
#

@<TRIPOS>MOLECULE
CT1002167954|ligand_prepared|mol2|1|dock6
    29    30     1
SMALL
NO_CHARGES


@<TRIPOS>ATOM
      1 C1         123.1452 245.7383 358.0489 C.3            1 RES1               0.0000
      2 C2         122.9550 247.2688 358.0450 C.ar           1 RES1               0.0000
      3 C3         121.7455 245.1325 358.0050 C.2            1 RES1               0.0000
      4 C4         124.0029 245.4119 356.8313 C.2            1 RES1               0.0000
      5 C5         123.8733 245.2024 359.3036 C.3            1 RES1               0.0000
      6 C6         122.9443 247.9785 356.8479 C.ar           1 RES1               0.0000
      7 C7         122.7866 247.9833 359.2281 C.ar           1 RES1               0.0000
      8 N8         121.3357 244.5730 356.8307 N.am           1 RES1               0.0000
      9 O9         120.9979 245.1801 358.9741 O.2            1 RES1               0.0000
     10 N10        123.4350 244.6757 355.8247 N.am           1 RES1               0.0000
     11 O11        125.1600 245.7997 356.7271 O.2            1 RES1               0.0000
     12 C12        124.3277 243.7567 359.1782 C.3            1 RES1               0.0000
     13 C13        122.7687 249.3523 356.8338 C.ar           1 RES1               0.0000
     14 C14        122.6114 249.3572 359.2117 C.ar           1 RES1               0.0000
     15 C15        122.1308 244.2676 355.7554 C.2            1 RES1               0.0000
     16 C16        122.6017 250.0425 358.0154 C.ar           1 RES1               0.0000
     17 O17        121.6801 243.6556 354.7914 O.2            1 RES1               0.0000
     18 H18        124.7498 245.8324 359.4993 H              1 RES1               0.0000
     19 H19        123.2001 245.2873 360.1657 H              1 RES1               0.0000
     20 H20        123.0767 247.4527 355.9081 H              1 RES1               0.0000
     21 H21        122.7919 247.4653 360.1811 H              1 RES1               0.0000
     22 H22        120.3466 244.3622 356.7440 H              1 RES1               0.0000
     23 H23        124.0407 244.4068 355.0558 H              1 RES1               0.0000
     24 H24        124.8323 243.4310 360.0853 H              1 RES1               0.0000
     25 H25        123.4781 243.0987 359.0081 H              1 RES1               0.0000
     26 H26        125.0185 243.6405 358.3457 H              1 RES1               0.0000
     27 H27        122.7632 249.8871 355.8897 H              1 RES1               0.0000
     28 H28        122.4810 249.8964 360.1442 H              1 RES1               0.0000
     29 H29        122.4638 251.1186 358.0041 H              1 RES1               0.0000
@<TRIPOS>BOND
    1    1    2 1     
    2    1    3 1     
    3    1    4 1     
    4    1    5 1     
    5    2    6 ar    
    6    2    7 ar    
    7    3    8 1     
    8    3    9 2     
    9    4   10 1     
   10    4   11 2     
   11    5   12 1     
   12    5   18 1     
   13    5   19 1     
   14    6   13 ar    
   15    6   20 1     
   16    7   14 ar    
   17    7   21 1     
   18    8   15 1     
   19    8   22 1     
   20   10   15 1     
   21   10   23 1     
   22   12   24 1     
   23   12   25 1     
   24   12   26 1     
   25   13   16 ar    
   26   13   27 1     
   27   14   16 ar    
   28   14   28 1     
   29   15   17 2     
   30   16   29 1     
@<TRIPOS>SUBSTRUCTURE
      1 RES1           1
@<TRIPOS>SET
DONOR_HYDROGENS      STATIC     ATOMS    <user>   **** ""
2 22 23
ATOM$RED        STATIC     ATOMS    COLORGROUP SYSTEM
2 22 23
@<TRIPOS>COMMENT
> <Gold.Version>
2022.3.0

> <Gold.Id.Protein>
unknown|4uh6_clean|pdb

> <Gold.Protein.RotatedTorsions>
[ 9116 9086 9085 9083 ] final -157.53 input   60.02 | X-H torsion
[ 9012 8996 8995 8992 ] final  -43.40 input   59.99 | X-H torsion
[ 8362 8332 8331 8329 ] final  -94.41 input   59.98 | X-H torsion
[ 5561 5545 5544 5541 ] final  152.72 input   59.99 | X-H torsion
[ 8516 8500 8499 8496 ] final  141.31 input   60.00 | X-H torsion
[ 12904 12876 12875 12873 ] final    0.32 input   59.99 | X-H torsion
[ 13458 13433 13432 13428 ] final  -22.16 input   60.03 | X-H torsion
[ 9192 9171 9169 9166 ] final -107.93 input   60.01 | X-H torsion

> <Gold.Protein.ActiveResidues>
 TRP311  MET341  HIS342  TRP414  ARG419  CYS420  VAL421  GLY422  LEU429  LEU460 
 SER462  ALA463  ILE464  ASN481  SER482  GLN483  LEU484  ILE485  ARG486  ASP500 
 ALA502  ASN503  TRP566  TYR567  GLY568  LEU569  PRO570  ALA571  VAL572  SER573 
 ASN574  MET575  PRO588  PHE589  SER590  GLY591  TRP592  TYR593  MET594  GLY595 
 THR596  GLU597  ILE598  VAL600  ARG601  ASP602  TYR603  ASP605  ARG608  ILE653 
 VAL654  TRP683  PRO687  SER691  PHE696  HIS697  TYR711  HEM750  H4B760 

> <Gold.Protein.RotatedAtoms>
  127.5981  249.8711  361.6787 H   0  0  0  0  0  0  0  0  0  0  0  0  # atno 5561 bound_to 5545
  126.0445  243.4564  362.7110 H   0  0  0  0  0  0  0  0  0  0  0  0  # atno 8362 bound_to 8332
  124.7074  251.2436  367.8200 H   0  0  0  0  0  0  0  0  0  0  0  0  # atno 8516 bound_to 8500
  115.0112  246.0615  368.6608 H   0  0  0  0  0  0  0  0  0  0  0  0  # atno 9012 bound_to 8996
  123.1363  241.1566  361.5733 H   0  0  0  0  0  0  0  0  0  0  0  0  # atno 9116 bound_to 9086
  116.9097  239.3986  351.1665 H   0  0  0  0  0  0  0  0  0  0  0  0  # atno 9192 bound_to 9171
  120.5108  254.2466  355.3144 H   0  0  0  0  0  0  0  0  0  0  0  0  # atno 12904 bound_to 12876
  124.3029  249.6030  347.0513 H   0  0  0  0  0  0  0  0  0  0  0  0  # atno 13458 bound_to 13433
  122.3228  242.5599  361.4411 LP  0  0  0  0  0  0  0  0  0  0  0  0  # atno 13496 bound_to 9086
  123.0320  241.8971  360.1279 LP  0  0  0  0  0  0  0  0  0  0  0  0  # atno 13497 bound_to 9086
  116.0690  244.9911  369.2795 LP  0  0  0  0  0  0  0  0  0  0  0  0  # atno 13516 bound_to 8996
  114.9477  244.5030  368.1974 LP  0  0  0  0  0  0  0  0  0  0  0  0  # atno 13517 bound_to 8996
  124.9615  242.8795  361.6420 LP  0  0  0  0  0  0  0  0  0  0  0  0  # atno 13530 bound_to 8332
  126.5033  242.3421  361.6172 LP  0  0  0  0  0  0  0  0  0  0  0  0  # atno 13531 bound_to 8332
  127.0164  249.4331  363.1335 LP  0  0  0  0  0  0  0  0  0  0  0  0  # atno 13538 bound_to 5545
  128.5074  250.0876  363.0103 LP  0  0  0  0  0  0  0  0  0  0  0  0  # atno 13539 bound_to 5545
  124.2202  251.6772  366.3290 LP  0  0  0  0  0  0  0  0  0  0  0  0  # atno 13551 bound_to 8500
  123.9036  250.1768  366.8902 LP  0  0  0  0  0  0  0  0  0  0  0  0  # atno 13552 bound_to 8500
  121.1765  254.9006  353.9810 LP  0  0  0  0  0  0  0  0  0  0  0  0  # atno 13567 bound_to 12876
  119.6025  255.1663  354.3255 LP  0  0  0  0  0  0  0  0  0  0  0  0  # atno 13568 bound_to 12876
  125.4807  250.6685  346.6961 LP  0  0  0  0  0  0  0  0  0  0  0  0  # atno 13569 bound_to 13433
  124.3796  250.2565  345.5628 LP  0  0  0  0  0  0  0  0  0  0  0  0  # atno 13570 bound_to 13433

> <Gold.Score>
     Fitness  S(hb_ext) S(vdw_ext)  S(hb_int)    S(int)      intcor
     32.42       4.14      20.97       0.00      -0.56      -0.77

> <Gold.Goldscore.Fitness>
32.4153

> <Gold.Goldscore.Internal.Vdw>
-0.7182

> <Gold.Goldscore.Internal.Torsion>
-0.6074

> <Gold.Goldscore.External.Vdw>
20.9657

> <Gold.Goldscore.Internal.HBond>
0.0000

> <Gold.Goldscore.External.HBond>
4.1437

> <Gold.Goldscore.Internal.Correction>
-0.7693

> <Gold.Goldscore.Hbonds>
donor molecule, donor type, donor heavy atom, donor atom, acceptor molecule, acceptor atom, score
      L1  H     8    22       P1  9200  0.69

> <Gold.Goldscore.Internal.Vdw.Weighted>
-0.7182

> <Gold.Goldscore.Internal.Torsion.Weighted>
-0.6074

> <Gold.Goldscore.External.Vdw.Weighted>
28.8279

> <Gold.Goldscore.Internal.HBond.Weighted>
0.0000

> <Gold.Goldscore.External.HBond.Weighted>
4.1437

> <Gold.Goldscore.Internal.Correction.Weighted>
-0.7693

> <Gold.Rescore>
     Score     S(PLP)   S(hbond)     S(cho)   S(metal)  DE(clash)   DE(tors)     intcor
     18.15     -17.35       0.99       0.00       0.00       0.00       1.09       ----

> <Gold.PLP.Fitness>
18.1536

> <Gold.PLP.PLP>
-17.3530

> <Gold.PLP.part.hbond>
-2.1295

> <Gold.PLP.part.metal>
0.0000

> <Gold.PLP.part.buried>
1.3456

> <Gold.PLP.part.nonpolar>
-17.6923

> <Gold.PLP.part.repulsive>
0.5305

> <Gold.PLP.ligand.clash>
0.0000

> <Gold.PLP.ligand.torsion>
1.0866

> <Gold.PLP.Chemscore.Hbond>
0.9913

> <Gold.PLP.Chemscore.CHOScore>
0.0000

> <Gold.PLP.Chemscore.Metal>
0.0000

> <Gold.Chemscore.Hbonds>
donor molecule, donor type, donor heavy atom, donor atom, acceptor molecule, acceptor atom, score
      L1  H     8    22       P1  9200  1.00

> <Gold.PLP.Chemscore.Internal.Correction>
   9.000000E+99

