#       Name:                CT1002167954
#       Creating user name   hitesit
#       Creation time:       Sun Apr 16 23:03:01 2023


#       File generated by GOLD software.
#

@<TRIPOS>MOLECULE
CT1002167954|ligand_prepared|mol2|1|dock2
    29    30     1
SMALL
NO_CHARGES


@<TRIPOS>ATOM
      1 C1         222.7223  45.2289  32.4336 C.3            1 RES1               0.0000
      2 C2         221.5754  44.2024  32.5323 C.ar           1 RES1               0.0000
      3 C3         222.6832  45.7794  31.0110 C.2            1 RES1               0.0000
      4 C4         222.4546  46.2728  33.5122 C.2            1 RES1               0.0000
      5 C5         224.1236  44.6266  32.6889 C.3            1 RES1               0.0000
      6 C6         221.6849  42.9566  31.9218 C.ar           1 RES1               0.0000
      7 C7         220.4050  44.4853  33.2315 C.ar           1 RES1               0.0000
      8 N8         222.2091  47.0462  30.8365 N.am           1 RES1               0.0000
      9 O9         223.0261  45.0982  30.0526 O.2            1 RES1               0.0000
     10 N10        222.1618  47.5499  33.1111 N.am           1 RES1               0.0000
     11 O11        222.4783  45.9970  34.7053 O.2            1 RES1               0.0000
     12 C12        225.2377  45.6608  32.7276 C.3            1 RES1               0.0000
     13 C13        220.6627  42.0262  32.0095 C.ar           1 RES1               0.0000
     14 C14        219.3839  43.5535  33.3177 C.ar           1 RES1               0.0000
     15 C15        221.9967  47.9768  31.8216 C.2            1 RES1               0.0000
     16 C16        219.5118  42.3237  32.7078 C.ar           1 RES1               0.0000
     17 O17        221.6797  49.1295  31.5424 O.2            1 RES1               0.0000
     18 H18        224.1079  44.0886  33.6447 H              1 RES1               0.0000
     19 H19        224.3446  43.8990  31.8981 H              1 RES1               0.0000
     20 H20        222.5821  42.7056  31.3659 H              1 RES1               0.0000
     21 H21        220.2820  45.4468  33.7184 H              1 RES1               0.0000
     22 H22        221.9923  47.3275  29.8856 H              1 RES1               0.0000
     23 H23        222.0574  48.2471  33.8415 H              1 RES1               0.0000
     24 H24        226.1992  45.1853  32.9095 H              1 RES1               0.0000
     25 H25        225.2985  46.1978  31.7833 H              1 RES1               0.0000
     26 H26        225.0631  46.3862  33.5195 H              1 RES1               0.0000
     27 H27        220.7677  41.0603  31.5265 H              1 RES1               0.0000
     28 H28        218.4797  43.7922  33.8678 H              1 RES1               0.0000
     29 H29        218.7114  41.5945  32.7766 H              1 RES1               0.0000
@<TRIPOS>BOND
    1    1    2 1     
    2    1    3 1     
    3    1    4 1     
    4    1    5 1     
    5    2    6 ar    
    6    2    7 ar    
    7    3    8 1     
    8    3    9 2     
    9    4   10 1     
   10    4   11 2     
   11    5   12 1     
   12    5   18 1     
   13    5   19 1     
   14    6   13 ar    
   15    6   20 1     
   16    7   14 ar    
   17    7   21 1     
   18    8   15 1     
   19    8   22 1     
   20   10   15 1     
   21   10   23 1     
   22   12   24 1     
   23   12   25 1     
   24   12   26 1     
   25   13   16 ar    
   26   13   27 1     
   27   14   16 ar    
   28   14   28 1     
   29   15   17 2     
   30   16   29 1     
@<TRIPOS>SUBSTRUCTURE
      1 RES1           1
@<TRIPOS>SET
DONOR_HYDROGENS      STATIC     ATOMS    <user>   **** ""
2 22 23
ATOM$RED        STATIC     ATOMS    COLORGROUP SYSTEM
2 22 23
@<TRIPOS>COMMENT
> <Gold.Version>
2022.3.0

> <Gold.Id.Protein>
unknown|4d1n_clean|pdb

> <Gold.Protein.RotatedTorsions>
[ 1580 1535 1534 1533 ] final   -8.16 input   60.00 | X-H torsion
[ 4298 4278 4277 4274 ] final -172.33 input   59.99 | X-H torsion
[ 4334 4317 4318 4319 ] final -177.86 input  114.03 | X-H torsion
[ 4338 4322 4321 4318 ] final   23.54 input   59.99 | X-H torsion
[ 6681 6660 6659 6657 ] final  166.38 input   60.02 | X-H torsion
[ 23749 23701 23702 23703 ] final   69.23 input   59.44 | X-H torsion
[ 23797 23783 23784 23785 ] final  172.99 input  -92.48 | X-H torsion
[ 4159 4117 4118 4119 ] final  -13.88 input  119.10 | X-H torsion
[ 6905 6885 6886 6887 ] final   82.82 input  108.16 | X-H torsion
[ 1343 1305 1306 1307 ] final  -76.46 input  118.39 | X-H torsion
[ 1570 1527 1528 1529 ] final -117.43 input   90.05 | X-H torsion
[ 4077 4043 4044 4045 ] final  -91.84 input  116.01 | X-H torsion
[ 25737 25709 25710 25711 ] final  155.70 input   60.94 | X-H torsion
[ 1631 1609 1610 1611 ] final  142.60 input  112.52 | X-H torsion
[ 1281 1253 1251 1248 ] final  154.71 input   60.01 | X-H torsion
[ 23825 23811 23812 23813 ] final   51.81 input  -23.57 | X-H torsion
[ 27193 4046 4045 4044 ] final   35.66 input   -0.00 | X-H torsion
[ 27207 23650 23649 23648 ] final -116.38 input    0.00 | X-H torsion
[ 27210 23704 23703 23702 ] final  152.06 input    0.00 | X-H torsion
[ 27213 25712 25711 25710 ] final -137.54 input    0.00 | X-H torsion
[ 27217 6888 6887 6886 ] final   59.42 input    0.00 | X-H torsion
[ 27219 1308 1307 1306 ] final   -2.21 input    0.00 | X-H torsion
[ 27223 1530 1529 1528 ] final   35.07 input   -0.00 | X-H torsion
[ 27225 3782 3781 3780 ] final  -22.13 input    0.00 | X-H torsion
[ 27227 3996 3995 3994 ] final   27.81 input   -0.00 | X-H torsion

> <Gold.Protein.ActiveResidues>
 THR320  LEU321  LYS324  SER325  GLU365  PHE366  ASP368  GLN369  TYR370  SER372 
 SER373  TYR408  HIS412  ARG415  ASN416  TRP426  GLU670  CYS673  ARG674  GLY675 
 GLY676  TYR703  LEU705  THR706  PRO707 

> <Gold.Protein.RotatedAtoms>
  229.8603   44.3379   39.0140 H   0  0  0  0  0  0  0  0  0  0  0  0  # atno 1281 bound_to 1253
  228.6962   41.2524   38.4652 H   0  0  0  0  0  0  0  0  0  0  0  0  # atno 1343 bound_to 1305
  223.3276   39.7556   39.2345 H   0  0  0  0  0  0  0  0  0  0  0  0  # atno 1570 bound_to 1527
  225.7432   44.7670   36.2342 H   0  0  0  0  0  0  0  0  0  0  0  0  # atno 1580 bound_to 1535
  225.2523   46.2959   36.6446 H   0  0  0  0  0  0  0  0  0  0  0  0  # atno 1581 bound_to 1535
  226.0655   45.3632   37.7472 H   0  0  0  0  0  0  0  0  0  0  0  0  # atno 1582 bound_to 1535
  222.9273   37.9568   36.8916 H   0  0  0  0  0  0  0  0  0  0  0  0  # atno 1631 bound_to 1609
  216.6934   49.1406   32.8112 H   0  0  0  0  0  0  0  0  0  0  0  0  # atno 4077 bound_to 4043
  217.8686   49.7753   30.4388 H   0  0  0  0  0  0  0  0  0  0  0  0  # atno 4159 bound_to 4117
  221.3428   50.7374   34.7136 H   0  0  0  0  0  0  0  0  0  0  0  0  # atno 4298 bound_to 4278
  221.0774   51.4493   31.0935 H   0  0  0  0  0  0  0  0  0  0  0  0  # atno 4334 bound_to 4317
  221.5238   52.7382   27.4778 H   0  0  0  0  0  0  0  0  0  0  0  0  # atno 4338 bound_to 4322
  221.9991   48.1146   28.1477 H   0  0  0  0  0  0  0  0  0  0  0  0  # atno 6681 bound_to 6660
  221.8953   44.0184   22.0402 H   0  0  0  0  0  0  0  0  0  0  0  0  # atno 6905 bound_to 6885
  232.6539   45.8840   32.2363 H   0  0  0  0  0  0  0  0  0  0  0  0  # atno 23749 bound_to 23701
  231.5130   45.6458   34.7834 H   0  0  0  0  0  0  0  0  0  0  0  0  # atno 23797 bound_to 23783
  231.1162   42.4457   33.9594 H   0  0  0  0  0  0  0  0  0  0  0  0  # atno 23825 bound_to 23811
  219.6513   37.7866   30.2286 H   0  0  0  0  0  0  0  0  0  0  0  0  # atno 25737 bound_to 25709
  220.5140   49.4919   30.7322 LP  0  0  0  0  0  0  0  0  0  0  0  0  # atno 27193 bound_to 4046
  219.7229   50.8630   30.0292 LP  0  0  0  0  0  0  0  0  0  0  0  0  # atno 27194 bound_to 4046
  221.2693   52.3489   34.9249 LP  0  0  0  0  0  0  0  0  0  0  0  0  # atno 27195 bound_to 4278
  222.0582   51.7263   33.6378 LP  0  0  0  0  0  0  0  0  0  0  0  0  # atno 27196 bound_to 4278
  220.7042   53.1111   30.6969 LP  0  0  0  0  0  0  0  0  0  0  0  0  # atno 27197 bound_to 4317
  220.5264   51.4587   27.5967 LP  0  0  0  0  0  0  0  0  0  0  0  0  # atno 27198 bound_to 4322
  221.8305   51.3928   26.6162 LP  0  0  0  0  0  0  0  0  0  0  0  0  # atno 27199 bound_to 4322
  221.1681   46.7180   28.0603 LP  0  0  0  0  0  0  0  0  0  0  0  0  # atno 27200 bound_to 6660
  220.4434   48.0687   28.6236 LP  0  0  0  0  0  0  0  0  0  0  0  0  # atno 27201 bound_to 6660
  230.7940   48.5887   33.7062 LP  0  0  0  0  0  0  0  0  0  0  0  0  # atno 27207 bound_to 23650
  230.7875   49.2185   32.0927 LP  0  0  0  0  0  0  0  0  0  0  0  0  # atno 27208 bound_to 23650
  232.0359   47.4708   32.6260 LP  0  0  0  0  0  0  0  0  0  0  0  0  # atno 27209 bound_to 23701
  229.3244   43.7565   34.9529 LP  0  0  0  0  0  0  0  0  0  0  0  0  # atno 27210 bound_to 23704
  228.5624   45.1468   34.2554 LP  0  0  0  0  0  0  0  0  0  0  0  0  # atno 27211 bound_to 23704
  231.7601   44.3034   33.6908 LP  0  0  0  0  0  0  0  0  0  0  0  0  # atno 27212 bound_to 23783
  218.9548   42.0620   29.2081 LP  0  0  0  0  0  0  0  0  0  0  0  0  # atno 27213 bound_to 25712
  220.1141   40.9079   29.7773 LP  0  0  0  0  0  0  0  0  0  0  0  0  # atno 27214 bound_to 25712
  217.3440   48.5709   29.2877 LP  0  0  0  0  0  0  0  0  0  0  0  0  # atno 27215 bound_to 4117
  223.6154   44.0120   21.7619 LP  0  0  0  0  0  0  0  0  0  0  0  0  # atno 27216 bound_to 6885
  223.5773   41.1821   25.4080 LP  0  0  0  0  0  0  0  0  0  0  0  0  # atno 27217 bound_to 6888
  224.1958   40.3231   24.0369 LP  0  0  0  0  0  0  0  0  0  0  0  0  # atno 27218 bound_to 6888
  225.2409   40.7199   36.1778 LP  0  0  0  0  0  0  0  0  0  0  0  0  # atno 27219 bound_to 1308
  225.0424   39.0325   36.5147 LP  0  0  0  0  0  0  0  0  0  0  0  0  # atno 27220 bound_to 1308
  229.7992   40.7617   37.1958 LP  0  0  0  0  0  0  0  0  0  0  0  0  # atno 27221 bound_to 1305
  224.0425   39.2854   37.7109 LP  0  0  0  0  0  0  0  0  0  0  0  0  # atno 27222 bound_to 1527
  220.1477   40.2846   35.8039 LP  0  0  0  0  0  0  0  0  0  0  0  0  # atno 27223 bound_to 1530
  219.5866   38.6911   36.1855 LP  0  0  0  0  0  0  0  0  0  0  0  0  # atno 27224 bound_to 1530
  215.6000   46.4290   33.1526 LP  0  0  0  0  0  0  0  0  0  0  0  0  # atno 27225 bound_to 3782
  216.1095   45.9938   31.5554 LP  0  0  0  0  0  0  0  0  0  0  0  0  # atno 27226 bound_to 3782
  217.1539   51.2671   33.4279 LP  0  0  0  0  0  0  0  0  0  0  0  0  # atno 27227 bound_to 3996
  218.0596   50.6994   32.0650 LP  0  0  0  0  0  0  0  0  0  0  0  0  # atno 27228 bound_to 3996
  216.2004   47.9538   31.6341 LP  0  0  0  0  0  0  0  0  0  0  0  0  # atno 27229 bound_to 4043
  220.6543   39.1366   29.7532 LP  0  0  0  0  0  0  0  0  0  0  0  0  # atno 27230 bound_to 25709
  221.3359   38.6466   37.1103 LP  0  0  0  0  0  0  0  0  0  0  0  0  # atno 27232 bound_to 1609

> <Gold.Score>
     Fitness  S(hb_ext) S(vdw_ext)  S(hb_int)    S(int)      intcor
     40.68       6.89      25.56       0.00      -1.36      -0.78

> <Gold.Goldscore.Fitness>
40.6752

> <Gold.Goldscore.Internal.Vdw>
-1.7242

> <Gold.Goldscore.Internal.Torsion>
-0.4164

> <Gold.Goldscore.External.Vdw>
25.5579

> <Gold.Goldscore.Internal.HBond>
0.0000

> <Gold.Goldscore.External.HBond>
6.8918

> <Gold.Goldscore.Internal.Correction>
-0.7819

> <Gold.Goldscore.Hbonds>
donor molecule, donor type, donor heavy atom, donor atom, acceptor molecule, acceptor atom, score
      P1  H  4317  4334       L1    17  0.17
      P1  H 23711 23761       L1     9  0.99
      L1  H     8    22       P1  6660  0.32

> <Gold.Goldscore.Internal.Vdw.Weighted>
-1.7242

> <Gold.Goldscore.Internal.Torsion.Weighted>
-0.4164

> <Gold.Goldscore.External.Vdw.Weighted>
35.1421

> <Gold.Goldscore.Internal.HBond.Weighted>
0.0000

> <Gold.Goldscore.External.HBond.Weighted>
6.8918

> <Gold.Goldscore.Internal.Correction.Weighted>
-0.7819

> <Gold.Rescore>
     Score     S(PLP)   S(hbond)     S(cho)   S(metal)  DE(clash)   DE(tors)     intcor
     33.50     -31.73       1.17       0.00       0.00       0.22       0.77       ----

> <Gold.PLP.Fitness>
33.4961

> <Gold.PLP.PLP>
-31.7267

> <Gold.PLP.part.hbond>
-2.4664

> <Gold.PLP.part.metal>
0.0000

> <Gold.PLP.part.buried>
-6.6567

> <Gold.PLP.part.nonpolar>
-28.0997

> <Gold.PLP.part.repulsive>
4.3285

> <Gold.PLP.ligand.clash>
0.2184

> <Gold.PLP.ligand.torsion>
0.7682

> <Gold.PLP.Chemscore.Hbond>
1.1747

> <Gold.PLP.Chemscore.CHOScore>
0.0000

> <Gold.PLP.Chemscore.Metal>
0.0000

> <Gold.Chemscore.Hbonds>
donor molecule, donor type, donor heavy atom, donor atom, acceptor molecule, acceptor atom, score
      P1  H  4317  4334       L1    17  0.14
      P1  H 23711 23761       L1     9  0.70

> <Gold.PLP.Chemscore.Internal.Correction>
   9.000000E+99

#       Name:                CT1002167954
#       Creating user name   hitesit
#       Creation time:       Sun Apr 16 23:03:05 2023


#       File generated by GOLD software.
#

@<TRIPOS>MOLECULE
CT1002167954|ligand_prepared|mol2|1|dock9
    29    30     1
SMALL
NO_CHARGES


@<TRIPOS>ATOM
      1 C1         223.7431  46.3848  31.9129 C.3            1 RES1               0.0000
      2 C2         223.2017  44.9407  31.9340 C.ar           1 RES1               0.0000
      3 C3         224.7769  46.4385  30.7920 C.2            1 RES1               0.0000
      4 C4         222.5363  47.2896  31.6901 C.2            1 RES1               0.0000
      5 C5         224.4260  46.8153  33.2320 C.3            1 RES1               0.0000
      6 C6         223.4976  44.0884  32.9936 C.ar           1 RES1               0.0000
      7 C7         222.4045  44.4483  30.9041 C.ar           1 RES1               0.0000
      8 N8         224.4306  47.0874  29.6436 N.am           1 RES1               0.0000
      9 O9         225.8648  45.8858  30.8990 O.2            1 RES1               0.0000
     10 N10        222.4731  47.9990  30.5194 N.am           1 RES1               0.0000
     11 O11        221.6314  47.3818  32.5105 O.2            1 RES1               0.0000
     12 C12        224.9693  48.2353  33.2061 C.3            1 RES1               0.0000
     13 C13        223.0116  42.7918  33.0241 C.ar           1 RES1               0.0000
     14 C14        221.9198  43.1512  30.9365 C.ar           1 RES1               0.0000
     15 C15        223.3503  47.9154  29.4727 C.2            1 RES1               0.0000
     16 C16        222.2221  42.3225  31.9960 C.ar           1 RES1               0.0000
     17 O17        223.1967  48.5445  28.4297 O.2            1 RES1               0.0000
     18 H18        223.6998  46.7300  34.0498 H              1 RES1               0.0000
     19 H19        225.2519  46.1251  33.4436 H              1 RES1               0.0000
     20 H20        224.1194  44.4393  33.8105 H              1 RES1               0.0000
     21 H21        222.1547  45.0821  30.0600 H              1 RES1               0.0000
     22 H22        225.0302  46.9437  28.8373 H              1 RES1               0.0000
     23 H23        221.7006  48.6497  30.4190 H              1 RES1               0.0000
     24 H24        225.4378  48.4864  34.1553 H              1 RES1               0.0000
     25 H25        225.7131  48.3494  32.4203 H              1 RES1               0.0000
     26 H26        224.1702  48.9507  33.0228 H              1 RES1               0.0000
     27 H27        223.2536  42.1431  33.8595 H              1 RES1               0.0000
     28 H28        221.2993  42.7859  30.1249 H              1 RES1               0.0000
     29 H29        221.8413  41.3068  32.0203 H              1 RES1               0.0000
@<TRIPOS>BOND
    1    1    2 1     
    2    1    3 1     
    3    1    4 1     
    4    1    5 1     
    5    2    6 ar    
    6    2    7 ar    
    7    3    8 1     
    8    3    9 2     
    9    4   10 1     
   10    4   11 2     
   11    5   12 1     
   12    5   18 1     
   13    5   19 1     
   14    6   13 ar    
   15    6   20 1     
   16    7   14 ar    
   17    7   21 1     
   18    8   15 1     
   19    8   22 1     
   20   10   15 1     
   21   10   23 1     
   22   12   24 1     
   23   12   25 1     
   24   12   26 1     
   25   13   16 ar    
   26   13   27 1     
   27   14   16 ar    
   28   14   28 1     
   29   15   17 2     
   30   16   29 1     
@<TRIPOS>SUBSTRUCTURE
      1 RES1           1
@<TRIPOS>SET
DONOR_HYDROGENS      STATIC     ATOMS    <user>   **** ""
2 22 23
ATOM$RED        STATIC     ATOMS    COLORGROUP SYSTEM
2 22 23
@<TRIPOS>COMMENT
> <Gold.Version>
2022.3.0

> <Gold.Id.Protein>
unknown|4d1n_clean|pdb

> <Gold.Protein.RotatedTorsions>
[ 1580 1535 1534 1533 ] final -100.06 input   60.00 | X-H torsion
[ 4298 4278 4277 4274 ] final  109.31 input   59.99 | X-H torsion
[ 4334 4317 4318 4319 ] final -142.38 input  114.03 | X-H torsion
[ 4338 4322 4321 4318 ] final  -40.78 input   59.99 | X-H torsion
[ 6681 6660 6659 6657 ] final   70.36 input   60.02 | X-H torsion
[ 23749 23701 23702 23703 ] final -159.94 input   59.44 | X-H torsion
[ 23797 23783 23784 23785 ] final  -82.62 input  -92.48 | X-H torsion
[ 4159 4117 4118 4119 ] final  -46.87 input  119.10 | X-H torsion
[ 6905 6885 6886 6887 ] final  130.84 input  108.16 | X-H torsion
[ 1343 1305 1306 1307 ] final -114.10 input  118.39 | X-H torsion
[ 1570 1527 1528 1529 ] final  -55.30 input   90.05 | X-H torsion
[ 4077 4043 4044 4045 ] final   65.83 input  116.01 | X-H torsion
[ 25737 25709 25710 25711 ] final   50.34 input   60.94 | X-H torsion
[ 1631 1609 1610 1611 ] final -131.98 input  112.52 | X-H torsion
[ 1281 1253 1251 1248 ] final  148.86 input   60.01 | X-H torsion
[ 23825 23811 23812 23813 ] final   98.27 input  -23.57 | X-H torsion
[ 27193 4046 4045 4044 ] final -106.36 input   -0.00 | X-H torsion
[ 27207 23650 23649 23648 ] final  -30.38 input    0.00 | X-H torsion
[ 27210 23704 23703 23702 ] final   37.94 input    0.00 | X-H torsion
[ 27213 25712 25711 25710 ] final   -2.29 input    0.00 | X-H torsion
[ 27217 6888 6887 6886 ] final  -74.93 input    0.00 | X-H torsion
[ 27219 1308 1307 1306 ] final -143.96 input    0.00 | X-H torsion
[ 27223 1530 1529 1528 ] final  130.02 input   -0.00 | X-H torsion
[ 27225 3782 3781 3780 ] final -112.75 input    0.00 | X-H torsion
[ 27227 3996 3995 3994 ] final  -56.74 input   -0.00 | X-H torsion

> <Gold.Protein.ActiveResidues>
 THR320  LEU321  LYS324  SER325  GLU365  PHE366  ASP368  GLN369  TYR370  SER372 
 SER373  TYR408  HIS412  ARG415  ASN416  TRP426  GLU670  CYS673  ARG674  GLY675 
 GLY676  TYR703  LEU705  THR706  PRO707 

> <Gold.Protein.RotatedAtoms>
  229.7707   44.3086   38.9975 H   0  0  0  0  0  0  0  0  0  0  0  0  # atno 1281 bound_to 1253
  228.9054   41.7234   38.2086 H   0  0  0  0  0  0  0  0  0  0  0  0  # atno 1343 bound_to 1305
  223.1712   38.9317   38.8757 H   0  0  0  0  0  0  0  0  0  0  0  0  # atno 1570 bound_to 1527
  226.1546   44.9603   37.5327 H   0  0  0  0  0  0  0  0  0  0  0  0  # atno 1580 bound_to 1535
  225.5154   45.1042   36.0103 H   0  0  0  0  0  0  0  0  0  0  0  0  # atno 1581 bound_to 1535
  225.3910   46.3615   37.0830 H   0  0  0  0  0  0  0  0  0  0  0  0  # atno 1582 bound_to 1535
  222.2918   38.7565   36.2590 H   0  0  0  0  0  0  0  0  0  0  0  0  # atno 1631 bound_to 1609
  216.1479   48.2375   31.4582 H   0  0  0  0  0  0  0  0  0  0  0  0  # atno 4077 bound_to 4043
  218.2800   49.5288   30.2934 H   0  0  0  0  0  0  0  0  0  0  0  0  # atno 4159 bound_to 4117
  221.0694   51.7772   35.2060 H   0  0  0  0  0  0  0  0  0  0  0  0  # atno 4298 bound_to 4278
  221.3542   51.7657   31.4330 H   0  0  0  0  0  0  0  0  0  0  0  0  # atno 4334 bound_to 4317
  220.7209   52.2774   27.8449 H   0  0  0  0  0  0  0  0  0  0  0  0  # atno 4338 bound_to 4322
  221.5350   46.8147   27.9680 H   0  0  0  0  0  0  0  0  0  0  0  0  # atno 6681 bound_to 6660
  222.2252   44.6102   22.2550 H   0  0  0  0  0  0  0  0  0  0  0  0  # atno 6905 bound_to 6885
  231.9698   47.3014   31.9220 H   0  0  0  0  0  0  0  0  0  0  0  0  # atno 23749 bound_to 23701
  232.5185   44.8982   34.1600 H   0  0  0  0  0  0  0  0  0  0  0  0  # atno 23797 bound_to 23783
  231.1049   42.2589   34.6278 H   0  0  0  0  0  0  0  0  0  0  0  0  # atno 23825 bound_to 23811
  219.8613   39.1583   30.4561 H   0  0  0  0  0  0  0  0  0  0  0  0  # atno 25737 bound_to 25709
  219.7101   50.9117   30.5905 LP  0  0  0  0  0  0  0  0  0  0  0  0  # atno 27193 bound_to 4046
  220.5269   49.4431   30.1708 LP  0  0  0  0  0  0  0  0  0  0  0  0  # atno 27194 bound_to 4046
  221.9033   52.3154   33.9168 LP  0  0  0  0  0  0  0  0  0  0  0  0  # atno 27195 bound_to 4278
  221.6996   50.7121   34.1499 LP  0  0  0  0  0  0  0  0  0  0  0  0  # atno 27196 bound_to 4278
  220.4351   52.8034   30.3669 LP  0  0  0  0  0  0  0  0  0  0  0  0  # atno 27197 bound_to 4317
  221.1205   50.9854   26.9409 LP  0  0  0  0  0  0  0  0  0  0  0  0  # atno 27198 bound_to 4322
  222.0455   52.3306   26.9021 LP  0  0  0  0  0  0  0  0  0  0  0  0  # atno 27199 bound_to 4322
  220.3128   47.7030   28.5730 LP  0  0  0  0  0  0  0  0  0  0  0  0  # atno 27200 bound_to 6660
  221.7660   48.3928   28.2918 LP  0  0  0  0  0  0  0  0  0  0  0  0  # atno 27201 bound_to 6660
  231.3810   49.4703   33.1831 LP  0  0  0  0  0  0  0  0  0  0  0  0  # atno 27207 bound_to 23650
  230.2005   48.3369   32.6157 LP  0  0  0  0  0  0  0  0  0  0  0  0  # atno 27208 bound_to 23650
  232.7060   46.0823   32.9338 LP  0  0  0  0  0  0  0  0  0  0  0  0  # atno 27209 bound_to 23701
  228.6885   44.3413   33.7839 LP  0  0  0  0  0  0  0  0  0  0  0  0  # atno 27210 bound_to 23704
  229.1983   44.5620   35.4244 LP  0  0  0  0  0  0  0  0  0  0  0  0  # atno 27211 bound_to 23704
  230.7807   45.0317   34.2981 LP  0  0  0  0  0  0  0  0  0  0  0  0  # atno 27212 bound_to 23783
  219.5248   40.8338   30.0636 LP  0  0  0  0  0  0  0  0  0  0  0  0  # atno 27213 bound_to 25712
  219.5441   42.1361   28.9218 LP  0  0  0  0  0  0  0  0  0  0  0  0  # atno 27214 bound_to 25712
  216.9413   48.8122   29.4300 LP  0  0  0  0  0  0  0  0  0  0  0  0  # atno 27215 bound_to 4117
  223.2872   43.4232   21.5483 LP  0  0  0  0  0  0  0  0  0  0  0  0  # atno 27216 bound_to 6885
  224.5595   40.8671   24.1895 LP  0  0  0  0  0  0  0  0  0  0  0  0  # atno 27217 bound_to 6888
  223.2136   40.6381   25.2554 LP  0  0  0  0  0  0  0  0  0  0  0  0  # atno 27218 bound_to 6888
  224.9608   39.3283   36.9921 LP  0  0  0  0  0  0  0  0  0  0  0  0  # atno 27219 bound_to 1308
  225.3225   40.4241   35.7004 LP  0  0  0  0  0  0  0  0  0  0  0  0  # atno 27220 bound_to 1308
  229.5976   40.3080   37.4430 LP  0  0  0  0  0  0  0  0  0  0  0  0  # atno 27221 bound_to 1305
  224.1952   40.0902   38.0614 LP  0  0  0  0  0  0  0  0  0  0  0  0  # atno 27222 bound_to 1527
  220.1559   39.1293   35.2612 LP  0  0  0  0  0  0  0  0  0  0  0  0  # atno 27223 bound_to 1530
  219.5783   39.8464   36.7282 LP  0  0  0  0  0  0  0  0  0  0  0  0  # atno 27224 bound_to 1530
  215.4315   46.8910   32.0238 LP  0  0  0  0  0  0  0  0  0  0  0  0  # atno 27225 bound_to 3782
  216.2780   45.5318   32.6842 LP  0  0  0  0  0  0  0  0  0  0  0  0  # atno 27226 bound_to 3782
  217.0627   51.4741   32.2849 LP  0  0  0  0  0  0  0  0  0  0  0  0  # atno 27227 bound_to 3996
  218.1509   50.4924   33.2079 LP  0  0  0  0  0  0  0  0  0  0  0  0  # atno 27228 bound_to 3996
  216.7420   48.8504   32.9776 LP  0  0  0  0  0  0  0  0  0  0  0  0  # atno 27229 bound_to 4043
  220.4492   37.7969   29.5311 LP  0  0  0  0  0  0  0  0  0  0  0  0  # atno 27230 bound_to 25709
  221.9548   37.8678   37.7263 LP  0  0  0  0  0  0  0  0  0  0  0  0  # atno 27232 bound_to 1609

> <Gold.Score>
     Fitness  S(hb_ext) S(vdw_ext)  S(hb_int)    S(int)      intcor
     37.35       5.30      24.39       0.00      -1.49      -0.76

> <Gold.Goldscore.Fitness>
37.3466

> <Gold.Goldscore.Internal.Vdw>
-1.8845

> <Gold.Goldscore.Internal.Torsion>
-0.3672

> <Gold.Goldscore.External.Vdw>
24.3932

> <Gold.Goldscore.Internal.HBond>
0.0000

> <Gold.Goldscore.External.HBond>
5.2992

> <Gold.Goldscore.Internal.Correction>
-0.7585

> <Gold.Goldscore.Hbonds>
donor molecule, donor type, donor heavy atom, donor atom, acceptor molecule, acceptor atom, score
      P1  H 23708 23757       L1     9  0.61
      L1  H    10    23       P1  4046  0.83

> <Gold.Goldscore.Internal.Vdw.Weighted>
-1.8845

> <Gold.Goldscore.Internal.Torsion.Weighted>
-0.3672

> <Gold.Goldscore.External.Vdw.Weighted>
33.5406

> <Gold.Goldscore.Internal.HBond.Weighted>
0.0000

> <Gold.Goldscore.External.HBond.Weighted>
5.2992

> <Gold.Goldscore.Internal.Correction.Weighted>
-0.7585

> <Gold.Rescore>
     Score     S(PLP)   S(hbond)     S(cho)   S(metal)  DE(clash)   DE(tors)     intcor
     25.77     -23.62       0.93       0.00       0.00       0.00       0.32       ----

> <Gold.PLP.Fitness>
25.7704

> <Gold.PLP.PLP>
-23.6218

> <Gold.PLP.part.hbond>
-2.3535

> <Gold.PLP.part.metal>
0.0000

> <Gold.PLP.part.buried>
0.2988

> <Gold.PLP.part.nonpolar>
-23.3692

> <Gold.PLP.part.repulsive>
0.3929

> <Gold.PLP.ligand.clash>
0.0000

> <Gold.PLP.ligand.torsion>
0.3177

> <Gold.PLP.Chemscore.Hbond>
0.9280

> <Gold.PLP.Chemscore.CHOScore>
0.0000

> <Gold.PLP.Chemscore.Metal>
0.0000

> <Gold.Chemscore.Hbonds>
donor molecule, donor type, donor heavy atom, donor atom, acceptor molecule, acceptor atom, score
      L1  H    10    23       P1  4046  0.28
      P1  H 23708 23757       L1     9  0.94

> <Gold.PLP.Chemscore.Internal.Correction>
   9.000000E+99

#       Name:                CT1002167954
#       Creating user name   hitesit
#       Creation time:       Sun Apr 16 23:03:01 2023


#       File generated by GOLD software.
#

@<TRIPOS>MOLECULE
CT1002167954|ligand_prepared|mol2|1|dock1
    29    30     1
SMALL
NO_CHARGES


@<TRIPOS>ATOM
      1 C1         223.4538  45.6936  32.6789 C.3            1 RES1               0.0000
      2 C2         222.5710  44.4452  32.4765 C.ar           1 RES1               0.0000
      3 C3         223.6766  46.2902  31.2924 C.2            1 RES1               0.0000
      4 C4         222.6908  46.6054  33.6334 C.2            1 RES1               0.0000
      5 C5         224.8325  45.3883  33.3096 C.3            1 RES1               0.0000
      6 C6         221.2285  44.4597  32.8428 C.ar           1 RES1               0.0000
      7 C7         223.0833  43.2747  31.9232 C.ar           1 RES1               0.0000
      8 N8         223.0046  47.4356  30.9820 N.am           1 RES1               0.0000
      9 O9         224.4003  45.7426  30.4698 O.2            1 RES1               0.0000
     10 N10        222.2471  47.8099  33.1536 N.am           1 RES1               0.0000
     11 O11        222.4553  46.2846  34.7918 O.2            1 RES1               0.0000
     12 C12        225.6689  46.6280  33.5848 C.3            1 RES1               0.0000
     13 C13        220.4264  43.3455  32.6599 C.ar           1 RES1               0.0000
     14 C14        222.2795  42.1615  31.7413 C.ar           1 RES1               0.0000
     15 C15        222.3427  48.2530  31.8626 C.2            1 RES1               0.0000
     16 C16        220.9511  42.1959  32.1087 C.ar           1 RES1               0.0000
     17 O17        221.8707  49.3251  31.4951 O.2            1 RES1               0.0000
     18 H18        224.6779  44.8501  34.2529 H              1 RES1               0.0000
     19 H19        225.3912  44.7282  32.6346 H              1 RES1               0.0000
     20 H20        220.7986  45.3546  33.2803 H              1 RES1               0.0000
     21 H21        224.1258  43.2244  31.6277 H              1 RES1               0.0000
     22 H22        222.9930  47.7097  30.0047 H              1 RES1               0.0000
     23 H23        221.8047  48.4340  33.8208 H              1 RES1               0.0000
     24 H24        226.6255  46.3575  34.0268 H              1 RES1               0.0000
     25 H25        225.8633  47.1743  32.6642 H              1 RES1               0.0000
     26 H26        225.1542  47.2955  34.2729 H              1 RES1               0.0000
     27 H27        219.3819  43.3773  32.9519 H              1 RES1               0.0000
     28 H28        222.6968  41.2587  31.3077 H              1 RES1               0.0000
     29 H29        220.3224  41.3234  31.9651 H              1 RES1               0.0000
@<TRIPOS>BOND
    1    1    2 1     
    2    1    3 1     
    3    1    4 1     
    4    1    5 1     
    5    2    6 ar    
    6    2    7 ar    
    7    3    8 1     
    8    3    9 2     
    9    4   10 1     
   10    4   11 2     
   11    5   12 1     
   12    5   18 1     
   13    5   19 1     
   14    6   13 ar    
   15    6   20 1     
   16    7   14 ar    
   17    7   21 1     
   18    8   15 1     
   19    8   22 1     
   20   10   15 1     
   21   10   23 1     
   22   12   24 1     
   23   12   25 1     
   24   12   26 1     
   25   13   16 ar    
   26   13   27 1     
   27   14   16 ar    
   28   14   28 1     
   29   15   17 2     
   30   16   29 1     
@<TRIPOS>SUBSTRUCTURE
      1 RES1           1
@<TRIPOS>SET
DONOR_HYDROGENS      STATIC     ATOMS    <user>   **** ""
2 22 23
ATOM$RED        STATIC     ATOMS    COLORGROUP SYSTEM
2 22 23
@<TRIPOS>COMMENT
> <Gold.Version>
2022.3.0

> <Gold.Id.Protein>
unknown|4d1n_clean|pdb

> <Gold.Protein.RotatedTorsions>
[ 1580 1535 1534 1533 ] final   -5.23 input   60.00 | X-H torsion
[ 4298 4278 4277 4274 ] final -168.79 input   59.99 | X-H torsion
[ 4334 4317 4318 4319 ] final  -29.66 input  114.03 | X-H torsion
[ 4338 4322 4321 4318 ] final  135.57 input   59.99 | X-H torsion
[ 6681 6660 6659 6657 ] final  -11.18 input   60.02 | X-H torsion
[ 23749 23701 23702 23703 ] final   40.61 input   59.44 | X-H torsion
[ 23797 23783 23784 23785 ] final   18.54 input  -92.48 | X-H torsion
[ 4159 4117 4118 4119 ] final -109.09 input  119.10 | X-H torsion
[ 6905 6885 6886 6887 ] final  156.26 input  108.16 | X-H torsion
[ 1343 1305 1306 1307 ] final -161.95 input  118.39 | X-H torsion
[ 1570 1527 1528 1529 ] final   26.21 input   90.05 | X-H torsion
[ 4077 4043 4044 4045 ] final  153.54 input  116.01 | X-H torsion
[ 25737 25709 25710 25711 ] final  -35.41 input   60.94 | X-H torsion
[ 1631 1609 1610 1611 ] final   -3.59 input  112.52 | X-H torsion
[ 1281 1253 1251 1248 ] final  -80.18 input   60.01 | X-H torsion
[ 23825 23811 23812 23813 ] final  -73.58 input  -23.57 | X-H torsion
[ 27193 4046 4045 4044 ] final  106.96 input   -0.00 | X-H torsion
[ 27207 23650 23649 23648 ] final  102.23 input    0.00 | X-H torsion
[ 27210 23704 23703 23702 ] final    1.68 input    0.00 | X-H torsion
[ 27213 25712 25711 25710 ] final  114.42 input    0.00 | X-H torsion
[ 27217 6888 6887 6886 ] final   35.32 input    0.00 | X-H torsion
[ 27219 1308 1307 1306 ] final -149.16 input    0.00 | X-H torsion
[ 27223 1530 1529 1528 ] final   66.93 input   -0.00 | X-H torsion
[ 27225 3782 3781 3780 ] final -147.53 input    0.00 | X-H torsion
[ 27227 3996 3995 3994 ] final  -57.56 input   -0.00 | X-H torsion

> <Gold.Protein.ActiveResidues>
 THR320  LEU321  LYS324  SER325  GLU365  PHE366  ASP368  GLN369  TYR370  SER372 
 SER373  TYR408  HIS412  ARG415  ASN416  TRP426  GLU670  CYS673  ARG674  GLY675 
 GLY676  TYR703  LEU705  THR706  PRO707 

> <Gold.Protein.RotatedAtoms>
  231.0362   43.3592   38.3643 H   0  0  0  0  0  0  0  0  0  0  0  0  # atno 1281 bound_to 1253
  229.3583   41.8757   37.6652 H   0  0  0  0  0  0  0  0  0  0  0  0  # atno 1343 bound_to 1305
  223.7429   38.8600   37.8756 H   0  0  0  0  0  0  0  0  0  0  0  0  # atno 1570 bound_to 1527
  225.7191   44.7954   36.2025 H   0  0  0  0  0  0  0  0  0  0  0  0  # atno 1580 bound_to 1535
  225.2624   46.3124   36.6895 H   0  0  0  0  0  0  0  0  0  0  0  0  # atno 1581 bound_to 1535
  226.0795   45.3182   37.7340 H   0  0  0  0  0  0  0  0  0  0  0  0  # atno 1582 bound_to 1535
  221.3869   38.3202   37.4975 H   0  0  0  0  0  0  0  0  0  0  0  0  # atno 1631 bound_to 1609
  216.4542   47.7199   32.5100 H   0  0  0  0  0  0  0  0  0  0  0  0  # atno 4077 bound_to 4043
  218.4103   48.8407   29.7091 H   0  0  0  0  0  0  0  0  0  0  0  0  # atno 4159 bound_to 4117
  221.3711   50.7170   34.6676 H   0  0  0  0  0  0  0  0  0  0  0  0  # atno 4298 bound_to 4278
  221.0193   53.1534   31.0562 H   0  0  0  0  0  0  0  0  0  0  0  0  # atno 4334 bound_to 4317
  221.9020   51.5023   26.6193 H   0  0  0  0  0  0  0  0  0  0  0  0  # atno 4338 bound_to 4322
  220.4294   47.1233   28.3900 H   0  0  0  0  0  0  0  0  0  0  0  0  # atno 6681 bound_to 6660
  222.5684   44.7819   22.2740 H   0  0  0  0  0  0  0  0  0  0  0  0  # atno 6905 bound_to 6885
  232.7217   45.9237   32.6654 H   0  0  0  0  0  0  0  0  0  0  0  0  # atno 23749 bound_to 23701
  231.3732   44.2997   33.7100 H   0  0  0  0  0  0  0  0  0  0  0  0  # atno 23797 bound_to 23783
  232.6743   42.5660   33.9041 H   0  0  0  0  0  0  0  0  0  0  0  0  # atno 23825 bound_to 23811
  220.7391   39.0396   29.6417 H   0  0  0  0  0  0  0  0  0  0  0  0  # atno 25737 bound_to 25709
  220.3940   49.6591   29.7440 LP  0  0  0  0  0  0  0  0  0  0  0  0  # atno 27193 bound_to 4046
  219.8429   50.6957   31.0174 LP  0  0  0  0  0  0  0  0  0  0  0  0  # atno 27194 bound_to 4046
  221.2444   52.3120   34.9624 LP  0  0  0  0  0  0  0  0  0  0  0  0  # atno 27195 bound_to 4278
  222.0546   51.7837   33.6468 LP  0  0  0  0  0  0  0  0  0  0  0  0  # atno 27196 bound_to 4278
  220.7607   51.4543   30.7332 LP  0  0  0  0  0  0  0  0  0  0  0  0  # atno 27197 bound_to 4317
  221.4175   52.7426   27.5537 LP  0  0  0  0  0  0  0  0  0  0  0  0  # atno 27198 bound_to 4322
  220.5583   51.3543   27.5242 LP  0  0  0  0  0  0  0  0  0  0  0  0  # atno 27199 bound_to 4322
  221.2047   48.5495   28.5060 LP  0  0  0  0  0  0  0  0  0  0  0  0  # atno 27200 bound_to 6660
  221.9875   47.2355   27.9338 LP  0  0  0  0  0  0  0  0  0  0  0  0  # atno 27201 bound_to 6660
  230.4192   48.7814   32.1268 LP  0  0  0  0  0  0  0  0  0  0  0  0  # atno 27207 bound_to 23650
  231.1623   49.0258   33.6721 LP  0  0  0  0  0  0  0  0  0  0  0  0  # atno 27208 bound_to 23650
  231.9695   47.4319   32.2056 LP  0  0  0  0  0  0  0  0  0  0  0  0  # atno 27209 bound_to 23701
  228.5585   44.8424   33.9339 LP  0  0  0  0  0  0  0  0  0  0  0  0  # atno 27210 bound_to 23704
  229.3283   44.0609   35.2743 LP  0  0  0  0  0  0  0  0  0  0  0  0  # atno 27211 bound_to 23704
  231.8964   45.6148   34.7365 LP  0  0  0  0  0  0  0  0  0  0  0  0  # atno 27212 bound_to 23783
  220.2830   41.6323   29.0827 LP  0  0  0  0  0  0  0  0  0  0  0  0  # atno 27213 bound_to 25712
  218.7860   41.3377   29.9026 LP  0  0  0  0  0  0  0  0  0  0  0  0  # atno 27214 bound_to 25712
  216.8137   49.4858   30.0021 LP  0  0  0  0  0  0  0  0  0  0  0  0  # atno 27215 bound_to 4117
  222.9456   43.2524   21.5294 LP  0  0  0  0  0  0  0  0  0  0  0  0  # atno 27216 bound_to 6885
  223.8651   41.3814   25.3175 LP  0  0  0  0  0  0  0  0  0  0  0  0  # atno 27217 bound_to 6888
  223.9081   40.1238   24.1274 LP  0  0  0  0  0  0  0  0  0  0  0  0  # atno 27218 bound_to 6888
  224.9678   39.2700   36.9398 LP  0  0  0  0  0  0  0  0  0  0  0  0  # atno 27219 bound_to 1308
  225.3155   40.4824   35.7527 LP  0  0  0  0  0  0  0  0  0  0  0  0  # atno 27220 bound_to 1308
  229.1614   40.1613   37.9664 LP  0  0  0  0  0  0  0  0  0  0  0  0  # atno 27221 bound_to 1305
  223.6367   40.1602   39.0383 LP  0  0  0  0  0  0  0  0  0  0  0  0  # atno 27222 bound_to 1527
  220.2712   40.0111   35.4354 LP  0  0  0  0  0  0  0  0  0  0  0  0  # atno 27223 bound_to 1530
  219.4630   38.9646   36.5540 LP  0  0  0  0  0  0  0  0  0  0  0  0  # atno 27224 bound_to 1530
  215.6550   46.6413   31.6292 LP  0  0  0  0  0  0  0  0  0  0  0  0  # atno 27225 bound_to 3782
  216.0545   45.7815   33.0788 LP  0  0  0  0  0  0  0  0  0  0  0  0  # atno 27226 bound_to 3782
  217.0685   51.4707   32.2745 LP  0  0  0  0  0  0  0  0  0  0  0  0  # atno 27227 bound_to 3996
  218.1450   50.4959   33.2183 LP  0  0  0  0  0  0  0  0  0  0  0  0  # atno 27228 bound_to 3996
  216.4379   49.3644   31.9332 LP  0  0  0  0  0  0  0  0  0  0  0  0  # atno 27229 bound_to 4043
  219.5918   37.9128   30.3264 LP  0  0  0  0  0  0  0  0  0  0  0  0  # atno 27230 bound_to 25709
  222.8362   38.2927   36.5202 LP  0  0  0  0  0  0  0  0  0  0  0  0  # atno 27232 bound_to 1609

> <Gold.Score>
     Fitness  S(hb_ext) S(vdw_ext)  S(hb_int)    S(int)      intcor
     35.82       4.47      24.16       0.00      -1.87      -0.79

> <Gold.Goldscore.Fitness>
35.8245

> <Gold.Goldscore.Internal.Vdw>
-2.2717

> <Gold.Goldscore.Internal.Torsion>
-0.3855

> <Gold.Goldscore.External.Vdw>
24.1627

> <Gold.Goldscore.Internal.HBond>
0.0000

> <Gold.Goldscore.External.HBond>
4.4668

> <Gold.Goldscore.Internal.Correction>
-0.7912

> <Gold.Goldscore.Hbonds>
donor molecule, donor type, donor heavy atom, donor atom, acceptor molecule, acceptor atom, score
      P1  H 23708 23757       L1     9  0.44
      P1  H 23711 23761       L1     9  0.30

> <Gold.Goldscore.Internal.Vdw.Weighted>
-2.2717

> <Gold.Goldscore.Internal.Torsion.Weighted>
-0.3855

> <Gold.Goldscore.External.Vdw.Weighted>
33.2236

> <Gold.Goldscore.Internal.HBond.Weighted>
0.0000

> <Gold.Goldscore.External.HBond.Weighted>
4.4668

> <Gold.Goldscore.Internal.Correction.Weighted>
-0.7912

> <Gold.Rescore>
     Score     S(PLP)   S(hbond)     S(cho)   S(metal)  DE(clash)   DE(tors)     intcor
     35.03     -31.85       1.81       0.00       0.00       1.78       0.23       ----

> <Gold.PLP.Fitness>
35.0327

> <Gold.PLP.PLP>
-31.8493

> <Gold.PLP.part.hbond>
-2.5471

> <Gold.PLP.part.metal>
0.0000

> <Gold.PLP.part.buried>
-4.7132

> <Gold.PLP.part.nonpolar>
-28.0034

> <Gold.PLP.part.repulsive>
3.0988

> <Gold.PLP.ligand.clash>
1.7751

> <Gold.PLP.ligand.torsion>
0.2328

> <Gold.PLP.Chemscore.Hbond>
1.8080

> <Gold.PLP.Chemscore.CHOScore>
0.0000

> <Gold.PLP.Chemscore.Metal>
0.0000

> <Gold.Chemscore.Hbonds>
donor molecule, donor type, donor heavy atom, donor atom, acceptor molecule, acceptor atom, score
      P1  H 23708 23757       L1     9  0.39
      P1  H 23711 23761       L1     9  0.31

> <Gold.PLP.Chemscore.Internal.Correction>
   9.000000E+99

#       Name:                CT1002167954
#       Creating user name   hitesit
#       Creation time:       Sun Apr 16 23:03:04 2023


#       File generated by GOLD software.
#

@<TRIPOS>MOLECULE
CT1002167954|ligand_prepared|mol2|1|dock7
    29    30     1
SMALL
NO_CHARGES


@<TRIPOS>ATOM
      1 C1         223.7157  46.2336  32.0697 C.3            1 RES1               0.0000
      2 C2         223.1201  44.8133  32.1501 C.ar           1 RES1               0.0000
      3 C3         224.8811  46.1546  31.0879 C.2            1 RES1               0.0000
      4 C4         222.5818  47.1468  31.6171 C.2            1 RES1               0.0000
      5 C5         224.2472  46.7657  33.4210 C.3            1 RES1               0.0000
      6 C6         223.5121  43.9364  33.1572 C.ar           1 RES1               0.0000
      7 C7         222.1774  44.3672  31.2277 C.ar           1 RES1               0.0000
      8 N8         224.7043  46.7035  29.8520 N.am           1 RES1               0.0000
      9 O9         225.9251  45.5845  31.3798 O.2            1 RES1               0.0000
     10 N10        222.6909  47.7460  30.3896 N.am           1 RES1               0.0000
     11 O11        221.5870  47.3397  32.3053 O.2            1 RES1               0.0000
     12 C12        224.5025  48.2647  33.4321 C.3            1 RES1               0.0000
     13 C13        222.9788  42.6609  33.2410 C.ar           1 RES1               0.0000
     14 C14        221.6455  43.0911  31.3131 C.ar           1 RES1               0.0000
     15 C15        223.6864  47.5415  29.4735 C.2            1 RES1               0.0000
     16 C16        222.0450  42.2376  32.3194 C.ar           1 RES1               0.0000
     17 O17        223.6871  48.0751  28.3678 O.2            1 RES1               0.0000
     18 H18        223.5194  46.5257  34.2059 H              1 RES1               0.0000
     19 H19        225.1831  46.2464  33.6615 H              1 RES1               0.0000
     20 H20        224.2476  44.2511  33.8900 H              1 RES1               0.0000
     21 H21        221.8491  45.0211  30.4269 H              1 RES1               0.0000
     22 H22        225.3926  46.4691  29.1437 H              1 RES1               0.0000
     23 H23        221.9626  48.4057  30.1353 H              1 RES1               0.0000
     24 H24        224.8741  48.5855  34.4030 H              1 RES1               0.0000
     25 H25        225.2408  48.5358  32.6802 H              1 RES1               0.0000
     26 H26        223.5869  48.8134  33.2214 H              1 RES1               0.0000
     27 H27        223.2975  41.9925  34.0340 H              1 RES1               0.0000
     28 H28        220.9113  42.7620  30.5852 H              1 RES1               0.0000
     29 H29        221.6271  41.2385  32.3854 H              1 RES1               0.0000
@<TRIPOS>BOND
    1    1    2 1     
    2    1    3 1     
    3    1    4 1     
    4    1    5 1     
    5    2    6 ar    
    6    2    7 ar    
    7    3    8 1     
    8    3    9 2     
    9    4   10 1     
   10    4   11 2     
   11    5   12 1     
   12    5   18 1     
   13    5   19 1     
   14    6   13 ar    
   15    6   20 1     
   16    7   14 ar    
   17    7   21 1     
   18    8   15 1     
   19    8   22 1     
   20   10   15 1     
   21   10   23 1     
   22   12   24 1     
   23   12   25 1     
   24   12   26 1     
   25   13   16 ar    
   26   13   27 1     
   27   14   16 ar    
   28   14   28 1     
   29   15   17 2     
   30   16   29 1     
@<TRIPOS>SUBSTRUCTURE
      1 RES1           1
@<TRIPOS>SET
DONOR_HYDROGENS      STATIC     ATOMS    <user>   **** ""
2 22 23
ATOM$RED        STATIC     ATOMS    COLORGROUP SYSTEM
2 22 23
@<TRIPOS>COMMENT
> <Gold.Version>
2022.3.0

> <Gold.Id.Protein>
unknown|4d1n_clean|pdb

> <Gold.Protein.RotatedTorsions>
[ 1580 1535 1534 1533 ] final -152.57 input   60.00 | X-H torsion
[ 4298 4278 4277 4274 ] final   58.10 input   59.99 | X-H torsion
[ 4334 4317 4318 4319 ] final  160.84 input  114.03 | X-H torsion
[ 4338 4322 4321 4318 ] final  -90.49 input   59.99 | X-H torsion
[ 6681 6660 6659 6657 ] final  135.17 input   60.02 | X-H torsion
[ 23749 23701 23702 23703 ] final -142.83 input   59.44 | X-H torsion
[ 23797 23783 23784 23785 ] final  109.96 input  -92.48 | X-H torsion
[ 4159 4117 4118 4119 ] final   11.12 input  119.10 | X-H torsion
[ 6905 6885 6886 6887 ] final   72.12 input  108.16 | X-H torsion
[ 1343 1305 1306 1307 ] final  -20.46 input  118.39 | X-H torsion
[ 1570 1527 1528 1529 ] final  143.93 input   90.05 | X-H torsion
[ 4077 4043 4044 4045 ] final  -59.38 input  116.01 | X-H torsion
[ 25737 25709 25710 25711 ] final  156.62 input   60.94 | X-H torsion
[ 1631 1609 1610 1611 ] final   -6.89 input  112.52 | X-H torsion
[ 1281 1253 1251 1248 ] final -166.34 input   60.01 | X-H torsion
[ 23825 23811 23812 23813 ] final    0.26 input  -23.57 | X-H torsion
[ 27193 4046 4045 4044 ] final -139.48 input   -0.00 | X-H torsion
[ 27207 23650 23649 23648 ] final  -97.30 input    0.00 | X-H torsion
[ 27210 23704 23703 23702 ] final   85.55 input    0.00 | X-H torsion
[ 27213 25712 25711 25710 ] final   23.62 input    0.00 | X-H torsion
[ 27217 6888 6887 6886 ] final -129.64 input    0.00 | X-H torsion
[ 27219 1308 1307 1306 ] final  -15.58 input    0.00 | X-H torsion
[ 27223 1530 1529 1528 ] final   54.61 input   -0.00 | X-H torsion
[ 27225 3782 3781 3780 ] final   96.27 input    0.00 | X-H torsion
[ 27227 3996 3995 3994 ] final   57.26 input   -0.00 | X-H torsion

> <Gold.Protein.ActiveResidues>
 THR320  LEU321  LYS324  SER325  GLU365  PHE366  ASP368  GLN369  TYR370  SER372 
 SER373  TYR408  HIS412  ARG415  ASN416  TRP426  GLU670  CYS673  ARG674  GLY675 
 GLY676  TYR703  LEU705  THR706  PRO707 

> <Gold.Protein.RotatedAtoms>
  230.4842   44.3274   38.9923 H   0  0  0  0  0  0  0  0  0  0  0  0  # atno 1281 bound_to 1253
  228.8110   40.4323   38.3394 H   0  0  0  0  0  0  0  0  0  0  0  0  # atno 1343 bound_to 1305
  224.1296   40.2637   38.2878 H   0  0  0  0  0  0  0  0  0  0  0  0  # atno 1570 bound_to 1527
  225.9147   45.7379   37.7671 H   0  0  0  0  0  0  0  0  0  0  0  0  # atno 1580 bound_to 1535
  225.9322   44.6078   36.5549 H   0  0  0  0  0  0  0  0  0  0  0  0  # atno 1581 bound_to 1535
  225.2141   46.0804   36.3041 H   0  0  0  0  0  0  0  0  0  0  0  0  # atno 1582 bound_to 1535
  221.3674   38.3544   37.4649 H   0  0  0  0  0  0  0  0  0  0  0  0  # atno 1631 bound_to 1609
  216.5801   49.3891   32.4058 H   0  0  0  0  0  0  0  0  0  0  0  0  # atno 4077 bound_to 4043
  217.4913   49.8337   30.4242 H   0  0  0  0  0  0  0  0  0  0  0  0  # atno 4159 bound_to 4117
  221.3418   52.4279   34.8104 H   0  0  0  0  0  0  0  0  0  0  0  0  # atno 4298 bound_to 4278
  220.8703   51.4067   30.8432 H   0  0  0  0  0  0  0  0  0  0  0  0  # atno 4334 bound_to 4317
  220.5196   51.5437   27.6453 H   0  0  0  0  0  0  0  0  0  0  0  0  # atno 4338 bound_to 4322
  222.0995   47.6437   27.9989 H   0  0  0  0  0  0  0  0  0  0  0  0  # atno 6681 bound_to 6660
  221.8990   43.8708   21.9716 H   0  0  0  0  0  0  0  0  0  0  0  0  # atno 6905 bound_to 6885
  231.9593   47.4292   32.1512 H   0  0  0  0  0  0  0  0  0  0  0  0  # atno 23749 bound_to 23701
  230.8003   45.1758   34.4253 H   0  0  0  0  0  0  0  0  0  0  0  0  # atno 23797 bound_to 23783
  231.7007   42.6144   33.4951 H   0  0  0  0  0  0  0  0  0  0  0  0  # atno 23825 bound_to 23811
  219.6585   37.7782   30.2197 H   0  0  0  0  0  0  0  0  0  0  0  0  # atno 25737 bound_to 25709
  219.7111   50.8872   30.0974 LP  0  0  0  0  0  0  0  0  0  0  0  0  # atno 27193 bound_to 4046
  220.5259   49.4677   30.6640 LP  0  0  0  0  0  0  0  0  0  0  0  0  # atno 27194 bound_to 4046
  222.0583   51.5692   33.6288 LP  0  0  0  0  0  0  0  0  0  0  0  0  # atno 27195 bound_to 4278
  221.2703   50.8027   34.8364 LP  0  0  0  0  0  0  0  0  0  0  0  0  # atno 27196 bound_to 4278
  220.9056   53.1524   30.9404 LP  0  0  0  0  0  0  0  0  0  0  0  0  # atno 27197 bound_to 4317
  221.7677   51.3181   26.6267 LP  0  0  0  0  0  0  0  0  0  0  0  0  # atno 27198 bound_to 4322
  221.6012   52.7371   27.4174 LP  0  0  0  0  0  0  0  0  0  0  0  0  # atno 27199 bound_to 4322
  220.7062   46.8362   28.2340 LP  0  0  0  0  0  0  0  0  0  0  0  0  # atno 27200 bound_to 6660
  220.8042   48.4247   28.5998 LP  0  0  0  0  0  0  0  0  0  0  0  0  # atno 27201 bound_to 6660
  230.9871   48.7989   33.7364 LP  0  0  0  0  0  0  0  0  0  0  0  0  # atno 27207 bound_to 23650
  230.5944   49.0083   32.0625 LP  0  0  0  0  0  0  0  0  0  0  0  0  # atno 27208 bound_to 23650
  232.7163   45.9571   32.7093 LP  0  0  0  0  0  0  0  0  0  0  0  0  # atno 27209 bound_to 23701
  228.9956   43.7782   34.0621 LP  0  0  0  0  0  0  0  0  0  0  0  0  # atno 27210 bound_to 23704
  228.8912   45.1251   35.1462 LP  0  0  0  0  0  0  0  0  0  0  0  0  # atno 27211 bound_to 23704
  232.4544   44.7613   34.0397 LP  0  0  0  0  0  0  0  0  0  0  0  0  # atno 27212 bound_to 23783
  219.8898   40.8281   29.9312 LP  0  0  0  0  0  0  0  0  0  0  0  0  # atno 27213 bound_to 25712
  219.1791   42.1418   29.0542 LP  0  0  0  0  0  0  0  0  0  0  0  0  # atno 27214 bound_to 25712
  217.7135   48.5137   29.3020 LP  0  0  0  0  0  0  0  0  0  0  0  0  # atno 27215 bound_to 4117
  223.6117   44.1588   21.8302 LP  0  0  0  0  0  0  0  0  0  0  0  0  # atno 27216 bound_to 6885
  224.0914   40.2372   24.0573 LP  0  0  0  0  0  0  0  0  0  0  0  0  # atno 27217 bound_to 6888
  223.6818   41.2680   25.3876 LP  0  0  0  0  0  0  0  0  0  0  0  0  # atno 27218 bound_to 6888
  225.1997   40.7398   36.3742 LP  0  0  0  0  0  0  0  0  0  0  0  0  # atno 27219 bound_to 1308
  225.0836   39.0126   36.3183 LP  0  0  0  0  0  0  0  0  0  0  0  0  # atno 27220 bound_to 1308
  229.6885   41.5518   37.3170 LP  0  0  0  0  0  0  0  0  0  0  0  0  # atno 27221 bound_to 1305
  223.2590   38.7891   38.6357 LP  0  0  0  0  0  0  0  0  0  0  0  0  # atno 27222 bound_to 1527
  220.2366   40.1415   35.5632 LP  0  0  0  0  0  0  0  0  0  0  0  0  # atno 27223 bound_to 1530
  219.4977   38.8341   36.4262 LP  0  0  0  0  0  0  0  0  0  0  0  0  # atno 27224 bound_to 1530
  216.3506   45.5081   32.2571 LP  0  0  0  0  0  0  0  0  0  0  0  0  # atno 27225 bound_to 3782
  215.3589   46.9148   32.4509 LP  0  0  0  0  0  0  0  0  0  0  0  0  # atno 27226 bound_to 3782
  217.4599   51.0013   33.5997 LP  0  0  0  0  0  0  0  0  0  0  0  0  # atno 27227 bound_to 3996
  217.7536   50.9652   31.8931 LP  0  0  0  0  0  0  0  0  0  0  0  0  # atno 27228 bound_to 3996
  216.3129   47.7070   32.0366 LP  0  0  0  0  0  0  0  0  0  0  0  0  # atno 27229 bound_to 4043
  220.6473   39.1448   29.7619 LP  0  0  0  0  0  0  0  0  0  0  0  0  # atno 27230 bound_to 25709
  222.8552   38.2594   36.5519 LP  0  0  0  0  0  0  0  0  0  0  0  0  # atno 27232 bound_to 1609

> <Gold.Score>
     Fitness  S(hb_ext) S(vdw_ext)  S(hb_int)    S(int)      intcor
     34.99       3.97      23.02       0.00      -0.63      -0.76

> <Gold.Goldscore.Fitness>
34.9911

> <Gold.Goldscore.Internal.Vdw>
-0.6936

> <Gold.Goldscore.Internal.Torsion>
-0.6959

> <Gold.Goldscore.External.Vdw>
23.0188

> <Gold.Goldscore.Internal.HBond>
0.0000

> <Gold.Goldscore.External.HBond>
3.9713

> <Gold.Goldscore.Internal.Correction>
-0.7585

> <Gold.Goldscore.Hbonds>
donor molecule, donor type, donor heavy atom, donor atom, acceptor molecule, acceptor atom, score
      P1  H  6660  6681       L1    17  0.45
      P1  H 23708 23757       L1     9  0.39
      L1  H    10    23       P1  4046  0.36

> <Gold.Goldscore.Internal.Vdw.Weighted>
-0.6936

> <Gold.Goldscore.Internal.Torsion.Weighted>
-0.6959

> <Gold.Goldscore.External.Vdw.Weighted>
31.6508

> <Gold.Goldscore.Internal.HBond.Weighted>
0.0000

> <Gold.Goldscore.External.HBond.Weighted>
3.9713

> <Gold.Goldscore.Internal.Correction.Weighted>
-0.7585

> <Gold.Rescore>
     Score     S(PLP)   S(hbond)     S(cho)   S(metal)  DE(clash)   DE(tors)     intcor
     27.42     -24.34       1.75       0.00       0.00       0.00       1.08       ----

> <Gold.PLP.Fitness>
27.4223

> <Gold.PLP.PLP>
-24.3438

> <Gold.PLP.part.hbond>
-2.6936

> <Gold.PLP.part.metal>
0.0000

> <Gold.PLP.part.buried>
-0.0362

> <Gold.PLP.part.nonpolar>
-23.6127

> <Gold.PLP.part.repulsive>
0.6997

> <Gold.PLP.ligand.clash>
0.0000

> <Gold.PLP.ligand.torsion>
1.0804

> <Gold.PLP.Chemscore.Hbond>
1.7464

> <Gold.PLP.Chemscore.CHOScore>
0.0000

> <Gold.PLP.Chemscore.Metal>
0.0000

> <Gold.Chemscore.Hbonds>
donor molecule, donor type, donor heavy atom, donor atom, acceptor molecule, acceptor atom, score
      P1  H  6660  6681       L1    17  0.75
      P1  H 23708 23757       L1     9  0.93

> <Gold.PLP.Chemscore.Internal.Correction>
   9.000000E+99

#       Name:                CT1002167954
#       Creating user name   hitesit
#       Creation time:       Sun Apr 16 23:03:02 2023


#       File generated by GOLD software.
#

@<TRIPOS>MOLECULE
CT1002167954|ligand_prepared|mol2|1|dock3
    29    30     1
SMALL
NO_CHARGES


@<TRIPOS>ATOM
      1 C1         223.1424  46.3478  31.6923 C.3            1 RES1               0.0000
      2 C2         222.4557  44.9752  31.8451 C.ar           1 RES1               0.0000
      3 C3         222.5615  47.2414  32.7842 C.2            1 RES1               0.0000
      4 C4         224.6395  46.0932  31.8278 C.2            1 RES1               0.0000
      5 C5         222.8943  47.0215  30.3226 C.3            1 RES1               0.0000
      6 C6         222.3523  44.1099  30.7601 C.ar           1 RES1               0.0000
      7 C7         221.9242  44.5601  33.0632 C.ar           1 RES1               0.0000
      8 N8         223.3554  47.5272  33.8556 N.am           1 RES1               0.0000
      9 O9         221.4106  47.6565  32.7252 O.2            1 RES1               0.0000
     10 N10        225.2866  46.6294  32.9101 N.am           1 RES1               0.0000
     11 O11        225.2615  45.4193  31.0158 O.2            1 RES1               0.0000
     12 C12        223.3738  48.4628  30.2524 C.3            1 RES1               0.0000
     13 C13        221.7424  42.8731  30.8888 C.ar           1 RES1               0.0000
     14 C14        221.3144  43.3229  33.1896 C.ar           1 RES1               0.0000
     15 C15        224.7066  47.3090  33.9464 C.2            1 RES1               0.0000
     16 C16        221.2234  42.4786  32.1035 C.ar           1 RES1               0.0000
     17 O17        225.3472  47.7133  34.9125 O.2            1 RES1               0.0000
     18 H18        223.4064  46.4407  29.5455 H              1 RES1               0.0000
     19 H19        221.8191  46.9962  30.1062 H              1 RES1               0.0000
     20 H20        222.7527  44.4041  29.7957 H              1 RES1               0.0000
     21 H21        221.9833  45.2082  33.9309 H              1 RES1               0.0000
     22 H22        222.9025  47.9414  34.6641 H              1 RES1               0.0000
     23 H23        226.2941  46.5110  32.9467 H              1 RES1               0.0000
     24 H24        223.1757  48.8878  29.2707 H              1 RES1               0.0000
     25 H25        222.8664  49.0747  30.9953 H              1 RES1               0.0000
     26 H26        224.4442  48.5226  30.4379 H              1 RES1               0.0000
     27 H27        221.6722  42.2129  30.0306 H              1 RES1               0.0000
     28 H28        220.9068  43.0167  34.1474 H              1 RES1               0.0000
     29 H29        220.7460  41.5095  32.2042 H              1 RES1               0.0000
@<TRIPOS>BOND
    1    1    2 1     
    2    1    3 1     
    3    1    4 1     
    4    1    5 1     
    5    2    6 ar    
    6    2    7 ar    
    7    3    8 1     
    8    3    9 2     
    9    4   10 1     
   10    4   11 2     
   11    5   12 1     
   12    5   18 1     
   13    5   19 1     
   14    6   13 ar    
   15    6   20 1     
   16    7   14 ar    
   17    7   21 1     
   18    8   15 1     
   19    8   22 1     
   20   10   15 1     
   21   10   23 1     
   22   12   24 1     
   23   12   25 1     
   24   12   26 1     
   25   13   16 ar    
   26   13   27 1     
   27   14   16 ar    
   28   14   28 1     
   29   15   17 2     
   30   16   29 1     
@<TRIPOS>SUBSTRUCTURE
      1 RES1           1
@<TRIPOS>SET
DONOR_HYDROGENS      STATIC     ATOMS    <user>   **** ""
2 22 23
ATOM$RED        STATIC     ATOMS    COLORGROUP SYSTEM
2 22 23
@<TRIPOS>COMMENT
> <Gold.Version>
2022.3.0

> <Gold.Id.Protein>
unknown|4d1n_clean|pdb

> <Gold.Protein.RotatedTorsions>
[ 1580 1535 1534 1533 ] final   94.23 input   60.00 | X-H torsion
[ 4298 4278 4277 4274 ] final  -71.72 input   59.99 | X-H torsion
[ 4334 4317 4318 4319 ] final -128.71 input  114.03 | X-H torsion
[ 4338 4322 4321 4318 ] final -147.37 input   59.99 | X-H torsion
[ 6681 6660 6659 6657 ] final -130.40 input   60.02 | X-H torsion
[ 23749 23701 23702 23703 ] final  -60.06 input   59.44 | X-H torsion
[ 23797 23783 23784 23785 ] final  -43.14 input  -92.48 | X-H torsion
[ 4159 4117 4118 4119 ] final -170.52 input  119.10 | X-H torsion
[ 6905 6885 6886 6887 ] final -126.21 input  108.16 | X-H torsion
[ 1343 1305 1306 1307 ] final   31.52 input  118.39 | X-H torsion
[ 1570 1527 1528 1529 ] final  110.05 input   90.05 | X-H torsion
[ 4077 4043 4044 4045 ] final  164.96 input  116.01 | X-H torsion
[ 25737 25709 25710 25711 ] final    3.90 input   60.94 | X-H torsion
[ 1631 1609 1610 1611 ] final  120.82 input  112.52 | X-H torsion
[ 1281 1253 1251 1248 ] final   -2.35 input   60.01 | X-H torsion
[ 23825 23811 23812 23813 ] final  110.78 input  -23.57 | X-H torsion
[ 27193 4046 4045 4044 ] final   71.99 input   -0.00 | X-H torsion
[ 27207 23650 23649 23648 ] final  125.27 input    0.00 | X-H torsion
[ 27210 23704 23703 23702 ] final  135.53 input    0.00 | X-H torsion
[ 27213 25712 25711 25710 ] final  -57.73 input    0.00 | X-H torsion
[ 27217 6888 6887 6886 ] final  -57.19 input    0.00 | X-H torsion
[ 27219 1308 1307 1306 ] final  -46.53 input    0.00 | X-H torsion
[ 27223 1530 1529 1528 ] final  -38.33 input   -0.00 | X-H torsion
[ 27225 3782 3781 3780 ] final  -98.06 input    0.00 | X-H torsion
[ 27227 3996 3995 3994 ] final -113.20 input   -0.00 | X-H torsion

> <Gold.Protein.ActiveResidues>
 THR320  LEU321  LYS324  SER325  GLU365  PHE366  ASP368  GLN369  TYR370  SER372 
 SER373  TYR408  HIS412  ARG415  ASN416  TRP426  GLU670  CYS673  ARG674  GLY675 
 GLY676  TYR703  LEU705  THR706  PRO707 

> <Gold.Protein.RotatedAtoms>
  230.0560   42.7993   38.0323 H   0  0  0  0  0  0  0  0  0  0  0  0  # atno 1281 bound_to 1253
  229.2706   40.1106   37.7947 H   0  0  0  0  0  0  0  0  0  0  0  0  # atno 1343 bound_to 1305
  224.2195   39.9406   37.8969 H   0  0  0  0  0  0  0  0  0  0  0  0  # atno 1570 bound_to 1527
  225.2163   46.1537   36.3913 H   0  0  0  0  0  0  0  0  0  0  0  0  # atno 1580 bound_to 1535
  225.9620   45.6353   37.7777 H   0  0  0  0  0  0  0  0  0  0  0  0  # atno 1581 bound_to 1535
  225.8826   44.6370   36.4570 H   0  0  0  0  0  0  0  0  0  0  0  0  # atno 1582 bound_to 1535
  222.8293   37.8021   37.1716 H   0  0  0  0  0  0  0  0  0  0  0  0  # atno 1631 bound_to 1609
  216.5113   47.7908   32.6582 H   0  0  0  0  0  0  0  0  0  0  0  0  # atno 4077 bound_to 4043
  217.6914   48.5016   29.2837 H   0  0  0  0  0  0  0  0  0  0  0  0  # atno 4159 bound_to 4117
  222.0384   51.4104   33.6474 H   0  0  0  0  0  0  0  0  0  0  0  0  # atno 4298 bound_to 4278
  221.4190   51.9492   31.5146 H   0  0  0  0  0  0  0  0  0  0  0  0  # atno 4334 bound_to 4317
  220.9513   51.0084   27.0785 H   0  0  0  0  0  0  0  0  0  0  0  0  # atno 4338 bound_to 4322
  221.1919   48.5426   28.5064 H   0  0  0  0  0  0  0  0  0  0  0  0  # atno 6681 bound_to 6660
  223.5373   44.4073   21.9319 H   0  0  0  0  0  0  0  0  0  0  0  0  # atno 6905 bound_to 6885
  232.3147   47.0989   33.2124 H   0  0  0  0  0  0  0  0  0  0  0  0  # atno 23749 bound_to 23701
  232.2562   44.4750   33.8281 H   0  0  0  0  0  0  0  0  0  0  0  0  # atno 23797 bound_to 23783
  231.1963   42.2194   34.7916 H   0  0  0  0  0  0  0  0  0  0  0  0  # atno 23825 bound_to 23811
  220.3922   39.3211   30.0343 H   0  0  0  0  0  0  0  0  0  0  0  0  # atno 25737 bound_to 25709
  220.5301   49.4384   30.1951 LP  0  0  0  0  0  0  0  0  0  0  0  0  # atno 27193 bound_to 4046
  219.7068   50.9164   30.5662 LP  0  0  0  0  0  0  0  0  0  0  0  0  # atno 27194 bound_to 4046
  221.2039   50.8997   34.9473 LP  0  0  0  0  0  0  0  0  0  0  0  0  # atno 27195 bound_to 4278
  221.4228   52.4974   34.6898 LP  0  0  0  0  0  0  0  0  0  0  0  0  # atno 27196 bound_to 4278
  220.3721   52.6250   30.2876 LP  0  0  0  0  0  0  0  0  0  0  0  0  # atno 27197 bound_to 4317
  222.0793   52.1444   26.7897 LP  0  0  0  0  0  0  0  0  0  0  0  0  # atno 27198 bound_to 4322
  220.8546   52.4502   27.8256 LP  0  0  0  0  0  0  0  0  0  0  0  0  # atno 27199 bound_to 4322
  221.9935   47.2467   27.9347 LP  0  0  0  0  0  0  0  0  0  0  0  0  # atno 27200 bound_to 6660
  220.4308   47.1090   28.3880 LP  0  0  0  0  0  0  0  0  0  0  0  0  # atno 27201 bound_to 6660
  230.2687   48.5338   32.3157 LP  0  0  0  0  0  0  0  0  0  0  0  0  # atno 27207 bound_to 23650
  231.3128   49.2734   33.4831 LP  0  0  0  0  0  0  0  0  0  0  0  0  # atno 27208 bound_to 23650
  232.3681   46.2806   31.6698 LP  0  0  0  0  0  0  0  0  0  0  0  0  # atno 27209 bound_to 23701
  229.2777   43.6623   34.7272 LP  0  0  0  0  0  0  0  0  0  0  0  0  # atno 27210 bound_to 23704
  228.6091   45.2410   34.4811 LP  0  0  0  0  0  0  0  0  0  0  0  0  # atno 27211 bound_to 23704
  231.0361   45.4439   34.6214 LP  0  0  0  0  0  0  0  0  0  0  0  0  # atno 27212 bound_to 23783
  218.8430   41.2496   29.9579 LP  0  0  0  0  0  0  0  0  0  0  0  0  # atno 27213 bound_to 25712
  220.2260   41.7203   29.0275 LP  0  0  0  0  0  0  0  0  0  0  0  0  # atno 27214 bound_to 25712
  217.5176   49.8179   30.4186 LP  0  0  0  0  0  0  0  0  0  0  0  0  # atno 27215 bound_to 4117
  221.9816   43.6250   21.8696 LP  0  0  0  0  0  0  0  0  0  0  0  0  # atno 27216 bound_to 6885
  224.5962   41.0788   24.3482 LP  0  0  0  0  0  0  0  0  0  0  0  0  # atno 27217 bound_to 6888
  223.1770   40.4264   25.0967 LP  0  0  0  0  0  0  0  0  0  0  0  0  # atno 27218 bound_to 6888
  225.0965   40.6092   36.8052 LP  0  0  0  0  0  0  0  0  0  0  0  0  # atno 27219 bound_to 1308
  225.1868   39.1432   35.8873 LP  0  0  0  0  0  0  0  0  0  0  0  0  # atno 27220 bound_to 1308
  229.2458   41.8616   37.8417 LP  0  0  0  0  0  0  0  0  0  0  0  0  # atno 27221 bound_to 1305
  223.1712   39.1047   39.0175 LP  0  0  0  0  0  0  0  0  0  0  0  0  # atno 27222 bound_to 1527
  219.6462   39.9942   36.6617 LP  0  0  0  0  0  0  0  0  0  0  0  0  # atno 27223 bound_to 1530
  220.0881   38.9815   35.3278 LP  0  0  0  0  0  0  0  0  0  0  0  0  # atno 27224 bound_to 1530
  215.3796   46.9258   32.2361 LP  0  0  0  0  0  0  0  0  0  0  0  0  # atno 27225 bound_to 3782
  216.3299   45.4970   32.4719 LP  0  0  0  0  0  0  0  0  0  0  0  0  # atno 27226 bound_to 3782
  217.6420   51.0558   31.8842 LP  0  0  0  0  0  0  0  0  0  0  0  0  # atno 27227 bound_to 3996
  217.5715   50.9107   33.6087 LP  0  0  0  0  0  0  0  0  0  0  0  0  # atno 27228 bound_to 3996
  216.3813   49.2940   31.7859 LP  0  0  0  0  0  0  0  0  0  0  0  0  # atno 27229 bound_to 4043
  219.9306   37.6379   29.9430 LP  0  0  0  0  0  0  0  0  0  0  0  0  # atno 27230 bound_to 25709
  221.4314   38.7973   36.8375 LP  0  0  0  0  0  0  0  0  0  0  0  0  # atno 27232 bound_to 1609

> <Gold.Score>
     Fitness  S(hb_ext) S(vdw_ext)  S(hb_int)    S(int)      intcor
     34.30       6.00      21.28       0.00      -0.96      -0.76

> <Gold.Goldscore.Fitness>
34.3045

> <Gold.Goldscore.Internal.Vdw>
-1.2018

> <Gold.Goldscore.Internal.Torsion>
-0.5155

> <Gold.Goldscore.External.Vdw>
21.2824

> <Gold.Goldscore.Internal.HBond>
0.0000

> <Gold.Goldscore.External.HBond>
6.0000

> <Gold.Goldscore.Internal.Correction>
-0.7585

> <Gold.Goldscore.Hbonds>
donor molecule, donor type, donor heavy atom, donor atom, acceptor molecule, acceptor atom, score
      P1  H 23708 23757       L1    11  1.00

> <Gold.Goldscore.Internal.Vdw.Weighted>
-1.2018

> <Gold.Goldscore.Internal.Torsion.Weighted>
-0.5155

> <Gold.Goldscore.External.Vdw.Weighted>
29.2633

> <Gold.Goldscore.Internal.HBond.Weighted>
0.0000

> <Gold.Goldscore.External.HBond.Weighted>
6.0000

> <Gold.Goldscore.Internal.Correction.Weighted>
-0.7585

> <Gold.Rescore>
     Score     S(PLP)   S(hbond)     S(cho)   S(metal)  DE(clash)   DE(tors)     intcor
     38.91     -33.25       2.51       0.00       0.00       0.45       0.72       ----

> <Gold.PLP.Fitness>
38.9074

> <Gold.PLP.PLP>
-33.2515

> <Gold.PLP.part.hbond>
-3.0000

> <Gold.PLP.part.metal>
0.0000

> <Gold.PLP.part.buried>
-3.2911

> <Gold.PLP.part.nonpolar>
-28.5628

> <Gold.PLP.part.repulsive>
0.2344

> <Gold.PLP.ligand.clash>
0.4461

> <Gold.PLP.ligand.torsion>
0.7198

> <Gold.PLP.Chemscore.Hbond>
2.5139

> <Gold.PLP.Chemscore.CHOScore>
0.0000

> <Gold.PLP.Chemscore.Metal>
0.0000

> <Gold.Chemscore.Hbonds>
donor molecule, donor type, donor heavy atom, donor atom, acceptor molecule, acceptor atom, score
      P1  H  1535  1580       L1    17  0.86
      P1  H 23708 23757       L1    11  1.00
      P1  H 23711 23761       L1    11  0.01

> <Gold.PLP.Chemscore.Internal.Correction>
   9.000000E+99

#       Name:                CT1002167954
#       Creating user name   hitesit
#       Creation time:       Sun Apr 16 23:03:02 2023


#       File generated by GOLD software.
#

@<TRIPOS>MOLECULE
CT1002167954|ligand_prepared|mol2|1|dock4
    29    30     1
SMALL
NO_CHARGES


@<TRIPOS>ATOM
      1 C1         223.2993  46.6564  31.0525 C.3            1 RES1               0.0000
      2 C2         222.4493  45.4491  31.4983 C.ar           1 RES1               0.0000
      3 C3         222.5176  47.9031  31.4561 C.2            1 RES1               0.0000
      4 C4         224.6457  46.5123  31.7533 C.2            1 RES1               0.0000
      5 C5         223.5573  46.7103  29.5286 C.3            1 RES1               0.0000
      6 C6         222.3030  44.3408  30.6695 C.ar           1 RES1               0.0000
      7 C7         221.8089  45.4280  32.7344 C.ar           1 RES1               0.0000
      8 N8         222.9744  48.6170  32.5246 N.am           1 RES1               0.0000
      9 O9         221.4936  48.2327  30.8704 O.2            1 RES1               0.0000
     10 N10        224.9884  47.4560  32.6859 N.am           1 RES1               0.0000
     11 O11        225.4056  45.5809  31.5184 O.2            1 RES1               0.0000
     12 C12        224.2554  47.9807  29.0695 C.3            1 RES1               0.0000
     13 C13        221.5463  43.2496  31.0632 C.ar           1 RES1               0.0000
     14 C14        221.0524  44.3359  33.1261 C.ar           1 RES1               0.0000
     15 C15        224.2004  48.4847  33.1255 C.2            1 RES1               0.0000
     16 C16        220.9209  43.2462  32.2918 C.ar           1 RES1               0.0000
     17 O17        224.5576  49.2606  34.0073 O.2            1 RES1               0.0000
     18 H18        224.1715  45.8472  29.2438 H              1 RES1               0.0000
     19 H19        222.5971  46.6261  29.0048 H              1 RES1               0.0000
     20 H20        222.7858  44.3265  29.6980 H              1 RES1               0.0000
     21 H21        221.8974  46.2746  33.4067 H              1 RES1               0.0000
     22 H22        222.3464  49.3135  32.9128 H              1 RES1               0.0000
     23 H23        225.9169  47.3852  33.0898 H              1 RES1               0.0000
     24 H24        224.4121  47.9672  27.9929 H              1 RES1               0.0000
     25 H25        223.6602  48.8580  29.3143 H              1 RES1               0.0000
     26 H26        225.2252  48.0837  29.5519 H              1 RES1               0.0000
     27 H27        221.4448  42.3951  30.4024 H              1 RES1               0.0000
     28 H28        220.5614  44.3378  34.0937 H              1 RES1               0.0000
     29 H29        220.3285  42.3911  32.6002 H              1 RES1               0.0000
@<TRIPOS>BOND
    1    1    2 1     
    2    1    3 1     
    3    1    4 1     
    4    1    5 1     
    5    2    6 ar    
    6    2    7 ar    
    7    3    8 1     
    8    3    9 2     
    9    4   10 1     
   10    4   11 2     
   11    5   12 1     
   12    5   18 1     
   13    5   19 1     
   14    6   13 ar    
   15    6   20 1     
   16    7   14 ar    
   17    7   21 1     
   18    8   15 1     
   19    8   22 1     
   20   10   15 1     
   21   10   23 1     
   22   12   24 1     
   23   12   25 1     
   24   12   26 1     
   25   13   16 ar    
   26   13   27 1     
   27   14   16 ar    
   28   14   28 1     
   29   15   17 2     
   30   16   29 1     
@<TRIPOS>SUBSTRUCTURE
      1 RES1           1
@<TRIPOS>SET
DONOR_HYDROGENS      STATIC     ATOMS    <user>   **** ""
2 22 23
ATOM$RED        STATIC     ATOMS    COLORGROUP SYSTEM
2 22 23
@<TRIPOS>COMMENT
> <Gold.Version>
2022.3.0

> <Gold.Id.Protein>
unknown|4d1n_clean|pdb

> <Gold.Protein.RotatedTorsions>
[ 1580 1535 1534 1533 ] final   98.77 input   60.00 | X-H torsion
[ 4298 4278 4277 4274 ] final  -50.61 input   59.99 | X-H torsion
[ 4334 4317 4318 4319 ] final -108.85 input  114.03 | X-H torsion
[ 4338 4322 4321 4318 ] final   35.17 input   59.99 | X-H torsion
[ 6681 6660 6659 6657 ] final -168.71 input   60.02 | X-H torsion
[ 23749 23701 23702 23703 ] final  -94.24 input   59.44 | X-H torsion
[ 23797 23783 23784 23785 ] final   32.42 input  -92.48 | X-H torsion
[ 4159 4117 4118 4119 ] final  -83.31 input  119.10 | X-H torsion
[ 6905 6885 6886 6887 ] final  -76.25 input  108.16 | X-H torsion
[ 1343 1305 1306 1307 ] final   23.66 input  118.39 | X-H torsion
[ 1570 1527 1528 1529 ] final  -41.22 input   90.05 | X-H torsion
[ 4077 4043 4044 4045 ] final   32.72 input  116.01 | X-H torsion
[ 25737 25709 25710 25711 ] final   14.08 input   60.94 | X-H torsion
[ 1631 1609 1610 1611 ] final  -59.45 input  112.52 | X-H torsion
[ 1281 1253 1251 1248 ] final -109.09 input   60.01 | X-H torsion
[ 23825 23811 23812 23813 ] final  -21.40 input  -23.57 | X-H torsion
[ 27193 4046 4045 4044 ] final   20.79 input   -0.00 | X-H torsion
[ 27207 23650 23649 23648 ] final   72.52 input    0.00 | X-H torsion
[ 27210 23704 23703 23702 ] final  -44.19 input    0.00 | X-H torsion
[ 27213 25712 25711 25710 ] final   23.43 input    0.00 | X-H torsion
[ 27217 6888 6887 6886 ] final  -39.68 input    0.00 | X-H torsion
[ 27219 1308 1307 1306 ] final  -16.17 input    0.00 | X-H torsion
[ 27223 1530 1529 1528 ] final -166.66 input   -0.00 | X-H torsion
[ 27225 3782 3781 3780 ] final   -6.09 input    0.00 | X-H torsion
[ 27227 3996 3995 3994 ] final  -73.68 input   -0.00 | X-H torsion

> <Gold.Protein.ActiveResidues>
 THR320  LEU321  LYS324  SER325  GLU365  PHE366  ASP368  GLN369  TYR370  SER372 
 SER373  TYR408  HIS412  ARG415  ASN416  TRP426  GLU670  CYS673  ARG674  GLY675 
 GLY676  TYR703  LEU705  THR706  PRO707 

> <Gold.Protein.RotatedAtoms>
  231.0612   43.7535   38.6141 H   0  0  0  0  0  0  0  0  0  0  0  0  # atno 1281 bound_to 1253
  229.1921   40.1154   37.8885 H   0  0  0  0  0  0  0  0  0  0  0  0  # atno 1343 bound_to 1305
  223.2192   38.8086   38.7039 H   0  0  0  0  0  0  0  0  0  0  0  0  # atno 1570 bound_to 1527
  225.2214   46.1972   36.4532 H   0  0  0  0  0  0  0  0  0  0  0  0  # atno 1580 bound_to 1535
  225.9916   45.5655   37.7778 H   0  0  0  0  0  0  0  0  0  0  0  0  # atno 1581 bound_to 1535
  225.8479   44.6633   36.3949 H   0  0  0  0  0  0  0  0  0  0  0  0  # atno 1582 bound_to 1535
  221.4106   38.8039   36.8237 H   0  0  0  0  0  0  0  0  0  0  0  0  # atno 1631 bound_to 1609
  216.1791   48.7324   31.4092 H   0  0  0  0  0  0  0  0  0  0  0  0  # atno 4077 bound_to 4043
  218.4776   49.1257   29.9724 H   0  0  0  0  0  0  0  0  0  0  0  0  # atno 4159 bound_to 4117
  222.0512   51.7530   33.6465 H   0  0  0  0  0  0  0  0  0  0  0  0  # atno 4298 bound_to 4278
  221.4595   52.2474   31.5691 H   0  0  0  0  0  0  0  0  0  0  0  0  # atno 4334 bound_to 4317
  221.6698   52.7127   27.3594 H   0  0  0  0  0  0  0  0  0  0  0  0  # atno 4338 bound_to 4322
  221.7503   48.3961   28.2956 H   0  0  0  0  0  0  0  0  0  0  0  0  # atno 6681 bound_to 6660
  223.5377   43.7372   21.6233 H   0  0  0  0  0  0  0  0  0  0  0  0  # atno 6905 bound_to 6885
  232.1048   47.4192   32.8625 H   0  0  0  0  0  0  0  0  0  0  0  0  # atno 23749 bound_to 23701
  231.1783   44.3662   33.7681 H   0  0  0  0  0  0  0  0  0  0  0  0  # atno 23797 bound_to 23783
  232.0301   42.6403   33.4817 H   0  0  0  0  0  0  0  0  0  0  0  0  # atno 23825 bound_to 23811
  220.2769   39.3326   30.1401 H   0  0  0  0  0  0  0  0  0  0  0  0  # atno 25737 bound_to 25709
  220.4604   49.5957   30.9235 LP  0  0  0  0  0  0  0  0  0  0  0  0  # atno 27193 bound_to 4046
  219.7765   50.7591   29.8378 LP  0  0  0  0  0  0  0  0  0  0  0  0  # atno 27194 bound_to 4046
  221.3567   50.7205   34.6946 LP  0  0  0  0  0  0  0  0  0  0  0  0  # atno 27195 bound_to 4278
  221.2571   52.3314   34.9434 LP  0  0  0  0  0  0  0  0  0  0  0  0  # atno 27196 bound_to 4278
  220.3327   52.3351   30.2346 LP  0  0  0  0  0  0  0  0  0  0  0  0  # atno 27197 bound_to 4317
  220.5065   51.6245   27.6895 LP  0  0  0  0  0  0  0  0  0  0  0  0  # atno 27198 bound_to 4322
  221.7034   51.2527   26.6427 LP  0  0  0  0  0  0  0  0  0  0  0  0  # atno 27199 bound_to 4322
  221.5512   46.8151   27.9650 LP  0  0  0  0  0  0  0  0  0  0  0  0  # atno 27200 bound_to 6660
  220.3108   47.6881   28.5699 LP  0  0  0  0  0  0  0  0  0  0  0  0  # atno 27201 bound_to 6660
  230.6961   49.1234   32.0671 LP  0  0  0  0  0  0  0  0  0  0  0  0  # atno 27207 bound_to 23650
  230.8854   48.6838   33.7317 LP  0  0  0  0  0  0  0  0  0  0  0  0  # atno 27208 bound_to 23650
  232.5738   45.9669   32.0125 LP  0  0  0  0  0  0  0  0  0  0  0  0  # atno 27209 bound_to 23701
  228.6080   45.2399   34.4771 LP  0  0  0  0  0  0  0  0  0  0  0  0  # atno 27210 bound_to 23704
  229.2788   43.6634   34.7312 LP  0  0  0  0  0  0  0  0  0  0  0  0  # atno 27211 bound_to 23704
  232.0862   45.5499   34.6799 LP  0  0  0  0  0  0  0  0  0  0  0  0  # atno 27212 bound_to 23783
  219.8873   40.8277   29.9325 LP  0  0  0  0  0  0  0  0  0  0  0  0  # atno 27213 bound_to 25712
  219.1816   42.1423   29.0528 LP  0  0  0  0  0  0  0  0  0  0  0  0  # atno 27214 bound_to 25712
  216.7478   49.2068   29.7443 LP  0  0  0  0  0  0  0  0  0  0  0  0  # atno 27215 bound_to 4117
  221.9813   44.2918   22.1767 LP  0  0  0  0  0  0  0  0  0  0  0  0  # atno 27216 bound_to 6885
  224.5662   41.2573   24.5398 LP  0  0  0  0  0  0  0  0  0  0  0  0  # atno 27217 bound_to 6888
  223.2070   40.2479   24.9051 LP  0  0  0  0  0  0  0  0  0  0  0  0  # atno 27218 bound_to 6888
  225.1978   40.7396   36.3828 LP  0  0  0  0  0  0  0  0  0  0  0  0  # atno 27219 bound_to 1308
  225.0855   39.0128   36.3096 LP  0  0  0  0  0  0  0  0  0  0  0  0  # atno 27220 bound_to 1308
  229.3214   41.8570   37.7514 LP  0  0  0  0  0  0  0  0  0  0  0  0  # atno 27221 bound_to 1305
  224.1483   40.2104   38.2292 LP  0  0  0  0  0  0  0  0  0  0  0  0  # atno 27222 bound_to 1527
  219.7228   38.6400   35.8932 LP  0  0  0  0  0  0  0  0  0  0  0  0  # atno 27223 bound_to 1530
  220.0114   40.3357   36.0962 LP  0  0  0  0  0  0  0  0  0  0  0  0  # atno 27224 bound_to 1530
  215.7277   46.2321   33.2104 LP  0  0  0  0  0  0  0  0  0  0  0  0  # atno 27225 bound_to 3782
  215.9818   46.1907   31.4976 LP  0  0  0  0  0  0  0  0  0  0  0  0  # atno 27226 bound_to 3782
  217.2036   51.3834   32.0927 LP  0  0  0  0  0  0  0  0  0  0  0  0  # atno 27227 bound_to 3996
  218.0099   50.5831   33.4002 LP  0  0  0  0  0  0  0  0  0  0  0  0  # atno 27228 bound_to 3996
  216.7111   48.3590   33.0262 LP  0  0  0  0  0  0  0  0  0  0  0  0  # atno 27229 bound_to 4043
  220.0433   37.6267   29.8397 LP  0  0  0  0  0  0  0  0  0  0  0  0  # atno 27230 bound_to 25709
  222.8131   37.8216   37.1764 LP  0  0  0  0  0  0  0  0  0  0  0  0  # atno 27232 bound_to 1609

> <Gold.Score>
     Fitness  S(hb_ext) S(vdw_ext)  S(hb_int)    S(int)      intcor
     33.30       5.28      20.99       0.00      -0.84      -0.76

> <Gold.Goldscore.Fitness>
33.2977

> <Gold.Goldscore.Internal.Vdw>
-1.1599

> <Gold.Goldscore.Internal.Torsion>
-0.4427

> <Gold.Goldscore.External.Vdw>
20.9940

> <Gold.Goldscore.Internal.HBond>
0.0000

> <Gold.Goldscore.External.HBond>
5.2751

> <Gold.Goldscore.Internal.Correction>
-0.7585

> <Gold.Goldscore.Hbonds>
donor molecule, donor type, donor heavy atom, donor atom, acceptor molecule, acceptor atom, score
      P1  H 23708 23757       L1    11  0.79
      P1  H  4117  4159       L1     9  0.10
      L1  H     8    22       P1  4278  0.18

> <Gold.Goldscore.Internal.Vdw.Weighted>
-1.1599

> <Gold.Goldscore.Internal.Torsion.Weighted>
-0.4427

> <Gold.Goldscore.External.Vdw.Weighted>
28.8667

> <Gold.Goldscore.Internal.HBond.Weighted>
0.0000

> <Gold.Goldscore.External.HBond.Weighted>
5.2751

> <Gold.Goldscore.Internal.Correction.Weighted>
-0.7585

> <Gold.Rescore>
     Score     S(PLP)   S(hbond)     S(cho)   S(metal)  DE(clash)   DE(tors)     intcor
     26.90     -26.48       0.73       0.00       0.00       0.00       0.89       ----

> <Gold.PLP.Fitness>
26.9039

> <Gold.PLP.PLP>
-26.4764

> <Gold.PLP.part.hbond>
-2.0000

> <Gold.PLP.part.metal>
0.0000

> <Gold.PLP.part.buried>
-2.4657

> <Gold.PLP.part.nonpolar>
-23.4294

> <Gold.PLP.part.repulsive>
0.7948

> <Gold.PLP.ligand.clash>
0.0000

> <Gold.PLP.ligand.torsion>
0.8861

> <Gold.PLP.Chemscore.Hbond>
0.7332

> <Gold.PLP.Chemscore.CHOScore>
0.0000

> <Gold.PLP.Chemscore.Metal>
0.0000

> <Gold.Chemscore.Hbonds>
donor molecule, donor type, donor heavy atom, donor atom, acceptor molecule, acceptor atom, score
      P1  H 23708 23757       L1    11  1.00

> <Gold.PLP.Chemscore.Internal.Correction>
   9.000000E+99

#       Name:                CT1002167954
#       Creating user name   hitesit
#       Creation time:       Sun Apr 16 23:03:03 2023


#       File generated by GOLD software.
#

@<TRIPOS>MOLECULE
CT1002167954|ligand_prepared|mol2|1|dock5
    29    30     1
SMALL
NO_CHARGES


@<TRIPOS>ATOM
      1 C1         222.7060  46.2757  32.5529 C.3            1 RES1               0.0000
      2 C2         221.8657  44.9849  32.6327 C.ar           1 RES1               0.0000
      3 C3         224.0538  45.9496  33.1895 C.2            1 RES1               0.0000
      4 C4         222.7882  46.6407  31.0748 C.2            1 RES1               0.0000
      5 C5         222.0838  47.4740  33.3069 C.3            1 RES1               0.0000
      6 C6         220.7709  44.9038  33.4880 C.ar           1 RES1               0.0000
      7 C7         222.1708  43.8700  31.8565 C.ar           1 RES1               0.0000
      8 N8         225.1252  45.8002  32.3590 N.am           1 RES1               0.0000
      9 O9         224.1670  45.7868  34.3982 O.2            1 RES1               0.0000
     10 N10        224.0159  46.5901  30.4682 N.am           1 RES1               0.0000
     11 O11        221.7982  46.9554  30.4259 O.2            1 RES1               0.0000
     12 C12        222.8299  48.7827  33.1004 C.3            1 RES1               0.0000
     13 C13        220.0069  43.7510  33.5626 C.ar           1 RES1               0.0000
     14 C14        221.4056  42.7179  31.9329 C.ar           1 RES1               0.0000
     15 C15        225.1831  46.1567  31.0357 C.2            1 RES1               0.0000
     16 C16        220.3234  42.6575  32.7849 C.ar           1 RES1               0.0000
     17 O17        226.2369  46.0883  30.4096 O.2            1 RES1               0.0000
     18 H18        221.0470  47.6020  32.9722 H              1 RES1               0.0000
     19 H19        222.0638  47.2444  34.3795 H              1 RES1               0.0000
     20 H20        220.5080  45.7534  34.1095 H              1 RES1               0.0000
     21 H21        223.0182  43.8944  31.1799 H              1 RES1               0.0000
     22 H22        225.9607  45.3848  32.7589 H              1 RES1               0.0000
     23 H23        224.0641  46.9048  29.5044 H              1 RES1               0.0000
     24 H24        222.3519  49.5902  33.6510 H              1 RES1               0.0000
     25 H25        223.8582  48.6992  33.4461 H              1 RES1               0.0000
     26 H26        222.8474  49.0547  32.0471 H              1 RES1               0.0000
     27 H27        219.1571  43.7080  34.2358 H              1 RES1               0.0000
     28 H28        221.6587  41.8595  31.3194 H              1 RES1               0.0000
     29 H29        219.7246  41.7546  32.8433 H              1 RES1               0.0000
@<TRIPOS>BOND
    1    1    2 1     
    2    1    3 1     
    3    1    4 1     
    4    1    5 1     
    5    2    6 ar    
    6    2    7 ar    
    7    3    8 1     
    8    3    9 2     
    9    4   10 1     
   10    4   11 2     
   11    5   12 1     
   12    5   18 1     
   13    5   19 1     
   14    6   13 ar    
   15    6   20 1     
   16    7   14 ar    
   17    7   21 1     
   18    8   15 1     
   19    8   22 1     
   20   10   15 1     
   21   10   23 1     
   22   12   24 1     
   23   12   25 1     
   24   12   26 1     
   25   13   16 ar    
   26   13   27 1     
   27   14   16 ar    
   28   14   28 1     
   29   15   17 2     
   30   16   29 1     
@<TRIPOS>SUBSTRUCTURE
      1 RES1           1
@<TRIPOS>SET
DONOR_HYDROGENS      STATIC     ATOMS    <user>   **** ""
2 22 23
ATOM$RED        STATIC     ATOMS    COLORGROUP SYSTEM
2 22 23
@<TRIPOS>COMMENT
> <Gold.Version>
2022.3.0

> <Gold.Id.Protein>
unknown|4d1n_clean|pdb

> <Gold.Protein.RotatedTorsions>
[ 1580 1535 1534 1533 ] final -159.17 input   60.00 | X-H torsion
[ 4298 4278 4277 4274 ] final  144.40 input   59.99 | X-H torsion
[ 4334 4317 4318 4319 ] final  -22.98 input  114.03 | X-H torsion
[ 4338 4322 4321 4318 ] final  143.13 input   59.99 | X-H torsion
[ 6681 6660 6659 6657 ] final  -63.31 input   60.02 | X-H torsion
[ 23749 23701 23702 23703 ] final  -99.29 input   59.44 | X-H torsion
[ 23797 23783 23784 23785 ] final  169.42 input  -92.48 | X-H torsion
[ 4159 4117 4118 4119 ] final  -19.86 input  119.10 | X-H torsion
[ 6905 6885 6886 6887 ] final   13.78 input  108.16 | X-H torsion
[ 1343 1305 1306 1307 ] final  -23.62 input  118.39 | X-H torsion
[ 1570 1527 1528 1529 ] final   13.50 input   90.05 | X-H torsion
[ 4077 4043 4044 4045 ] final   12.42 input  116.01 | X-H torsion
[ 25737 25709 25710 25711 ] final  -16.67 input   60.94 | X-H torsion
[ 1631 1609 1610 1611 ] final   -0.83 input  112.52 | X-H torsion
[ 1281 1253 1251 1248 ] final -124.24 input   60.01 | X-H torsion
[ 23825 23811 23812 23813 ] final -123.75 input  -23.57 | X-H torsion
[ 27193 4046 4045 4044 ] final  -42.93 input   -0.00 | X-H torsion
[ 27207 23650 23649 23648 ] final  -22.54 input    0.00 | X-H torsion
[ 27210 23704 23703 23702 ] final   67.61 input    0.00 | X-H torsion
[ 27213 25712 25711 25710 ] final  -78.85 input    0.00 | X-H torsion
[ 27217 6888 6887 6886 ] final   -3.13 input    0.00 | X-H torsion
[ 27219 1308 1307 1306 ] final  115.92 input    0.00 | X-H torsion
[ 27223 1530 1529 1528 ] final -146.15 input   -0.00 | X-H torsion
[ 27225 3782 3781 3780 ] final   80.18 input    0.00 | X-H torsion
[ 27227 3996 3995 3994 ] final  -44.06 input   -0.00 | X-H torsion

> <Gold.Protein.ActiveResidues>
 THR320  LEU321  LYS324  SER325  GLU365  PHE366  ASP368  GLN369  TYR370  SER372 
 SER373  TYR408  HIS412  ARG415  ASN416  TRP426  GLU670  CYS673  ARG674  GLY675 
 GLY676  TYR703  LEU705  THR706  PRO707 

> <Gold.Protein.RotatedAtoms>
  230.9809   43.9498   38.7407 H   0  0  0  0  0  0  0  0  0  0  0  0  # atno 1281 bound_to 1253
  228.7913   40.4709   38.3625 H   0  0  0  0  0  0  0  0  0  0  0  0  # atno 1343 bound_to 1305
  223.6250   38.7672   38.0012 H   0  0  0  0  0  0  0  0  0  0  0  0  # atno 1570 bound_to 1527
  225.8656   45.8339   37.7446 H   0  0  0  0  0  0  0  0  0  0  0  0  # atno 1580 bound_to 1535
  225.9770   44.5908   36.6540 H   0  0  0  0  0  0  0  0  0  0  0  0  # atno 1581 bound_to 1535
  225.2184   46.0014   36.2274 H   0  0  0  0  0  0  0  0  0  0  0  0  # atno 1582 bound_to 1535
  221.4050   38.2916   37.5234 H   0  0  0  0  0  0  0  0  0  0  0  0  # atno 1631 bound_to 1609
  216.2416   49.0159   31.5126 H   0  0  0  0  0  0  0  0  0  0  0  0  # atno 4077 bound_to 4043
  217.9541   49.7436   30.4258 H   0  0  0  0  0  0  0  0  0  0  0  0  # atno 4159 bound_to 4117
  221.0906   51.2171   35.1409 H   0  0  0  0  0  0  0  0  0  0  0  0  # atno 4298 bound_to 4278
  220.9542   53.1719   30.9782 H   0  0  0  0  0  0  0  0  0  0  0  0  # atno 4334 bound_to 4317
  221.8320   51.4009   26.6224 H   0  0  0  0  0  0  0  0  0  0  0  0  # atno 4338 bound_to 4322
  220.3745   47.9157   28.6049 H   0  0  0  0  0  0  0  0  0  0  0  0  # atno 6681 bound_to 6660
  222.3914   43.2767   21.6118 H   0  0  0  0  0  0  0  0  0  0  0  0  # atno 6905 bound_to 6885
  232.0793   47.4467   32.7945 H   0  0  0  0  0  0  0  0  0  0  0  0  # atno 23749 bound_to 23701
  231.4587   45.6378   34.7783 H   0  0  0  0  0  0  0  0  0  0  0  0  # atno 23797 bound_to 23783
  232.7438   42.3711   34.6209 H   0  0  0  0  0  0  0  0  0  0  0  0  # atno 23825 bound_to 23811
  220.5992   39.2175   29.8195 H   0  0  0  0  0  0  0  0  0  0  0  0  # atno 25737 bound_to 25709
  220.0427   50.3508   31.2258 LP  0  0  0  0  0  0  0  0  0  0  0  0  # atno 27193 bound_to 4046
  220.1942   50.0041   29.5356 LP  0  0  0  0  0  0  0  0  0  0  0  0  # atno 27194 bound_to 4046
  221.6306   52.5397   34.3623 LP  0  0  0  0  0  0  0  0  0  0  0  0  # atno 27195 bound_to 4278
  221.9511   51.0521   33.7700 LP  0  0  0  0  0  0  0  0  0  0  0  0  # atno 27196 bound_to 4278
  220.8239   51.4363   30.8091 LP  0  0  0  0  0  0  0  0  0  0  0  0  # atno 27197 bound_to 4317
  221.5187   52.7461   27.4817 LP  0  0  0  0  0  0  0  0  0  0  0  0  # atno 27198 bound_to 4322
  220.5277   51.4530   27.5931 LP  0  0  0  0  0  0  0  0  0  0  0  0  # atno 27199 bound_to 4322
  221.9174   48.2492   28.2087 LP  0  0  0  0  0  0  0  0  0  0  0  0  # atno 27200 bound_to 6660
  221.3301   46.7379   28.0147 LP  0  0  0  0  0  0  0  0  0  0  0  0  # atno 27201 bound_to 6660
  231.3806   49.5135   33.0729 LP  0  0  0  0  0  0  0  0  0  0  0  0  # atno 27207 bound_to 23650
  230.2009   48.2937   32.7259 LP  0  0  0  0  0  0  0  0  0  0  0  0  # atno 27208 bound_to 23650
  232.5988   45.9400   32.0792 LP  0  0  0  0  0  0  0  0  0  0  0  0  # atno 27209 bound_to 23701
  228.8721   43.9543   33.8987 LP  0  0  0  0  0  0  0  0  0  0  0  0  # atno 27210 bound_to 23704
  229.0147   44.9490   35.3095 LP  0  0  0  0  0  0  0  0  0  0  0  0  # atno 27211 bound_to 23704
  231.8130   44.3113   33.6958 LP  0  0  0  0  0  0  0  0  0  0  0  0  # atno 27212 bound_to 23783
  218.7220   41.4919   29.7924 LP  0  0  0  0  0  0  0  0  0  0  0  0  # atno 27213 bound_to 25712
  220.3470   41.4780   29.1930 LP  0  0  0  0  0  0  0  0  0  0  0  0  # atno 27214 bound_to 25712
  217.2604   48.6019   29.3004 LP  0  0  0  0  0  0  0  0  0  0  0  0  # atno 27215 bound_to 4117
  223.1217   44.7500   22.1881 LP  0  0  0  0  0  0  0  0  0  0  0  0  # atno 27216 bound_to 6885
  224.3108   41.4652   24.9717 LP  0  0  0  0  0  0  0  0  0  0  0  0  # atno 27217 bound_to 6888
  223.4623   40.0400   24.4732 LP  0  0  0  0  0  0  0  0  0  0  0  0  # atno 27218 bound_to 6888
  225.2415   39.3152   35.6941 LP  0  0  0  0  0  0  0  0  0  0  0  0  # atno 27219 bound_to 1308
  225.0418   40.4372   36.9984 LP  0  0  0  0  0  0  0  0  0  0  0  0  # atno 27220 bound_to 1308
  229.7076   41.5145   37.2947 LP  0  0  0  0  0  0  0  0  0  0  0  0  # atno 27221 bound_to 1305
  223.7519   40.2509   38.9156 LP  0  0  0  0  0  0  0  0  0  0  0  0  # atno 27222 bound_to 1527
  219.5933   38.6850   36.1694 LP  0  0  0  0  0  0  0  0  0  0  0  0  # atno 27223 bound_to 1530
  220.1409   40.2907   35.8200 LP  0  0  0  0  0  0  0  0  0  0  0  0  # atno 27224 bound_to 1530
  216.3252   45.4988   32.4981 LP  0  0  0  0  0  0  0  0  0  0  0  0  # atno 27225 bound_to 3782
  215.3843   46.9241   32.2100 LP  0  0  0  0  0  0  0  0  0  0  0  0  # atno 27226 bound_to 3782
  216.9875   51.5145   32.4561 LP  0  0  0  0  0  0  0  0  0  0  0  0  # atno 27227 bound_to 3996
  218.2260   50.4520   33.0367 LP  0  0  0  0  0  0  0  0  0  0  0  0  # atno 27228 bound_to 3996
  216.6491   48.0775   32.9235 LP  0  0  0  0  0  0  0  0  0  0  0  0  # atno 27229 bound_to 4043
  219.7285   37.7391   30.1528 LP  0  0  0  0  0  0  0  0  0  0  0  0  # atno 27230 bound_to 25709
  222.8185   38.3206   36.4949 LP  0  0  0  0  0  0  0  0  0  0  0  0  # atno 27232 bound_to 1609

> <Gold.Score>
     Fitness  S(hb_ext) S(vdw_ext)  S(hb_int)    S(int)      intcor
     30.60       0.83      22.15       0.00      -0.68      -0.76

> <Gold.Goldscore.Fitness>
30.5978

> <Gold.Goldscore.Internal.Vdw>
-1.0132

> <Gold.Goldscore.Internal.Torsion>
-0.4303

> <Gold.Goldscore.External.Vdw>
22.1468

> <Gold.Goldscore.Internal.HBond>
0.0000

> <Gold.Goldscore.External.HBond>
0.8309

> <Gold.Goldscore.Internal.Correction>
-0.7585

> <Gold.Goldscore.Hbonds>
donor molecule, donor type, donor heavy atom, donor atom, acceptor molecule, acceptor atom, score
      P1  H 23708 23757       L1    17  0.14

> <Gold.Goldscore.Internal.Vdw.Weighted>
-1.0132

> <Gold.Goldscore.Internal.Torsion.Weighted>
-0.4303

> <Gold.Goldscore.External.Vdw.Weighted>
30.4518

> <Gold.Goldscore.Internal.HBond.Weighted>
0.0000

> <Gold.Goldscore.External.HBond.Weighted>
0.8309

> <Gold.Goldscore.Internal.Correction.Weighted>
-0.7585

> <Gold.Rescore>
     Score     S(PLP)   S(hbond)     S(cho)   S(metal)  DE(clash)   DE(tors)     intcor
     34.22     -30.42       1.32       0.00       0.00       0.00       0.08       ----

> <Gold.PLP.Fitness>
34.2213

> <Gold.PLP.PLP>
-30.4159

> <Gold.PLP.part.hbond>
-4.8029

> <Gold.PLP.part.metal>
0.0000

> <Gold.PLP.part.buried>
-1.9037

> <Gold.PLP.part.nonpolar>
-24.8271

> <Gold.PLP.part.repulsive>
0.3929

> <Gold.PLP.ligand.clash>
0.0000

> <Gold.PLP.ligand.torsion>
0.0833

> <Gold.PLP.Chemscore.Hbond>
1.3240

> <Gold.PLP.Chemscore.CHOScore>
0.0000

> <Gold.PLP.Chemscore.Metal>
0.0000

> <Gold.Chemscore.Hbonds>
donor molecule, donor type, donor heavy atom, donor atom, acceptor molecule, acceptor atom, score
      P1  H  1535  1582       L1     9  0.60
      P1  H 23708 23757       L1    17  0.83

> <Gold.PLP.Chemscore.Internal.Correction>
   9.000000E+99

#       Name:                CT1002167954
#       Creating user name   hitesit
#       Creation time:       Sun Apr 16 23:03:03 2023


#       File generated by GOLD software.
#

@<TRIPOS>MOLECULE
CT1002167954|ligand_prepared|mol2|1|dock6
    29    30     1
SMALL
NO_CHARGES


@<TRIPOS>ATOM
      1 C1         223.4278  46.5572  31.7353 C.3            1 RES1               0.0000
      2 C2         223.0520  45.0641  31.8271 C.ar           1 RES1               0.0000
      3 C3         224.2871  46.8588  32.9595 C.2            1 RES1               0.0000
      4 C4         224.1544  46.7333  30.4065 C.2            1 RES1               0.0000
      5 C5         222.2095  47.5097  31.7435 C.3            1 RES1               0.0000
      6 C6         223.6807  44.2305  32.7471 C.ar           1 RES1               0.0000
      7 C7         222.0785  44.5076  31.0017 C.ar           1 RES1               0.0000
      8 N8         225.6264  47.0280  32.7652 N.am           1 RES1               0.0000
      9 O9         223.8031  46.9081  34.0836 O.2            1 RES1               0.0000
     10 N10        225.4792  47.0816  30.4403 N.am           1 RES1               0.0000
     11 O11        223.5958  46.5573  29.3306 O.2            1 RES1               0.0000
     12 C12        222.5826  48.9827  31.6869 C.3            1 RES1               0.0000
     13 C13        223.3463  42.8897  32.8408 C.ar           1 RES1               0.0000
     14 C14        221.7458  43.1664  31.0969 C.ar           1 RES1               0.0000
     15 C15        226.2560  47.2070  31.5597 C.2            1 RES1               0.0000
     16 C16        222.3785  42.3569  32.0162 C.ar           1 RES1               0.0000
     17 O17        227.4541  47.4696  31.5069 O.2            1 RES1               0.0000
     18 H18        221.5710  47.2738  30.8833 H              1 RES1               0.0000
     19 H19        221.6256  47.3282  32.6543 H              1 RES1               0.0000
     20 H20        224.4466  44.6314  33.4027 H              1 RES1               0.0000
     21 H21        221.5684  45.1253  30.2704 H              1 RES1               0.0000
     22 H22        226.2141  47.0208  33.5928 H              1 RES1               0.0000
     23 H23        225.9279  47.2646  29.5484 H              1 RES1               0.0000
     24 H24        221.6915  49.6069  31.6952 H              1 RES1               0.0000
     25 H25        223.1972  49.2582  32.5414 H              1 RES1               0.0000
     26 H26        223.1429  49.2041  30.7809 H              1 RES1               0.0000
     27 H27        223.8482  42.2565  33.5650 H              1 RES1               0.0000
     28 H28        220.9839  42.7512  30.4455 H              1 RES1               0.0000
     29 H29        222.1164  41.3066  32.0901 H              1 RES1               0.0000
@<TRIPOS>BOND
    1    1    2 1     
    2    1    3 1     
    3    1    4 1     
    4    1    5 1     
    5    2    6 ar    
    6    2    7 ar    
    7    3    8 1     
    8    3    9 2     
    9    4   10 1     
   10    4   11 2     
   11    5   12 1     
   12    5   18 1     
   13    5   19 1     
   14    6   13 ar    
   15    6   20 1     
   16    7   14 ar    
   17    7   21 1     
   18    8   15 1     
   19    8   22 1     
   20   10   15 1     
   21   10   23 1     
   22   12   24 1     
   23   12   25 1     
   24   12   26 1     
   25   13   16 ar    
   26   13   27 1     
   27   14   16 ar    
   28   14   28 1     
   29   15   17 2     
   30   16   29 1     
@<TRIPOS>SUBSTRUCTURE
      1 RES1           1
@<TRIPOS>SET
DONOR_HYDROGENS      STATIC     ATOMS    <user>   **** ""
2 22 23
ATOM$RED        STATIC     ATOMS    COLORGROUP SYSTEM
2 22 23
@<TRIPOS>COMMENT
> <Gold.Version>
2022.3.0

> <Gold.Id.Protein>
unknown|4d1n_clean|pdb

> <Gold.Protein.RotatedTorsions>
[ 1580 1535 1534 1533 ] final -139.04 input   60.00 | X-H torsion
[ 4298 4278 4277 4274 ] final -117.92 input   59.99 | X-H torsion
[ 4334 4317 4318 4319 ] final   16.47 input  114.03 | X-H torsion
[ 4338 4322 4321 4318 ] final  -15.16 input   59.99 | X-H torsion
[ 6681 6660 6659 6657 ] final  -99.36 input   60.02 | X-H torsion
[ 23749 23701 23702 23703 ] final  -55.17 input   59.44 | X-H torsion
[ 23797 23783 23784 23785 ] final  156.03 input  -92.48 | X-H torsion
[ 4159 4117 4118 4119 ] final  -16.59 input  119.10 | X-H torsion
[ 6905 6885 6886 6887 ] final  -41.73 input  108.16 | X-H torsion
[ 1343 1305 1306 1307 ] final -163.18 input  118.39 | X-H torsion
[ 1570 1527 1528 1529 ] final   -6.72 input   90.05 | X-H torsion
[ 4077 4043 4044 4045 ] final   68.89 input  116.01 | X-H torsion
[ 25737 25709 25710 25711 ] final -133.65 input   60.94 | X-H torsion
[ 1631 1609 1610 1611 ] final  -61.08 input  112.52 | X-H torsion
[ 1281 1253 1251 1248 ] final   82.21 input   60.01 | X-H torsion
[ 23825 23811 23812 23813 ] final  -97.98 input  -23.57 | X-H torsion
[ 27193 4046 4045 4044 ] final    9.00 input   -0.00 | X-H torsion
[ 27207 23650 23649 23648 ] final    5.95 input    0.00 | X-H torsion
[ 27210 23704 23703 23702 ] final  -86.55 input    0.00 | X-H torsion
[ 27213 25712 25711 25710 ] final  -14.81 input    0.00 | X-H torsion
[ 27217 6888 6887 6886 ] final   85.10 input    0.00 | X-H torsion
[ 27219 1308 1307 1306 ] final   64.55 input    0.00 | X-H torsion
[ 27223 1530 1529 1528 ] final   12.36 input   -0.00 | X-H torsion
[ 27225 3782 3781 3780 ] final  -51.28 input    0.00 | X-H torsion
[ 27227 3996 3995 3994 ] final  145.89 input   -0.00 | X-H torsion

> <Gold.Protein.ActiveResidues>
 THR320  LEU321  LYS324  SER325  GLU365  PHE366  ASP368  GLN369  TYR370  SER372 
 SER373  TYR408  HIS412  ARG415  ASN416  TRP426  GLU670  CYS673  ARG674  GLY675 
 GLY676  TYR703  LEU705  THR706  PRO707 

> <Gold.Protein.RotatedAtoms>
  229.2070   43.5758   38.5458 H   0  0  0  0  0  0  0  0  0  0  0  0  # atno 1281 bound_to 1253
  229.3703   41.8716   37.6509 H   0  0  0  0  0  0  0  0  0  0  0  0  # atno 1343 bound_to 1305
  223.4459   38.6966   38.2447 H   0  0  0  0  0  0  0  0  0  0  0  0  # atno 1570 bound_to 1527
  226.0054   45.5316   37.7761 H   0  0  0  0  0  0  0  0  0  0  0  0  # atno 1580 bound_to 1535
  225.8308   44.6781   36.3662 H   0  0  0  0  0  0  0  0  0  0  0  0  # atno 1581 bound_to 1535
  225.2248   46.2163   36.4837 H   0  0  0  0  0  0  0  0  0  0  0  0  # atno 1582 bound_to 1535
  221.4223   38.8127   36.8033 H   0  0  0  0  0  0  0  0  0  0  0  0  # atno 1631 bound_to 1609
  216.1499   48.1946   31.4761 H   0  0  0  0  0  0  0  0  0  0  0  0  # atno 4077 bound_to 4043
  217.9078   49.7617   30.4337 H   0  0  0  0  0  0  0  0  0  0  0  0  # atno 4159 bound_to 4117
  221.7991   50.8087   33.9933 H   0  0  0  0  0  0  0  0  0  0  0  0  # atno 4298 bound_to 4278
  220.5826   53.0402   30.5279 H   0  0  0  0  0  0  0  0  0  0  0  0  # atno 4334 bound_to 4317
  221.0064   52.5700   27.7751 H   0  0  0  0  0  0  0  0  0  0  0  0  # atno 4338 bound_to 4322
  220.7317   48.3719   28.6074 H   0  0  0  0  0  0  0  0  0  0  0  0  # atno 6681 bound_to 6660
  223.1938   43.3658   21.5124 H   0  0  0  0  0  0  0  0  0  0  0  0  # atno 6905 bound_to 6885
  232.3474   47.0381   33.2421 H   0  0  0  0  0  0  0  0  0  0  0  0  # atno 23749 bound_to 23701
  231.2628   45.5845   34.7406 H   0  0  0  0  0  0  0  0  0  0  0  0  # atno 23797 bound_to 23783
  232.7905   42.4785   34.2464 H   0  0  0  0  0  0  0  0  0  0  0  0  # atno 23825 bound_to 23811
  220.4099   37.7474   29.5440 H   0  0  0  0  0  0  0  0  0  0  0  0  # atno 25737 bound_to 25709
  220.4015   49.7062   31.0499 LP  0  0  0  0  0  0  0  0  0  0  0  0  # atno 27193 bound_to 4046
  219.8355   50.6487   29.7115 LP  0  0  0  0  0  0  0  0  0  0  0  0  # atno 27194 bound_to 4046
  221.0537   51.5694   35.2233 LP  0  0  0  0  0  0  0  0  0  0  0  0  # atno 27195 bound_to 4278
  221.8140   52.4340   34.0653 LP  0  0  0  0  0  0  0  0  0  0  0  0  # atno 27196 bound_to 4278
  221.1852   51.5643   31.2468 LP  0  0  0  0  0  0  0  0  0  0  0  0  # atno 27197 bound_to 4317
  220.8055   51.0596   27.2052 LP  0  0  0  0  0  0  0  0  0  0  0  0  # atno 27198 bound_to 4322
  222.0728   51.9614   26.7081 LP  0  0  0  0  0  0  0  0  0  0  0  0  # atno 27199 bound_to 4322
  222.1075   47.7308   28.0200 LP  0  0  0  0  0  0  0  0  0  0  0  0  # atno 27200 bound_to 6660
  220.7803   46.7968   28.2010 LP  0  0  0  0  0  0  0  0  0  0  0  0  # atno 27201 bound_to 6660
  231.2888   49.5706   32.6606 LP  0  0  0  0  0  0  0  0  0  0  0  0  # atno 27207 bound_to 23650
  230.2927   48.2366   33.1382 LP  0  0  0  0  0  0  0  0  0  0  0  0  # atno 27208 bound_to 23650
  232.3362   46.3403   31.6407 LP  0  0  0  0  0  0  0  0  0  0  0  0  # atno 27209 bound_to 23701
  228.8378   45.1826   35.0565 LP  0  0  0  0  0  0  0  0  0  0  0  0  # atno 27210 bound_to 23704
  229.0490   43.7207   34.1518 LP  0  0  0  0  0  0  0  0  0  0  0  0  # atno 27211 bound_to 23704
  232.0039   44.3632   33.7325 LP  0  0  0  0  0  0  0  0  0  0  0  0  # atno 27212 bound_to 23783
  219.3445   40.8846   30.0872 LP  0  0  0  0  0  0  0  0  0  0  0  0  # atno 27213 bound_to 25712
  219.7245   42.0853   28.8982 LP  0  0  0  0  0  0  0  0  0  0  0  0  # atno 27214 bound_to 25712
  217.3057   48.5842   29.2927 LP  0  0  0  0  0  0  0  0  0  0  0  0  # atno 27215 bound_to 4117
  222.3234   44.6613   22.2870 LP  0  0  0  0  0  0  0  0  0  0  0  0  # atno 27216 bound_to 6885
  223.3311   40.8884   25.3728 LP  0  0  0  0  0  0  0  0  0  0  0  0  # atno 27217 bound_to 6888
  224.4421   40.6168   24.0721 LP  0  0  0  0  0  0  0  0  0  0  0  0  # atno 27218 bound_to 6888
  225.3336   40.0390   35.5176 LP  0  0  0  0  0  0  0  0  0  0  0  0  # atno 27219 bound_to 1308
  224.9497   39.7134   37.1749 LP  0  0  0  0  0  0  0  0  0  0  0  0  # atno 27220 bound_to 1308
  229.1498   40.1653   37.9802 LP  0  0  0  0  0  0  0  0  0  0  0  0  # atno 27221 bound_to 1305
  223.9268   40.3198   38.6778 LP  0  0  0  0  0  0  0  0  0  0  0  0  # atno 27222 bound_to 1527
  220.0046   40.3352   36.1094 LP  0  0  0  0  0  0  0  0  0  0  0  0  # atno 27223 bound_to 1530
  219.7296   38.6405   35.8800 LP  0  0  0  0  0  0  0  0  0  0  0  0  # atno 27224 bound_to 1530
  215.4248   46.7336   32.8948 LP  0  0  0  0  0  0  0  0  0  0  0  0  # atno 27225 bound_to 3782
  216.2847   45.6892   31.8132 LP  0  0  0  0  0  0  0  0  0  0  0  0  # atno 27226 bound_to 3782
  218.2640   50.4385   32.8920 LP  0  0  0  0  0  0  0  0  0  0  0  0  # atno 27227 bound_to 3996
  216.9495   51.5280   32.6008 LP  0  0  0  0  0  0  0  0  0  0  0  0  # atno 27228 bound_to 3996
  216.7401   48.8931   32.9597 LP  0  0  0  0  0  0  0  0  0  0  0  0  # atno 27229 bound_to 4043
  219.9134   39.1749   30.4219 LP  0  0  0  0  0  0  0  0  0  0  0  0  # atno 27230 bound_to 25709
  222.8017   37.8130   37.1962 LP  0  0  0  0  0  0  0  0  0  0  0  0  # atno 27232 bound_to 1609

> <Gold.Score>
     Fitness  S(hb_ext) S(vdw_ext)  S(hb_int)    S(int)      intcor
     28.84       0.00      22.46       0.00      -2.04      -0.76

> <Gold.Goldscore.Fitness>
28.8390

> <Gold.Goldscore.Internal.Vdw>
-2.4293

> <Gold.Goldscore.Internal.Torsion>
-0.3703

> <Gold.Goldscore.External.Vdw>
22.4582

> <Gold.Goldscore.Internal.HBond>
0.0000

> <Gold.Goldscore.External.HBond>
0.0000

> <Gold.Goldscore.Internal.Correction>
-0.7585

> <Gold.Goldscore.Internal.Vdw.Weighted>
-2.4293

> <Gold.Goldscore.Internal.Torsion.Weighted>
-0.3703

> <Gold.Goldscore.External.Vdw.Weighted>
30.8801

> <Gold.Goldscore.Internal.HBond.Weighted>
0.0000

> <Gold.Goldscore.External.HBond.Weighted>
0.0000

> <Gold.Goldscore.Internal.Correction.Weighted>
-0.7585

> <Gold.Rescore>
     Score     S(PLP)   S(hbond)     S(cho)   S(metal)  DE(clash)   DE(tors)     intcor
     34.96     -34.43       1.00       0.00       0.00       0.00       1.24       ----

> <Gold.PLP.Fitness>
34.9561

> <Gold.PLP.PLP>
-34.4317

> <Gold.PLP.part.hbond>
-4.0000

> <Gold.PLP.part.metal>
0.0000

> <Gold.PLP.part.buried>
-6.0847

> <Gold.PLP.part.nonpolar>
-26.9276

> <Gold.PLP.part.repulsive>
0.3263

> <Gold.PLP.ligand.clash>
0.0000

> <Gold.PLP.ligand.torsion>
1.2378

> <Gold.PLP.Chemscore.Hbond>
1.0000

> <Gold.PLP.Chemscore.CHOScore>
0.0000

> <Gold.PLP.Chemscore.Metal>
0.0000

> <Gold.PLP.Chemscore.Internal.Correction>
   9.000000E+99

#       Name:                CT1002167954
#       Creating user name   hitesit
#       Creation time:       Sun Apr 16 23:03:06 2023


#       File generated by GOLD software.
#

@<TRIPOS>MOLECULE
CT1002167954|ligand_prepared|mol2|1|dock10
    29    30     1
SMALL
NO_CHARGES


@<TRIPOS>ATOM
      1 C1         222.6986  46.4552  32.6173 C.3            1 RES1               0.0000
      2 C2         221.5990  45.5772  33.2489 C.ar           1 RES1               0.0000
      3 C3         223.2828  47.2920  33.7517 C.2            1 RES1               0.0000
      4 C4         223.6945  45.4956  31.9754 C.2            1 RES1               0.0000
      5 C5         222.1801  47.4115  31.5182 C.3            1 RES1               0.0000
      6 C6         220.4320  46.1506  33.7448 C.ar           1 RES1               0.0000
      7 C7         221.7359  44.1946  33.3400 C.ar           1 RES1               0.0000
      8 N8         224.5210  46.9543  34.2129 N.am           1 RES1               0.0000
      9 O9         222.6503  48.2093  34.2603 O.2            1 RES1               0.0000
     10 N10        224.9606  45.4407  32.4967 N.am           1 RES1               0.0000
     11 O11        223.3894  44.7745  31.0335 O.2            1 RES1               0.0000
     12 C12        223.2841  48.1446  30.7726 C.3            1 RES1               0.0000
     13 C13        219.4366  45.3700  34.3087 C.ar           1 RES1               0.0000
     14 C14        220.7393  43.4158  33.9046 C.ar           1 RES1               0.0000
     15 C15        225.4100  46.1042  33.6058 C.2            1 RES1               0.0000
     16 C16        219.5893  44.0022  34.3886 C.ar           1 RES1               0.0000
     17 O17        226.5472  45.9615  34.0458 O.2            1 RES1               0.0000
     18 H18        221.5904  46.8331  30.7963 H              1 RES1               0.0000
     19 H19        221.5140  48.1512  31.9792 H              1 RES1               0.0000
     20 H20        220.2951  47.2256  33.6928 H              1 RES1               0.0000
     21 H21        222.6326  43.7116  32.9668 H              1 RES1               0.0000
     22 H22        224.8130  47.3726  35.0905 H              1 RES1               0.0000
     23 H23        225.6302  44.8507  32.0130 H              1 RES1               0.0000
     24 H24        222.8660  48.8019  30.0131 H              1 RES1               0.0000
     25 H25        223.8753  48.7500  31.4565 H              1 RES1               0.0000
     26 H26        223.9512  47.4397  30.2807 H              1 RES1               0.0000
     27 H27        218.5340  45.8365  34.6894 H              1 RES1               0.0000
     28 H28        220.8640  42.3397  33.9660 H              1 RES1               0.0000
     29 H29        218.8092  43.3909  34.8301 H              1 RES1               0.0000
@<TRIPOS>BOND
    1    1    2 1     
    2    1    3 1     
    3    1    4 1     
    4    1    5 1     
    5    2    6 ar    
    6    2    7 ar    
    7    3    8 1     
    8    3    9 2     
    9    4   10 1     
   10    4   11 2     
   11    5   12 1     
   12    5   18 1     
   13    5   19 1     
   14    6   13 ar    
   15    6   20 1     
   16    7   14 ar    
   17    7   21 1     
   18    8   15 1     
   19    8   22 1     
   20   10   15 1     
   21   10   23 1     
   22   12   24 1     
   23   12   25 1     
   24   12   26 1     
   25   13   16 ar    
   26   13   27 1     
   27   14   16 ar    
   28   14   28 1     
   29   15   17 2     
   30   16   29 1     
@<TRIPOS>SUBSTRUCTURE
      1 RES1           1
@<TRIPOS>SET
DONOR_HYDROGENS      STATIC     ATOMS    <user>   **** ""
2 22 23
ATOM$RED        STATIC     ATOMS    COLORGROUP SYSTEM
2 22 23
@<TRIPOS>COMMENT
> <Gold.Version>
2022.3.0

> <Gold.Id.Protein>
unknown|4d1n_clean|pdb

> <Gold.Protein.RotatedTorsions>
[ 1580 1535 1534 1533 ] final  126.32 input   60.00 | X-H torsion
[ 4298 4278 4277 4274 ] final -135.86 input   59.99 | X-H torsion
[ 4334 4317 4318 4319 ] final  148.32 input  114.03 | X-H torsion
[ 4338 4322 4321 4318 ] final  103.84 input   59.99 | X-H torsion
[ 6681 6660 6659 6657 ] final   52.84 input   60.02 | X-H torsion
[ 23749 23701 23702 23703 ] final -136.70 input   59.44 | X-H torsion
[ 23797 23783 23784 23785 ] final  157.62 input  -92.48 | X-H torsion
[ 4159 4117 4118 4119 ] final   50.13 input  119.10 | X-H torsion
[ 6905 6885 6886 6887 ] final  178.06 input  108.16 | X-H torsion
[ 1343 1305 1306 1307 ] final  -21.31 input  118.39 | X-H torsion
[ 1570 1527 1528 1529 ] final   93.20 input   90.05 | X-H torsion
[ 4077 4043 4044 4045 ] final -104.97 input  116.01 | X-H torsion
[ 25737 25709 25710 25711 ] final   73.63 input   60.94 | X-H torsion
[ 1631 1609 1610 1611 ] final -140.14 input  112.52 | X-H torsion
[ 1281 1253 1251 1248 ] final   20.08 input   60.01 | X-H torsion
[ 23825 23811 23812 23813 ] final  120.43 input  -23.57 | X-H torsion
[ 27193 4046 4045 4044 ] final   97.75 input   -0.00 | X-H torsion
[ 27207 23650 23649 23648 ] final  -86.33 input    0.00 | X-H torsion
[ 27210 23704 23703 23702 ] final -144.26 input    0.00 | X-H torsion
[ 27213 25712 25711 25710 ] final -146.67 input    0.00 | X-H torsion
[ 27217 6888 6887 6886 ] final   40.70 input    0.00 | X-H torsion
[ 27219 1308 1307 1306 ] final   60.66 input    0.00 | X-H torsion
[ 27223 1530 1529 1528 ] final   76.45 input   -0.00 | X-H torsion
[ 27225 3782 3781 3780 ] final  169.07 input    0.00 | X-H torsion
[ 27227 3996 3995 3994 ] final  111.62 input   -0.00 | X-H torsion

> <Gold.Protein.ActiveResidues>
 THR320  LEU321  LYS324  SER325  GLU365  PHE366  ASP368  GLN369  TYR370  SER372 
 SER373  TYR408  HIS412  ARG415  ASN416  TRP426  GLU670  CYS673  ARG674  GLY675 
 GLY676  TYR703  LEU705  THR706  PRO707 

> <Gold.Protein.RotatedAtoms>
  229.7069   42.8832   38.0940 H   0  0  0  0  0  0  0  0  0  0  0  0  # atno 1281 bound_to 1253
  228.8056   40.4425   38.3458 H   0  0  0  0  0  0  0  0  0  0  0  0  # atno 1343 bound_to 1305
  224.1963   39.7173   37.7678 H   0  0  0  0  0  0  0  0  0  0  0  0  # atno 1570 bound_to 1527
  225.3127   46.3562   36.8704 H   0  0  0  0  0  0  0  0  0  0  0  0  # atno 1580 bound_to 1535
  226.1243   45.1459   37.6600 H   0  0  0  0  0  0  0  0  0  0  0  0  # atno 1581 bound_to 1535
  225.6240   44.9239   36.0955 H   0  0  0  0  0  0  0  0  0  0  0  0  # atno 1582 bound_to 1535
  222.4032   38.6975   36.2596 H   0  0  0  0  0  0  0  0  0  0  0  0  # atno 1631 bound_to 1609
  216.7177   48.9806   32.9285 H   0  0  0  0  0  0  0  0  0  0  0  0  # atno 4077 bound_to 4043
  216.9701   49.6792   30.1964 H   0  0  0  0  0  0  0  0  0  0  0  0  # atno 4159 bound_to 4117
  221.6530   50.6946   34.2188 H   0  0  0  0  0  0  0  0  0  0  0  0  # atno 4298 bound_to 4278
  220.7481   51.4385   30.6966 H   0  0  0  0  0  0  0  0  0  0  0  0  # atno 4334 bound_to 4317
  222.0702   51.9749   26.7199 H   0  0  0  0  0  0  0  0  0  0  0  0  # atno 4338 bound_to 4322
  221.2687   46.7337   28.0309 H   0  0  0  0  0  0  0  0  0  0  0  0  # atno 6681 bound_to 6660
  222.8946   44.8121   22.2308 H   0  0  0  0  0  0  0  0  0  0  0  0  # atno 6905 bound_to 6885
  231.9637   47.4594   32.2404 H   0  0  0  0  0  0  0  0  0  0  0  0  # atno 23749 bound_to 23701
  231.2851   45.5926   34.7466 H   0  0  0  0  0  0  0  0  0  0  0  0  # atno 23797 bound_to 23783
  231.2905   42.1947   34.9031 H   0  0  0  0  0  0  0  0  0  0  0  0  # atno 23825 bound_to 23811
  219.6460   38.8967   30.5682 H   0  0  0  0  0  0  0  0  0  0  0  0  # atno 25737 bound_to 25709
  220.4424   49.5780   29.8461 LP  0  0  0  0  0  0  0  0  0  0  0  0  # atno 27193 bound_to 4046
  219.7945   50.7768   30.9153 LP  0  0  0  0  0  0  0  0  0  0  0  0  # atno 27194 bound_to 4046
  221.0802   51.8612   35.1977 LP  0  0  0  0  0  0  0  0  0  0  0  0  # atno 27195 bound_to 4278
  221.9348   52.2572   33.8637 LP  0  0  0  0  0  0  0  0  0  0  0  0  # atno 27196 bound_to 4278
  221.0243   53.1215   31.0829 LP  0  0  0  0  0  0  0  0  0  0  0  0  # atno 27197 bound_to 4317
  220.9900   52.5672   27.7822 LP  0  0  0  0  0  0  0  0  0  0  0  0  # atno 27198 bound_to 4322
  220.8164   51.0535   27.1945 LP  0  0  0  0  0  0  0  0  0  0  0  0  # atno 27199 bound_to 4322
  220.3940   47.9752   28.6157 LP  0  0  0  0  0  0  0  0  0  0  0  0  # atno 27200 bound_to 6660
  221.9530   48.2021   28.1859 LP  0  0  0  0  0  0  0  0  0  0  0  0  # atno 27201 bound_to 6660
  231.0897   48.9266   33.7119 LP  0  0  0  0  0  0  0  0  0  0  0  0  # atno 27207 bound_to 23650
  230.4918   48.8806   32.0869 LP  0  0  0  0  0  0  0  0  0  0  0  0  # atno 27208 bound_to 23650
  232.7120   45.9276   32.6219 LP  0  0  0  0  0  0  0  0  0  0  0  0  # atno 27209 bound_to 23701
  229.2098   44.5308   35.4244 LP  0  0  0  0  0  0  0  0  0  0  0  0  # atno 27210 bound_to 23704
  228.6770   44.3725   33.7839 LP  0  0  0  0  0  0  0  0  0  0  0  0  # atno 27211 bound_to 23704
  231.9821   44.3553   33.7267 LP  0  0  0  0  0  0  0  0  0  0  0  0  # atno 27212 bound_to 23783
  219.0571   42.1091   29.1286 LP  0  0  0  0  0  0  0  0  0  0  0  0  # atno 27213 bound_to 25712
  220.0119   40.8608   29.8568 LP  0  0  0  0  0  0  0  0  0  0  0  0  # atno 27214 bound_to 25712
  218.2237   48.6649   29.5250 LP  0  0  0  0  0  0  0  0  0  0  0  0  # atno 27215 bound_to 4117
  222.6211   43.2223   21.5723 LP  0  0  0  0  0  0  0  0  0  0  0  0  # atno 27216 bound_to 6885
  223.7987   41.3455   25.3475 LP  0  0  0  0  0  0  0  0  0  0  0  0  # atno 27217 bound_to 6888
  223.9744   40.1597   24.0974 LP  0  0  0  0  0  0  0  0  0  0  0  0  # atno 27218 bound_to 6888
  225.3348   40.0961   35.5312 LP  0  0  0  0  0  0  0  0  0  0  0  0  # atno 27219 bound_to 1308
  224.9485   39.6562   37.1613 LP  0  0  0  0  0  0  0  0  0  0  0  0  # atno 27220 bound_to 1308
  229.6938   41.5419   37.3109 LP  0  0  0  0  0  0  0  0  0  0  0  0  # atno 27221 bound_to 1305
  223.1938   39.3228   39.1437 LP  0  0  0  0  0  0  0  0  0  0  0  0  # atno 27222 bound_to 1527
  220.2853   39.8934   35.3539 LP  0  0  0  0  0  0  0  0  0  0  0  0  # atno 27223 bound_to 1530
  219.4489   39.0823   36.6355 LP  0  0  0  0  0  0  0  0  0  0  0  0  # atno 27224 bound_to 1530
  216.0218   46.1305   31.5081 LP  0  0  0  0  0  0  0  0  0  0  0  0  # atno 27225 bound_to 3782
  215.6877   46.2923   33.1999 LP  0  0  0  0  0  0  0  0  0  0  0  0  # atno 27226 bound_to 3782
  218.0584   50.5506   33.3454 LP  0  0  0  0  0  0  0  0  0  0  0  0  # atno 27227 bound_to 3996
  217.1551   51.4160   32.1474 LP  0  0  0  0  0  0  0  0  0  0  0  0  # atno 27228 bound_to 3996
  216.1763   48.1126   31.5176 LP  0  0  0  0  0  0  0  0  0  0  0  0  # atno 27229 bound_to 4043
  220.6595   38.0524   29.4216 LP  0  0  0  0  0  0  0  0  0  0  0  0  # atno 27230 bound_to 25709
  221.8464   37.9252   37.7258 LP  0  0  0  0  0  0  0  0  0  0  0  0  # atno 27232 bound_to 1609

> <Gold.Score>
     Fitness  S(hb_ext) S(vdw_ext)  S(hb_int)    S(int)      intcor
     28.30       4.30      18.99       0.00      -2.11      -0.76

> <Gold.Goldscore.Fitness>
28.3034

> <Gold.Goldscore.Internal.Vdw>
-2.4125

> <Gold.Goldscore.Internal.Torsion>
-0.4531

> <Gold.Goldscore.External.Vdw>
18.9912

> <Gold.Goldscore.Internal.HBond>
0.0000

> <Gold.Goldscore.External.HBond>
4.2976

> <Gold.Goldscore.Internal.Correction>
-0.7585

> <Gold.Goldscore.Hbonds>
donor molecule, donor type, donor heavy atom, donor atom, acceptor molecule, acceptor atom, score
      P1  H  4278  4298       L1     9  0.57
      P1  H 23711 23761       L1    11  0.53

> <Gold.Goldscore.Internal.Vdw.Weighted>
-2.4125

> <Gold.Goldscore.Internal.Torsion.Weighted>
-0.4531

> <Gold.Goldscore.External.Vdw.Weighted>
26.1129

> <Gold.Goldscore.Internal.HBond.Weighted>
0.0000

> <Gold.Goldscore.External.HBond.Weighted>
4.2976

> <Gold.Goldscore.Internal.Correction.Weighted>
-0.7585

> <Gold.Rescore>
     Score     S(PLP)   S(hbond)     S(cho)   S(metal)  DE(clash)   DE(tors)     intcor
     30.30     -29.40       0.81       0.00       0.00       1.45       0.04       ----

> <Gold.PLP.Fitness>
30.3028

> <Gold.PLP.PLP>
-29.4004

> <Gold.PLP.part.hbond>
-1.3561

> <Gold.PLP.part.metal>
0.0000

> <Gold.PLP.part.buried>
-5.4196

> <Gold.PLP.part.nonpolar>
-24.1784

> <Gold.PLP.part.repulsive>
0.3511

> <Gold.PLP.ligand.clash>
1.4490

> <Gold.PLP.ligand.torsion>
0.0430

> <Gold.PLP.Chemscore.Hbond>
0.8125

> <Gold.PLP.Chemscore.CHOScore>
0.0000

> <Gold.PLP.Chemscore.Metal>
0.0000

> <Gold.Chemscore.Hbonds>
donor molecule, donor type, donor heavy atom, donor atom, acceptor molecule, acceptor atom, score
      P1  H  1535  1582       L1    17  0.02
      P1  H 23711 23761       L1    11  0.60

> <Gold.PLP.Chemscore.Internal.Correction>
   9.000000E+99

#       Name:                CT1002167954
#       Creating user name   hitesit
#       Creation time:       Sun Apr 16 23:03:05 2023


#       File generated by GOLD software.
#

@<TRIPOS>MOLECULE
CT1002167954|ligand_prepared|mol2|1|dock8
    29    30     1
SMALL
NO_CHARGES


@<TRIPOS>ATOM
      1 C1         222.6257  43.6678  31.6864 C.3            1 RES1               0.0000
      2 C2         221.2064  43.6968  32.2892 C.ar           1 RES1               0.0000
      3 C3         222.4482  43.6912  30.1711 C.2            1 RES1               0.0000
      4 C4         223.3521  44.8857  32.2465 C.2            1 RES1               0.0000
      5 C5         223.4402  42.4093  32.0661 C.3            1 RES1               0.0000
      6 C6         220.6980  44.8652  32.8489 C.ar           1 RES1               0.0000
      7 C7         220.3941  42.5660  32.2906 C.ar           1 RES1               0.0000
      8 N8         222.7399  44.8527  29.5186 N.am           1 RES1               0.0000
      9 O9         222.0209  42.7177  29.5627 O.2            1 RES1               0.0000
     10 N10        223.7155  45.8754  31.3711 N.am           1 RES1               0.0000
     11 O11        223.5982  45.0049  33.4404 O.2            1 RES1               0.0000
     12 C12        223.4318  42.0996  33.5548 C.3            1 RES1               0.0000
     13 C13        219.4226  44.9026  33.3877 C.ar           1 RES1               0.0000
     14 C14        219.1190  42.6055  32.8302 C.ar           1 RES1               0.0000
     15 C15        223.4151  45.9282  30.0373 C.2            1 RES1               0.0000
     16 C16        218.6322  43.7731  33.3784 C.ar           1 RES1               0.0000
     17 O17        223.7294  46.8782  29.3261 O.2            1 RES1               0.0000
     18 H18        223.0319  41.5475  31.5239 H              1 RES1               0.0000
     19 H19        224.4784  42.5490  31.7405 H              1 RES1               0.0000
     20 H20        221.3063  45.7633  32.8675 H              1 RES1               0.0000
     21 H21        220.7566  41.6362  31.8657 H              1 RES1               0.0000
     22 H22        222.4271  44.9286  28.5559 H              1 RES1               0.0000
     23 H23        224.2606  46.6439  31.7488 H              1 RES1               0.0000
     24 H24        224.0177  41.2077  33.7666 H              1 RES1               0.0000
     25 H25        223.8546  42.9256  34.1230 H              1 RES1               0.0000
     26 H26        222.4167  41.9300  33.9078 H              1 RES1               0.0000
     27 H27        219.0446  45.8236  33.8192 H              1 RES1               0.0000
     28 H28        218.5007  41.7140  32.8212 H              1 RES1               0.0000
     29 H29        217.6330  43.8028  33.8002 H              1 RES1               0.0000
@<TRIPOS>BOND
    1    1    2 1     
    2    1    3 1     
    3    1    4 1     
    4    1    5 1     
    5    2    6 ar    
    6    2    7 ar    
    7    3    8 1     
    8    3    9 2     
    9    4   10 1     
   10    4   11 2     
   11    5   12 1     
   12    5   18 1     
   13    5   19 1     
   14    6   13 ar    
   15    6   20 1     
   16    7   14 ar    
   17    7   21 1     
   18    8   15 1     
   19    8   22 1     
   20   10   15 1     
   21   10   23 1     
   22   12   24 1     
   23   12   25 1     
   24   12   26 1     
   25   13   16 ar    
   26   13   27 1     
   27   14   16 ar    
   28   14   28 1     
   29   15   17 2     
   30   16   29 1     
@<TRIPOS>SUBSTRUCTURE
      1 RES1           1
@<TRIPOS>SET
DONOR_HYDROGENS      STATIC     ATOMS    <user>   **** ""
2 22 23
ATOM$RED        STATIC     ATOMS    COLORGROUP SYSTEM
2 22 23
@<TRIPOS>COMMENT
> <Gold.Version>
2022.3.0

> <Gold.Id.Protein>
unknown|4d1n_clean|pdb

> <Gold.Protein.RotatedTorsions>
[ 1580 1535 1534 1533 ] final -174.93 input   60.00 | X-H torsion
[ 4298 4278 4277 4274 ] final  -87.33 input   59.99 | X-H torsion
[ 4334 4317 4318 4319 ] final   -6.43 input  114.03 | X-H torsion
[ 4338 4322 4321 4318 ] final  -18.03 input   59.99 | X-H torsion
[ 6681 6660 6659 6657 ] final  126.44 input   60.02 | X-H torsion
[ 23749 23701 23702 23703 ] final  -31.02 input   59.44 | X-H torsion
[ 23797 23783 23784 23785 ] final -169.22 input  -92.48 | X-H torsion
[ 4159 4117 4118 4119 ] final -154.71 input  119.10 | X-H torsion
[ 6905 6885 6886 6887 ] final   -7.61 input  108.16 | X-H torsion
[ 1343 1305 1306 1307 ] final  156.74 input  118.39 | X-H torsion
[ 1570 1527 1528 1529 ] final  -16.89 input   90.05 | X-H torsion
[ 4077 4043 4044 4045 ] final  168.31 input  116.01 | X-H torsion
[ 25737 25709 25710 25711 ] final  -26.91 input   60.94 | X-H torsion
[ 1631 1609 1610 1611 ] final -162.48 input  112.52 | X-H torsion
[ 1281 1253 1251 1248 ] final  -36.59 input   60.01 | X-H torsion
[ 23825 23811 23812 23813 ] final   17.36 input  -23.57 | X-H torsion
[ 27193 4046 4045 4044 ] final   87.73 input   -0.00 | X-H torsion
[ 27207 23650 23649 23648 ] final   66.85 input    0.00 | X-H torsion
[ 27210 23704 23703 23702 ] final  -72.17 input    0.00 | X-H torsion
[ 27213 25712 25711 25710 ] final -134.50 input    0.00 | X-H torsion
[ 27217 6888 6887 6886 ] final   34.91 input    0.00 | X-H torsion
[ 27219 1308 1307 1306 ] final   84.88 input    0.00 | X-H torsion
[ 27223 1530 1529 1528 ] final -150.11 input   -0.00 | X-H torsion
[ 27225 3782 3781 3780 ] final  -25.44 input    0.00 | X-H torsion
[ 27227 3996 3995 3994 ] final  -21.46 input   -0.00 | X-H torsion

> <Gold.Protein.ActiveResidues>
 THR320  LEU321  LYS324  SER325  GLU365  PHE366  ASP368  GLN369  TYR370  SER372 
 SER373  TYR408  HIS412  ARG415  ASN416  TRP426  GLU670  CYS673  ARG674  GLY675 
 GLY676  TYR703  LEU705  THR706  PRO707 

> <Gold.Protein.RotatedAtoms>
  230.5957   42.9001   38.0834 H   0  0  0  0  0  0  0  0  0  0  0  0  # atno 1281 bound_to 1253
  229.7015   41.5383   37.2598 H   0  0  0  0  0  0  0  0  0  0  0  0  # atno 1343 bound_to 1305
  223.3659   38.6994   38.3793 H   0  0  0  0  0  0  0  0  0  0  0  0  # atno 1570 bound_to 1527
  225.7400   46.0416   37.6451 H   0  0  0  0  0  0  0  0  0  0  0  0  # atno 1580 bound_to 1535
  226.0675   44.5978   36.9000 H   0  0  0  0  0  0  0  0  0  0  0  0  # atno 1581 bound_to 1535
  225.2535   45.7866   36.0808 H   0  0  0  0  0  0  0  0  0  0  0  0  # atno 1582 bound_to 1535
  222.6725   38.4993   36.3367 H   0  0  0  0  0  0  0  0  0  0  0  0  # atno 1631 bound_to 1609
  216.5276   47.8175   32.6988 H   0  0  0  0  0  0  0  0  0  0  0  0  # atno 4077 bound_to 4043
  217.9252   48.5242   29.3447 H   0  0  0  0  0  0  0  0  0  0  0  0  # atno 4159 bound_to 4117
  221.9869   51.1712   33.7158 H   0  0  0  0  0  0  0  0  0  0  0  0  # atno 4298 bound_to 4278
  220.7914   53.1663   30.7819 H   0  0  0  0  0  0  0  0  0  0  0  0  # atno 4334 bound_to 4317
  220.9705   52.5433   27.7887 H   0  0  0  0  0  0  0  0  0  0  0  0  # atno 4338 bound_to 4322
  222.0806   47.5054   27.9702 H   0  0  0  0  0  0  0  0  0  0  0  0  # atno 6681 bound_to 6660
  222.7016   43.2246   21.5336 H   0  0  0  0  0  0  0  0  0  0  0  0  # atno 6905 bound_to 6885
  232.5035   46.7085   33.3004 H   0  0  0  0  0  0  0  0  0  0  0  0  # atno 23749 bound_to 23701
  231.7868   45.6463   34.7769 H   0  0  0  0  0  0  0  0  0  0  0  0  # atno 23797 bound_to 23783
  231.4600   42.5721   33.5888 H   0  0  0  0  0  0  0  0  0  0  0  0  # atno 23825 bound_to 23811
  220.6826   39.1291   29.7189 H   0  0  0  0  0  0  0  0  0  0  0  0  # atno 25737 bound_to 25709
  220.4855   49.5075   29.9727 LP  0  0  0  0  0  0  0  0  0  0  0  0  # atno 27193 bound_to 4046
  219.7515   50.8474   30.7887 LP  0  0  0  0  0  0  0  0  0  0  0  0  # atno 27194 bound_to 4046
  221.1204   51.0947   35.0907 LP  0  0  0  0  0  0  0  0  0  0  0  0  # atno 27195 bound_to 4278
  221.5582   52.5435   34.4775 LP  0  0  0  0  0  0  0  0  0  0  0  0  # atno 27196 bound_to 4278
  220.9823   51.4417   31.0000 LP  0  0  0  0  0  0  0  0  0  0  0  0  # atno 27197 bound_to 4317
  220.8370   51.0429   27.1745 LP  0  0  0  0  0  0  0  0  0  0  0  0  # atno 27198 bound_to 4322
  222.0776   52.0050   26.7252 LP  0  0  0  0  0  0  0  0  0  0  0  0  # atno 27199 bound_to 4322
  220.5979   46.9139   28.2871 LP  0  0  0  0  0  0  0  0  0  0  0  0  # atno 27200 bound_to 6660
  220.9315   48.4862   28.5755 LP  0  0  0  0  0  0  0  0  0  0  0  0  # atno 27201 bound_to 6660
  230.7543   49.1848   32.0811 LP  0  0  0  0  0  0  0  0  0  0  0  0  # atno 27207 bound_to 23650
  230.8272   48.6224   33.7177 LP  0  0  0  0  0  0  0  0  0  0  0  0  # atno 27208 bound_to 23650
  232.1832   46.6631   31.5836 LP  0  0  0  0  0  0  0  0  0  0  0  0  # atno 27209 bound_to 23701
  228.7462   45.2511   34.8723 LP  0  0  0  0  0  0  0  0  0  0  0  0  # atno 27210 bound_to 23704
  229.1406   43.6521   34.3359 LP  0  0  0  0  0  0  0  0  0  0  0  0  # atno 27211 bound_to 23704
  231.4934   44.3029   33.6971 LP  0  0  0  0  0  0  0  0  0  0  0  0  # atno 27212 bound_to 23783
  218.9239   42.0430   29.2362 LP  0  0  0  0  0  0  0  0  0  0  0  0  # atno 27213 bound_to 25712
  220.1450   40.9269   29.7491 LP  0  0  0  0  0  0  0  0  0  0  0  0  # atno 27214 bound_to 25712
  217.2886   49.7958   30.3589 LP  0  0  0  0  0  0  0  0  0  0  0  0  # atno 27215 bound_to 4117
  222.8131   44.8017   22.2660 LP  0  0  0  0  0  0  0  0  0  0  0  0  # atno 27216 bound_to 6885
  223.8701   41.3840   25.3150 LP  0  0  0  0  0  0  0  0  0  0  0  0  # atno 27217 bound_to 6888
  223.9030   40.1212   24.1299 LP  0  0  0  0  0  0  0  0  0  0  0  0  # atno 27218 bound_to 6888
  225.3127   39.7340   35.5093 LP  0  0  0  0  0  0  0  0  0  0  0  0  # atno 27219 bound_to 1308
  224.9706   40.0183   37.1832 LP  0  0  0  0  0  0  0  0  0  0  0  0  # atno 27220 bound_to 1308
  228.8307   40.4863   38.3570 LP  0  0  0  0  0  0  0  0  0  0  0  0  # atno 27221 bound_to 1305
  224.0050   40.3172   38.5463 LP  0  0  0  0  0  0  0  0  0  0  0  0  # atno 27222 bound_to 1527
  219.6161   38.6680   36.1167 LP  0  0  0  0  0  0  0  0  0  0  0  0  # atno 27223 bound_to 1530
  220.1182   40.3077   35.8727 LP  0  0  0  0  0  0  0  0  0  0  0  0  # atno 27224 bound_to 1530
  215.5759   46.4680   33.1327 LP  0  0  0  0  0  0  0  0  0  0  0  0  # atno 27225 bound_to 3782
  216.1336   45.9548   31.5753 LP  0  0  0  0  0  0  0  0  0  0  0  0  # atno 27226 bound_to 3782
  216.9298   51.5216   32.7905 LP  0  0  0  0  0  0  0  0  0  0  0  0  # atno 27227 bound_to 3996
  218.2837   50.4449   32.7023 LP  0  0  0  0  0  0  0  0  0  0  0  0  # atno 27228 bound_to 3996
  216.3651   49.2675   31.7457 LP  0  0  0  0  0  0  0  0  0  0  0  0  # atno 27229 bound_to 4043
  219.6471   37.8255   30.2511 LP  0  0  0  0  0  0  0  0  0  0  0  0  # atno 27230 bound_to 25709
  221.5841   38.1183   37.6507 LP  0  0  0  0  0  0  0  0  0  0  0  0  # atno 27232 bound_to 1609

> <Gold.Score>
     Fitness  S(hb_ext) S(vdw_ext)  S(hb_int)    S(int)      intcor
     27.54       1.12      21.87       0.00      -3.66      -0.76

> <Gold.Goldscore.Fitness>
27.5420

> <Gold.Goldscore.Internal.Vdw>
-3.8713

> <Gold.Goldscore.Internal.Torsion>
-0.5468

> <Gold.Goldscore.External.Vdw>
21.8744

> <Gold.Goldscore.Internal.HBond>
0.0000

> <Gold.Goldscore.External.HBond>
1.1243

> <Gold.Goldscore.Internal.Correction>
-0.7585

> <Gold.Goldscore.Hbonds>
donor molecule, donor type, donor heavy atom, donor atom, acceptor molecule, acceptor atom, score
      P1  H  4050  4083       L1     9  0.07
      P1  H  6660  6681       L1    17  0.01
      P1  H  7187  7201       L1     9  0.48

> <Gold.Goldscore.Internal.Vdw.Weighted>
-3.8713

> <Gold.Goldscore.Internal.Torsion.Weighted>
-0.5468

> <Gold.Goldscore.External.Vdw.Weighted>
30.0772

> <Gold.Goldscore.Internal.HBond.Weighted>
0.0000

> <Gold.Goldscore.External.HBond.Weighted>
1.1243

> <Gold.Goldscore.Internal.Correction.Weighted>
-0.7585

> <Gold.Rescore>
     Score     S(PLP)   S(hbond)     S(cho)   S(metal)  DE(clash)   DE(tors)     intcor
     24.18     -23.06       1.20       0.00       0.00       1.62       0.42       ----

> <Gold.PLP.Fitness>
24.1790

> <Gold.PLP.PLP>
-23.0565

> <Gold.PLP.part.hbond>
-2.8660

> <Gold.PLP.part.metal>
0.0000

> <Gold.PLP.part.buried>
-1.0445

> <Gold.PLP.part.nonpolar>
-25.5283

> <Gold.PLP.part.repulsive>
5.1051

> <Gold.PLP.ligand.clash>
1.6220

> <Gold.PLP.ligand.torsion>
0.4209

> <Gold.PLP.Chemscore.Hbond>
1.1954

> <Gold.PLP.Chemscore.CHOScore>
0.0000

> <Gold.PLP.Chemscore.Metal>
0.0000

> <Gold.Chemscore.Hbonds>
donor molecule, donor type, donor heavy atom, donor atom, acceptor molecule, acceptor atom, score
      P1  H  4050  4083       L1     9  0.24
      P1  H  6660  6681       L1    17  0.57
      P1  H  7187  7201       L1     9  0.41

> <Gold.PLP.Chemscore.Internal.Correction>
   9.000000E+99

