#       Name:                GA Fitting Points
#       Creating user name   hitesit
#       Creation time:       Sun Apr 16 23:02:57 2023


#       Fitting Points Used by GA Software.
#

@<TRIPOS>MOLECULE
GA Fitting Points
  4405    0    0
SMALL
NO_CHARGES


@<TRIPOS>ATOM
      1 ****       216.0000  46.0000  36.2500 Du        
      2 ****       216.2500  45.7500  36.2500 Du        
      3 ****       216.2500  45.7500  36.5000 Du        
      4 ****       216.2500  45.7500  36.7500 Du        
      5 ****       216.2500  46.0000  36.2500 Du        
      6 ****       216.2500  46.0000  36.5000 Du        
      7 ****       216.2500  46.0000  36.7500 Du        
      8 ****       216.2500  46.2500  36.2500 Du        
      9 ****       216.2500  46.2500  36.5000 Du        
     10 ****       216.2500  46.2500  36.7500 Du        
     11 ****       216.5000  45.7500  36.0000 Du        
     12 ****       216.5000  45.7500  36.2500 Du        
     13 ****       216.5000  46.0000  36.0000 Du        
     14 ****       216.5000  46.0000  36.2500 Du        
     15 ****       216.5000  46.2500  36.2500 Du        
     16 ****       216.7500  45.7500  35.2500 Du        
     17 ****       216.7500  45.7500  35.5000 Du        
     18 ****       216.7500  45.7500  35.7500 Du        
     19 ****       216.7500  45.7500  36.0000 Du        
     20 ****       216.7500  45.7500  36.2500 Du        
     21 ****       216.7500  46.0000  35.2500 Du        
     22 ****       216.7500  46.0000  35.5000 Du        
     23 ****       216.7500  46.0000  35.7500 Du        
     24 ****       216.7500  46.0000  36.0000 Du        
     25 ****       216.7500  46.0000  36.2500 Du        
     26 ****       216.7500  46.2500  35.7500 Du        
     27 ****       216.7500  46.2500  36.0000 Du        
     28 ****       216.7500  46.2500  36.2500 Du        
     29 ****       216.7500  46.5000  36.2500 Du        
     30 ****       217.0000  45.7500  35.0000 Du        
     31 ****       217.0000  45.7500  35.2500 Du        
     32 ****       217.0000  45.7500  35.5000 Du        
     33 ****       217.0000  45.7500  35.7500 Du        
     34 ****       217.0000  45.7500  36.0000 Du        
     35 ****       217.0000  45.7500  36.2500 Du        
     36 ****       217.0000  46.0000  35.0000 Du        
     37 ****       217.0000  46.0000  35.2500 Du        
     38 ****       217.0000  46.0000  35.5000 Du        
     39 ****       217.0000  46.0000  35.7500 Du        
     40 ****       217.0000  46.0000  36.0000 Du        
     41 ****       217.0000  46.0000  36.2500 Du        
     42 ****       217.0000  46.2500  35.0000 Du        
     43 ****       217.0000  46.2500  35.2500 Du        
     44 ****       217.0000  46.2500  35.5000 Du        
     45 ****       217.0000  46.2500  35.7500 Du        
     46 ****       217.0000  46.2500  36.0000 Du        
     47 ****       217.0000  46.2500  36.2500 Du        
     48 ****       217.0000  46.5000  35.7500 Du        
     49 ****       217.0000  46.5000  36.0000 Du        
     50 ****       217.0000  46.5000  36.2500 Du        
     51 ****       217.2500  45.5000  35.0000 Du        
     52 ****       217.2500  45.5000  35.2500 Du        
     53 ****       217.2500  45.5000  35.5000 Du        
     54 ****       217.2500  45.5000  35.7500 Du        
     55 ****       217.2500  45.7500  35.0000 Du        
     56 ****       217.2500  45.7500  35.2500 Du        
     57 ****       217.2500  45.7500  35.5000 Du        
     58 ****       217.2500  45.7500  35.7500 Du        
     59 ****       217.2500  45.7500  36.0000 Du        
     60 ****       217.2500  46.0000  34.7500 Du        
     61 ****       217.2500  46.0000  35.0000 Du        
     62 ****       217.2500  46.0000  35.2500 Du        
     63 ****       217.2500  46.0000  35.5000 Du        
     64 ****       217.2500  46.0000  35.7500 Du        
     65 ****       217.2500  46.0000  36.0000 Du        
     66 ****       217.2500  46.2500  35.0000 Du        
     67 ****       217.2500  46.2500  35.2500 Du        
     68 ****       217.2500  46.2500  35.5000 Du        
     69 ****       217.2500  46.2500  35.7500 Du        
     70 ****       217.2500  46.2500  36.0000 Du        
     71 ****       217.2500  46.2500  36.2500 Du        
     72 ****       217.2500  46.5000  35.0000 Du        
     73 ****       217.2500  46.5000  35.2500 Du        
     74 ****       217.2500  46.5000  35.5000 Du        
     75 ****       217.2500  46.5000  35.7500 Du        
     76 ****       217.2500  46.5000  36.0000 Du        
     77 ****       217.2500  46.5000  36.2500 Du        
     78 ****       217.2500  46.7500  35.2500 Du        
     79 ****       217.2500  46.7500  35.7500 Du        
     80 ****       217.2500  46.7500  36.0000 Du        
     81 ****       217.2500  46.7500  36.2500 Du        
     82 ****       217.5000  45.5000  35.0000 Du        
     83 ****       217.5000  45.5000  35.2500 Du        
     84 ****       217.5000  45.7500  34.7500 Du        
     85 ****       217.5000  45.7500  35.0000 Du        
     86 ****       217.5000  45.7500  35.2500 Du        
     87 ****       217.5000  45.7500  35.5000 Du        
     88 ****       217.5000  45.7500  35.7500 Du        
     89 ****       217.5000  46.0000  34.7500 Du        
     90 ****       217.5000  46.0000  35.0000 Du        
     91 ****       217.5000  46.0000  35.2500 Du        
     92 ****       217.5000  46.0000  35.5000 Du        
     93 ****       217.5000  46.0000  35.7500 Du        
     94 ****       217.5000  46.2500  34.7500 Du        
     95 ****       217.5000  46.2500  35.0000 Du        
     96 ****       217.5000  46.2500  35.2500 Du        
     97 ****       217.5000  46.2500  35.5000 Du        
     98 ****       217.5000  46.2500  35.7500 Du        
     99 ****       217.5000  46.5000  35.0000 Du        
    100 ****       217.5000  46.5000  35.2500 Du        
    101 ****       217.5000  46.5000  35.5000 Du        
    102 ****       217.5000  46.5000  35.7500 Du        
    103 ****       217.5000  46.5000  36.0000 Du        
    104 ****       217.5000  46.7500  35.2500 Du        
    105 ****       217.5000  46.7500  35.5000 Du        
    106 ****       217.5000  46.7500  35.7500 Du        
    107 ****       217.5000  46.7500  36.0000 Du        
    108 ****       217.7500  45.2500  35.0000 Du        
    109 ****       217.7500  45.2500  35.2500 Du        
    110 ****       217.7500  45.5000  34.7500 Du        
    111 ****       217.7500  45.5000  35.0000 Du        
    112 ****       217.7500  45.5000  35.2500 Du        
    113 ****       217.7500  45.5000  35.5000 Du        
    114 ****       217.7500  45.5000  35.7500 Du        
    115 ****       217.7500  45.7500  34.7500 Du        
    116 ****       217.7500  45.7500  35.0000 Du        
    117 ****       217.7500  45.7500  35.2500 Du        
    118 ****       217.7500  45.7500  35.5000 Du        
    119 ****       217.7500  45.7500  35.7500 Du        
    120 ****       217.7500  45.7500  36.0000 Du        
    121 ****       217.7500  46.0000  34.7500 Du        
    122 ****       217.7500  46.0000  35.0000 Du        
    123 ****       217.7500  46.0000  35.2500 Du        
    124 ****       217.7500  46.0000  35.5000 Du        
    125 ****       217.7500  46.0000  35.7500 Du        
    126 ****       217.7500  46.2500  34.7500 Du        
    127 ****       217.7500  46.2500  35.0000 Du        
    128 ****       217.7500  46.2500  35.2500 Du        
    129 ****       217.7500  46.2500  35.5000 Du        
    130 ****       217.7500  46.2500  35.7500 Du        
    131 ****       217.7500  46.5000  35.0000 Du        
    132 ****       217.7500  46.5000  35.2500 Du        
    133 ****       217.7500  46.5000  35.5000 Du        
    134 ****       217.7500  46.5000  35.7500 Du        
    135 ****       217.7500  46.5000  36.0000 Du        
    136 ****       217.7500  46.7500  35.0000 Du        
    137 ****       217.7500  46.7500  35.2500 Du        
    138 ****       217.7500  46.7500  35.5000 Du        
    139 ****       217.7500  46.7500  35.7500 Du        
    140 ****       217.7500  46.7500  36.0000 Du        
    141 ****       217.7500  47.0000  35.0000 Du        
    142 ****       217.7500  47.0000  35.2500 Du        
    143 ****       217.7500  47.0000  35.5000 Du        
    144 ****       217.7500  47.0000  35.7500 Du        
    145 ****       217.7500  47.0000  36.0000 Du        
    146 ****       218.0000  41.7500  37.2500 Du        
    147 ****       218.0000  45.0000  35.0000 Du        
    148 ****       218.0000  45.0000  35.2500 Du        
    149 ****       218.0000  45.2500  34.7500 Du        
    150 ****       218.0000  45.2500  35.0000 Du        
    151 ****       218.0000  45.2500  35.2500 Du        
    152 ****       218.0000  45.2500  35.5000 Du        
    153 ****       218.0000  45.5000  34.7500 Du        
    154 ****       218.0000  45.5000  35.0000 Du        
    155 ****       218.0000  45.5000  35.2500 Du        
    156 ****       218.0000  45.5000  35.5000 Du        
    157 ****       218.0000  45.7500  34.7500 Du        
    158 ****       218.0000  45.7500  35.0000 Du        
    159 ****       218.0000  45.7500  35.2500 Du        
    160 ****       218.0000  45.7500  35.5000 Du        
    161 ****       218.0000  45.7500  35.7500 Du        
    162 ****       218.0000  46.0000  34.7500 Du        
    163 ****       218.0000  46.0000  35.0000 Du        
    164 ****       218.0000  46.0000  35.2500 Du        
    165 ****       218.0000  46.0000  35.5000 Du        
    166 ****       218.0000  46.0000  35.7500 Du        
    167 ****       218.0000  46.0000  36.0000 Du        
    168 ****       218.0000  46.2500  34.7500 Du        
    169 ****       218.0000  46.2500  35.0000 Du        
    170 ****       218.0000  46.2500  35.2500 Du        
    171 ****       218.0000  46.2500  35.5000 Du        
    172 ****       218.0000  46.2500  35.7500 Du        
    173 ****       218.0000  46.5000  35.0000 Du        
    174 ****       218.0000  46.5000  35.2500 Du        
    175 ****       218.0000  46.5000  35.5000 Du        
    176 ****       218.0000  46.5000  35.7500 Du        
    177 ****       218.0000  46.5000  36.0000 Du        
    178 ****       218.0000  46.7500  35.0000 Du        
    179 ****       218.0000  46.7500  35.2500 Du        
    180 ****       218.0000  46.7500  35.5000 Du        
    181 ****       218.0000  46.7500  35.7500 Du        
    182 ****       218.0000  46.7500  36.0000 Du        
    183 ****       218.0000  47.0000  35.0000 Du        
    184 ****       218.0000  47.0000  35.2500 Du        
    185 ****       218.0000  47.0000  35.5000 Du        
    186 ****       218.0000  47.0000  35.7500 Du        
    187 ****       218.0000  47.0000  36.0000 Du        
    188 ****       218.0000  47.2500  35.2500 Du        
    189 ****       218.0000  47.2500  35.5000 Du        
    190 ****       218.0000  47.2500  35.7500 Du        
    191 ****       218.0000  47.2500  36.0000 Du        
    192 ****       218.0000  47.2500  36.2500 Du        
    193 ****       218.2500  41.7500  37.2500 Du        
    194 ****       218.2500  42.0000  36.7500 Du        
    195 ****       218.2500  42.0000  37.0000 Du        
    196 ****       218.2500  42.0000  37.2500 Du        
    197 ****       218.2500  45.0000  34.7500 Du        
    198 ****       218.2500  45.0000  35.0000 Du        
    199 ****       218.2500  45.2500  34.7500 Du        
    200 ****       218.2500  45.2500  35.0000 Du        
    201 ****       218.2500  45.2500  35.2500 Du        
    202 ****       218.2500  45.2500  35.5000 Du        
    203 ****       218.2500  45.5000  34.7500 Du        
    204 ****       218.2500  45.5000  35.0000 Du        
    205 ****       218.2500  45.5000  35.2500 Du        
    206 ****       218.2500  45.5000  35.5000 Du        
    207 ****       218.2500  45.5000  35.7500 Du        
    208 ****       218.2500  45.7500  34.7500 Du        
    209 ****       218.2500  45.7500  35.0000 Du        
    210 ****       218.2500  45.7500  35.2500 Du        
    211 ****       218.2500  45.7500  35.5000 Du        
    212 ****       218.2500  45.7500  35.7500 Du        
    213 ****       218.2500  46.0000  34.7500 Du        
    214 ****       218.2500  46.0000  35.0000 Du        
    215 ****       218.2500  46.0000  35.2500 Du        
    216 ****       218.2500  46.0000  35.5000 Du        
    217 ****       218.2500  46.0000  35.7500 Du        
    218 ****       218.2500  46.0000  36.0000 Du        
    219 ****       218.2500  46.2500  34.7500 Du        
    220 ****       218.2500  46.2500  35.0000 Du        
    221 ****       218.2500  46.2500  35.2500 Du        
    222 ****       218.2500  46.2500  35.5000 Du        
    223 ****       218.2500  46.2500  35.7500 Du        
    224 ****       218.2500  46.5000  35.0000 Du        
    225 ****       218.2500  46.5000  35.2500 Du        
    226 ****       218.2500  46.5000  35.5000 Du        
    227 ****       218.2500  46.5000  35.7500 Du        
    228 ****       218.2500  46.7500  35.0000 Du        
    229 ****       218.2500  46.7500  35.2500 Du        
    230 ****       218.2500  46.7500  35.5000 Du        
    231 ****       218.2500  46.7500  35.7500 Du        
    232 ****       218.2500  46.7500  36.0000 Du        
    233 ****       218.2500  47.0000  35.0000 Du        
    234 ****       218.2500  47.0000  35.2500 Du        
    235 ****       218.2500  47.0000  35.5000 Du        
    236 ****       218.2500  47.0000  35.7500 Du        
    237 ****       218.2500  47.0000  36.0000 Du        
    238 ****       218.2500  47.2500  35.0000 Du        
    239 ****       218.2500  47.2500  35.2500 Du        
    240 ****       218.2500  47.2500  35.5000 Du        
    241 ****       218.2500  47.2500  35.7500 Du        
    242 ****       218.2500  47.2500  36.0000 Du        
    243 ****       218.2500  47.5000  35.2500 Du        
    244 ****       218.2500  47.5000  35.5000 Du        
    245 ****       218.2500  47.5000  35.7500 Du        
    246 ****       218.2500  47.5000  36.0000 Du        
    247 ****       218.2500  47.7500  35.5000 Du        
    248 ****       218.2500  47.7500  35.7500 Du        
    249 ****       218.2500  47.7500  36.0000 Du        
    250 ****       218.2500  48.0000  35.7500 Du        
    251 ****       218.2500  48.0000  36.0000 Du        
    252 ****       218.2500  48.0000  36.2500 Du        
    253 ****       218.2500  48.2500  36.2500 Du        
    254 ****       218.5000  41.5000  32.7500 Du        
    255 ****       218.5000  41.7500  32.5000 Du        
    256 ****       218.5000  41.7500  32.7500 Du        
    257 ****       218.5000  42.0000  37.0000 Du        
    258 ****       218.5000  42.0000  37.2500 Du        
    259 ****       218.5000  44.7500  35.0000 Du        
    260 ****       218.5000  44.7500  35.2500 Du        
    261 ****       218.5000  45.0000  34.7500 Du        
    262 ****       218.5000  45.0000  35.0000 Du        
    263 ****       218.5000  45.0000  35.2500 Du        
    264 ****       218.5000  45.2500  34.7500 Du        
    265 ****       218.5000  45.2500  35.0000 Du        
    266 ****       218.5000  45.2500  35.2500 Du        
    267 ****       218.5000  45.5000  34.7500 Du        
    268 ****       218.5000  45.5000  35.0000 Du        
    269 ****       218.5000  45.5000  35.2500 Du        
    270 ****       218.5000  45.7500  34.7500 Du        
    271 ****       218.5000  45.7500  35.0000 Du        
    272 ****       218.5000  45.7500  35.2500 Du        
    273 ****       218.5000  45.7500  35.5000 Du        
    274 ****       218.5000  46.0000  35.0000 Du        
    275 ****       218.5000  46.0000  35.2500 Du        
    276 ****       218.5000  46.0000  35.5000 Du        
    277 ****       218.5000  46.0000  35.7500 Du        
    278 ****       218.5000  46.2500  35.0000 Du        
    279 ****       218.5000  46.2500  35.2500 Du        
    280 ****       218.5000  46.2500  35.5000 Du        
    281 ****       218.5000  46.2500  35.7500 Du        
    282 ****       218.5000  46.5000  35.0000 Du        
    283 ****       218.5000  46.5000  35.2500 Du        
    284 ****       218.5000  46.5000  35.5000 Du        
    285 ****       218.5000  46.5000  35.7500 Du        
    286 ****       218.5000  46.7500  35.0000 Du        
    287 ****       218.5000  46.7500  35.2500 Du        
    288 ****       218.5000  46.7500  35.5000 Du        
    289 ****       218.5000  46.7500  35.7500 Du        
    290 ****       218.5000  46.7500  36.0000 Du        
    291 ****       218.5000  47.0000  35.0000 Du        
    292 ****       218.5000  47.0000  35.2500 Du        
    293 ****       218.5000  47.0000  35.5000 Du        
    294 ****       218.5000  47.0000  35.7500 Du        
    295 ****       218.5000  47.0000  36.0000 Du        
    296 ****       218.5000  47.2500  35.0000 Du        
    297 ****       218.5000  47.2500  35.2500 Du        
    298 ****       218.5000  47.2500  35.5000 Du        
    299 ****       218.5000  47.2500  35.7500 Du        
    300 ****       218.5000  47.2500  36.0000 Du        
    301 ****       218.5000  47.5000  35.2500 Du        
    302 ****       218.5000  47.5000  35.5000 Du        
    303 ****       218.5000  47.5000  35.7500 Du        
    304 ****       218.5000  47.7500  35.2500 Du        
    305 ****       218.5000  47.7500  35.5000 Du        
    306 ****       218.5000  47.7500  35.7500 Du        
    307 ****       218.5000  47.7500  36.0000 Du        
    308 ****       218.5000  48.0000  35.2500 Du        
    309 ****       218.5000  48.0000  35.5000 Du        
    310 ****       218.5000  48.0000  35.7500 Du        
    311 ****       218.5000  48.0000  36.0000 Du        
    312 ****       218.5000  48.0000  36.2500 Du        
    313 ****       218.5000  48.2500  35.7500 Du        
    314 ****       218.5000  48.2500  36.0000 Du        
    315 ****       218.5000  48.2500  36.2500 Du        
    316 ****       218.5000  48.5000  35.7500 Du        
    317 ****       218.5000  48.5000  36.0000 Du        
    318 ****       218.5000  48.5000  36.2500 Du        
    319 ****       218.5000  48.5000  36.5000 Du        
    320 ****       218.5000  48.7500  35.7500 Du        
    321 ****       218.5000  48.7500  36.0000 Du        
    322 ****       218.5000  48.7500  36.2500 Du        
    323 ****       218.5000  49.0000  36.2500 Du        
    324 ****       218.7500  39.2500  33.5000 Du        
    325 ****       218.7500  39.5000  33.5000 Du        
    326 ****       218.7500  39.5000  33.7500 Du        
    327 ****       218.7500  39.7500  33.2500 Du        
    328 ****       218.7500  39.7500  33.5000 Du        
    329 ****       218.7500  39.7500  33.7500 Du        
    330 ****       218.7500  40.0000  33.2500 Du        
    331 ****       218.7500  40.0000  33.5000 Du        
    332 ****       218.7500  40.0000  33.7500 Du        
    333 ****       218.7500  40.2500  33.2500 Du        
    334 ****       218.7500  40.2500  33.5000 Du        
    335 ****       218.7500  40.2500  33.7500 Du        
    336 ****       218.7500  40.5000  33.2500 Du        
    337 ****       218.7500  40.5000  33.5000 Du        
    338 ****       218.7500  40.5000  33.7500 Du        
    339 ****       218.7500  40.7500  33.0000 Du        
    340 ****       218.7500  40.7500  33.2500 Du        
    341 ****       218.7500  40.7500  33.5000 Du        
    342 ****       218.7500  40.7500  33.7500 Du        
    343 ****       218.7500  41.0000  32.7500 Du        
    344 ****       218.7500  41.0000  33.0000 Du        
    345 ****       218.7500  41.0000  33.2500 Du        
    346 ****       218.7500  41.0000  33.5000 Du        
    347 ****       218.7500  41.0000  33.7500 Du        
    348 ****       218.7500  41.2500  32.5000 Du        
    349 ****       218.7500  41.2500  32.7500 Du        
    350 ****       218.7500  41.2500  33.0000 Du        
    351 ****       218.7500  41.2500  33.2500 Du        
    352 ****       218.7500  41.2500  33.5000 Du        
    353 ****       218.7500  41.2500  33.7500 Du        
    354 ****       218.7500  41.5000  32.2500 Du        
    355 ****       218.7500  41.5000  32.5000 Du        
    356 ****       218.7500  41.5000  32.7500 Du        
    357 ****       218.7500  41.5000  33.0000 Du        
    358 ****       218.7500  41.5000  33.2500 Du        
    359 ****       218.7500  41.5000  33.5000 Du        
    360 ****       218.7500  41.5000  33.7500 Du        
    361 ****       218.7500  41.5000  34.0000 Du        
    362 ****       218.7500  41.7500  32.2500 Du        
    363 ****       218.7500  41.7500  32.5000 Du        
    364 ****       218.7500  41.7500  32.7500 Du        
    365 ****       218.7500  41.7500  33.0000 Du        
    366 ****       218.7500  41.7500  33.2500 Du        
    367 ****       218.7500  41.7500  33.5000 Du        
    368 ****       218.7500  41.7500  33.7500 Du        
    369 ****       218.7500  41.7500  34.0000 Du        
    370 ****       218.7500  42.0000  32.2500 Du        
    371 ****       218.7500  42.0000  32.5000 Du        
    372 ****       218.7500  42.0000  32.7500 Du        
    373 ****       218.7500  42.0000  33.0000 Du        
    374 ****       218.7500  42.0000  33.2500 Du        
    375 ****       218.7500  42.0000  33.5000 Du        
    376 ****       218.7500  42.0000  33.7500 Du        
    377 ****       218.7500  42.0000  34.0000 Du        
    378 ****       218.7500  42.0000  34.2500 Du        
    379 ****       218.7500  42.2500  32.7500 Du        
    380 ****       218.7500  42.2500  33.0000 Du        
    381 ****       218.7500  42.2500  33.2500 Du        
    382 ****       218.7500  42.2500  33.5000 Du        
    383 ****       218.7500  42.2500  33.7500 Du        
    384 ****       218.7500  42.2500  34.0000 Du        
    385 ****       218.7500  42.2500  35.2500 Du        
    386 ****       218.7500  42.5000  32.7500 Du        
    387 ****       218.7500  42.5000  33.0000 Du        
    388 ****       218.7500  42.5000  33.2500 Du        
    389 ****       218.7500  42.5000  33.5000 Du        
    390 ****       218.7500  42.7500  33.0000 Du        
    391 ****       218.7500  42.7500  33.2500 Du        
    392 ****       218.7500  43.0000  33.2500 Du        
    393 ****       218.7500  43.5000  33.7500 Du        
    394 ****       218.7500  43.5000  34.0000 Du        
    395 ****       218.7500  43.7500  33.7500 Du        
    396 ****       218.7500  43.7500  34.0000 Du        
    397 ****       218.7500  43.7500  34.2500 Du        
    398 ****       218.7500  44.0000  33.7500 Du        
    399 ****       218.7500  44.0000  34.0000 Du        
    400 ****       218.7500  44.0000  34.2500 Du        
    401 ****       218.7500  44.0000  35.2500 Du        
    402 ****       218.7500  44.2500  34.2500 Du        
    403 ****       218.7500  44.2500  34.5000 Du        
    404 ****       218.7500  44.2500  34.7500 Du        
    405 ****       218.7500  44.2500  35.0000 Du        
    406 ****       218.7500  44.2500  35.2500 Du        
    407 ****       218.7500  44.5000  34.2500 Du        
    408 ****       218.7500  44.5000  34.5000 Du        
    409 ****       218.7500  44.5000  34.7500 Du        
    410 ****       218.7500  44.5000  35.0000 Du        
    411 ****       218.7500  44.5000  35.2500 Du        
    412 ****       218.7500  44.5000  35.5000 Du        
    413 ****       218.7500  44.5000  35.7500 Du        
    414 ****       218.7500  44.7500  34.2500 Du        
    415 ****       218.7500  44.7500  34.5000 Du        
    416 ****       218.7500  44.7500  34.7500 Du        
    417 ****       218.7500  44.7500  35.0000 Du        
    418 ****       218.7500  44.7500  35.2500 Du        
    419 ****       218.7500  44.7500  35.5000 Du        
    420 ****       218.7500  44.7500  35.7500 Du        
    421 ****       218.7500  45.0000  34.7500 Du        
    422 ****       218.7500  45.0000  35.0000 Du        
    423 ****       218.7500  45.0000  35.2500 Du        
    424 ****       218.7500  45.0000  35.5000 Du        
    425 ****       218.7500  45.2500  34.7500 Du        
    426 ****       218.7500  45.2500  35.0000 Du        
    427 ****       218.7500  45.2500  35.2500 Du        
    428 ****       218.7500  45.5000  34.7500 Du        
    429 ****       218.7500  45.5000  35.0000 Du        
    430 ****       218.7500  45.5000  35.2500 Du        
    431 ****       218.7500  45.7500  34.7500 Du        
    432 ****       218.7500  45.7500  35.0000 Du        
    433 ****       218.7500  45.7500  35.2500 Du        
    434 ****       218.7500  46.0000  34.7500 Du        
    435 ****       218.7500  46.0000  35.0000 Du        
    436 ****       218.7500  46.0000  35.2500 Du        
    437 ****       218.7500  46.0000  35.5000 Du        
    438 ****       218.7500  46.2500  35.0000 Du        
    439 ****       218.7500  46.2500  35.2500 Du        
    440 ****       218.7500  46.2500  35.5000 Du        
    441 ****       218.7500  46.2500  35.7500 Du        
    442 ****       218.7500  46.5000  35.0000 Du        
    443 ****       218.7500  46.5000  35.2500 Du        
    444 ****       218.7500  46.5000  35.5000 Du        
    445 ****       218.7500  46.5000  35.7500 Du        
    446 ****       218.7500  46.7500  35.0000 Du        
    447 ****       218.7500  46.7500  35.2500 Du        
    448 ****       218.7500  46.7500  35.5000 Du        
    449 ****       218.7500  46.7500  35.7500 Du        
    450 ****       218.7500  47.0000  35.0000 Du        
    451 ****       218.7500  47.0000  35.2500 Du        
    452 ****       218.7500  47.0000  35.5000 Du        
    453 ****       218.7500  47.0000  35.7500 Du        
    454 ****       218.7500  47.0000  36.0000 Du        
    455 ****       218.7500  47.2500  35.0000 Du        
    456 ****       218.7500  47.2500  35.2500 Du        
    457 ****       218.7500  47.2500  35.5000 Du        
    458 ****       218.7500  47.2500  35.7500 Du        
    459 ****       218.7500  47.2500  36.0000 Du        
    460 ****       218.7500  47.5000  35.2500 Du        
    461 ****       218.7500  47.5000  35.5000 Du        
    462 ****       218.7500  47.5000  35.7500 Du        
    463 ****       218.7500  47.5000  36.0000 Du        
    464 ****       218.7500  47.7500  35.2500 Du        
    465 ****       218.7500  47.7500  35.5000 Du        
    466 ****       218.7500  47.7500  35.7500 Du        
    467 ****       218.7500  47.7500  36.0000 Du        
    468 ****       218.7500  48.0000  35.2500 Du        
    469 ****       218.7500  48.0000  35.5000 Du        
    470 ****       218.7500  48.0000  35.7500 Du        
    471 ****       218.7500  48.0000  36.0000 Du        
    472 ****       218.7500  48.0000  36.2500 Du        
    473 ****       218.7500  48.2500  35.2500 Du        
    474 ****       218.7500  48.2500  35.5000 Du        
    475 ****       218.7500  48.2500  35.7500 Du        
    476 ****       218.7500  48.2500  36.0000 Du        
    477 ****       218.7500  48.2500  36.2500 Du        
    478 ****       218.7500  48.5000  35.5000 Du        
    479 ****       218.7500  48.5000  35.7500 Du        
    480 ****       218.7500  48.5000  36.0000 Du        
    481 ****       218.7500  48.5000  36.2500 Du        
    482 ****       218.7500  48.5000  36.5000 Du        
    483 ****       218.7500  48.7500  35.5000 Du        
    484 ****       218.7500  48.7500  35.7500 Du        
    485 ****       218.7500  48.7500  36.0000 Du        
    486 ****       218.7500  48.7500  36.2500 Du        
    487 ****       218.7500  48.7500  36.5000 Du        
    488 ****       218.7500  48.7500  36.7500 Du        
    489 ****       218.7500  49.0000  35.7500 Du        
    490 ****       218.7500  49.0000  36.0000 Du        
    491 ****       218.7500  49.0000  36.2500 Du        
    492 ****       218.7500  49.0000  36.5000 Du        
    493 ****       218.7500  49.0000  36.7500 Du        
    494 ****       218.7500  49.0000  37.0000 Du        
    495 ****       218.7500  49.2500  36.0000 Du        
    496 ****       218.7500  49.2500  36.2500 Du        
    497 ****       218.7500  49.2500  36.7500 Du        
    498 ****       219.0000  39.0000  33.2500 Du        
    499 ****       219.0000  39.0000  33.5000 Du        
    500 ****       219.0000  39.2500  33.2500 Du        
    501 ****       219.0000  39.2500  33.5000 Du        
    502 ****       219.0000  39.2500  33.7500 Du        
    503 ****       219.0000  39.5000  33.2500 Du        
    504 ****       219.0000  39.5000  33.5000 Du        
    505 ****       219.0000  39.5000  33.7500 Du        
    506 ****       219.0000  39.7500  33.2500 Du        
    507 ****       219.0000  39.7500  33.5000 Du        
    508 ****       219.0000  39.7500  33.7500 Du        
    509 ****       219.0000  40.0000  33.2500 Du        
    510 ****       219.0000  40.0000  33.5000 Du        
    511 ****       219.0000  40.0000  33.7500 Du        
    512 ****       219.0000  40.0000  34.0000 Du        
    513 ****       219.0000  40.2500  33.0000 Du        
    514 ****       219.0000  40.2500  33.2500 Du        
    515 ****       219.0000  40.2500  33.5000 Du        
    516 ****       219.0000  40.2500  33.7500 Du        
    517 ****       219.0000  40.2500  34.0000 Du        
    518 ****       219.0000  40.5000  33.0000 Du        
    519 ****       219.0000  40.5000  33.2500 Du        
    520 ****       219.0000  40.5000  33.5000 Du        
    521 ****       219.0000  40.5000  33.7500 Du        
    522 ****       219.0000  40.5000  34.0000 Du        
    523 ****       219.0000  40.7500  32.7500 Du        
    524 ****       219.0000  40.7500  33.0000 Du        
    525 ****       219.0000  40.7500  33.2500 Du        
    526 ****       219.0000  40.7500  33.5000 Du        
    527 ****       219.0000  40.7500  33.7500 Du        
    528 ****       219.0000  40.7500  34.0000 Du        
    529 ****       219.0000  41.0000  32.5000 Du        
    530 ****       219.0000  41.0000  32.7500 Du        
    531 ****       219.0000  41.0000  33.0000 Du        
    532 ****       219.0000  41.0000  33.2500 Du        
    533 ****       219.0000  41.0000  33.5000 Du        
    534 ****       219.0000  41.0000  33.7500 Du        
    535 ****       219.0000  41.0000  34.0000 Du        
    536 ****       219.0000  41.0000  34.2500 Du        
    537 ****       219.0000  41.2500  32.2500 Du        
    538 ****       219.0000  41.2500  32.5000 Du        
    539 ****       219.0000  41.2500  32.7500 Du        
    540 ****       219.0000  41.2500  33.0000 Du        
    541 ****       219.0000  41.2500  33.2500 Du        
    542 ****       219.0000  41.2500  33.5000 Du        
    543 ****       219.0000  41.2500  33.7500 Du        
    544 ****       219.0000  41.2500  34.0000 Du        
    545 ****       219.0000  41.2500  34.2500 Du        
    546 ****       219.0000  41.5000  32.2500 Du        
    547 ****       219.0000  41.5000  32.5000 Du        
    548 ****       219.0000  41.5000  32.7500 Du        
    549 ****       219.0000  41.5000  33.0000 Du        
    550 ****       219.0000  41.5000  33.2500 Du        
    551 ****       219.0000  41.5000  33.5000 Du        
    552 ****       219.0000  41.5000  33.7500 Du        
    553 ****       219.0000  41.5000  34.0000 Du        
    554 ****       219.0000  41.5000  34.2500 Du        
    555 ****       219.0000  41.7500  32.2500 Du        
    556 ****       219.0000  41.7500  32.5000 Du        
    557 ****       219.0000  41.7500  32.7500 Du        
    558 ****       219.0000  41.7500  33.0000 Du        
    559 ****       219.0000  41.7500  33.2500 Du        
    560 ****       219.0000  41.7500  33.5000 Du        
    561 ****       219.0000  41.7500  33.7500 Du        
    562 ****       219.0000  41.7500  34.0000 Du        
    563 ****       219.0000  41.7500  34.2500 Du        
    564 ****       219.0000  41.7500  34.5000 Du        
    565 ****       219.0000  41.7500  34.7500 Du        
    566 ****       219.0000  42.0000  32.2500 Du        
    567 ****       219.0000  42.0000  32.5000 Du        
    568 ****       219.0000  42.0000  32.7500 Du        
    569 ****       219.0000  42.0000  33.0000 Du        
    570 ****       219.0000  42.0000  33.2500 Du        
    571 ****       219.0000  42.0000  33.5000 Du        
    572 ****       219.0000  42.0000  33.7500 Du        
    573 ****       219.0000  42.0000  34.0000 Du        
    574 ****       219.0000  42.0000  34.2500 Du        
    575 ****       219.0000  42.0000  34.5000 Du        
    576 ****       219.0000  42.0000  34.7500 Du        
    577 ****       219.0000  42.0000  35.0000 Du        
    578 ****       219.0000  42.2500  32.5000 Du        
    579 ****       219.0000  42.2500  32.7500 Du        
    580 ****       219.0000  42.2500  33.0000 Du        
    581 ****       219.0000  42.2500  33.2500 Du        
    582 ****       219.0000  42.2500  33.5000 Du        
    583 ****       219.0000  42.2500  33.7500 Du        
    584 ****       219.0000  42.2500  34.0000 Du        
    585 ****       219.0000  42.2500  34.2500 Du        
    586 ****       219.0000  42.2500  34.5000 Du        
    587 ****       219.0000  42.2500  34.7500 Du        
    588 ****       219.0000  42.2500  35.0000 Du        
    589 ****       219.0000  42.2500  35.2500 Du        
    590 ****       219.0000  42.5000  32.7500 Du        
    591 ****       219.0000  42.5000  33.0000 Du        
    592 ****       219.0000  42.5000  33.2500 Du        
    593 ****       219.0000  42.5000  33.5000 Du        
    594 ****       219.0000  42.5000  33.7500 Du        
    595 ****       219.0000  42.5000  34.0000 Du        
    596 ****       219.0000  42.5000  34.2500 Du        
    597 ****       219.0000  42.5000  34.5000 Du        
    598 ****       219.0000  42.5000  34.7500 Du        
    599 ****       219.0000  42.5000  35.0000 Du        
    600 ****       219.0000  42.7500  33.0000 Du        
    601 ****       219.0000  42.7500  33.2500 Du        
    602 ****       219.0000  42.7500  33.5000 Du        
    603 ****       219.0000  42.7500  33.7500 Du        
    604 ****       219.0000  42.7500  34.0000 Du        
    605 ****       219.0000  42.7500  34.2500 Du        
    606 ****       219.0000  42.7500  34.5000 Du        
    607 ****       219.0000  42.7500  34.7500 Du        
    608 ****       219.0000  42.7500  35.0000 Du        
    609 ****       219.0000  43.0000  33.0000 Du        
    610 ****       219.0000  43.0000  33.2500 Du        
    611 ****       219.0000  43.0000  33.5000 Du        
    612 ****       219.0000  43.0000  33.7500 Du        
    613 ****       219.0000  43.0000  34.0000 Du        
    614 ****       219.0000  43.0000  34.2500 Du        
    615 ****       219.0000  43.0000  34.5000 Du        
    616 ****       219.0000  43.0000  34.7500 Du        
    617 ****       219.0000  43.0000  35.0000 Du        
    618 ****       219.0000  43.0000  35.2500 Du        
    619 ****       219.0000  43.2500  33.2500 Du        
    620 ****       219.0000  43.2500  33.5000 Du        
    621 ****       219.0000  43.2500  33.7500 Du        
    622 ****       219.0000  43.2500  34.0000 Du        
    623 ****       219.0000  43.2500  34.2500 Du        
    624 ****       219.0000  43.2500  34.5000 Du        
    625 ****       219.0000  43.2500  34.7500 Du        
    626 ****       219.0000  43.2500  35.0000 Du        
    627 ****       219.0000  43.5000  33.5000 Du        
    628 ****       219.0000  43.5000  33.7500 Du        
    629 ****       219.0000  43.5000  34.0000 Du        
    630 ****       219.0000  43.5000  34.2500 Du        
    631 ****       219.0000  43.5000  34.5000 Du        
    632 ****       219.0000  43.5000  34.7500 Du        
    633 ****       219.0000  43.5000  35.0000 Du        
    634 ****       219.0000  43.5000  35.2500 Du        
    635 ****       219.0000  43.7500  33.5000 Du        
    636 ****       219.0000  43.7500  33.7500 Du        
    637 ****       219.0000  43.7500  34.0000 Du        
    638 ****       219.0000  43.7500  34.2500 Du        
    639 ****       219.0000  43.7500  34.5000 Du        
    640 ****       219.0000  43.7500  34.7500 Du        
    641 ****       219.0000  43.7500  35.0000 Du        
    642 ****       219.0000  43.7500  35.2500 Du        
    643 ****       219.0000  44.0000  33.7500 Du        
    644 ****       219.0000  44.0000  34.0000 Du        
    645 ****       219.0000  44.0000  34.2500 Du        
    646 ****       219.0000  44.0000  34.5000 Du        
    647 ****       219.0000  44.0000  34.7500 Du        
    648 ****       219.0000  44.0000  35.0000 Du        
    649 ****       219.0000  44.0000  35.2500 Du        
    650 ****       219.0000  44.2500  34.0000 Du        
    651 ****       219.0000  44.2500  34.2500 Du        
    652 ****       219.0000  44.2500  34.5000 Du        
    653 ****       219.0000  44.2500  34.7500 Du        
    654 ****       219.0000  44.2500  35.0000 Du        
    655 ****       219.0000  44.2500  35.2500 Du        
    656 ****       219.0000  44.5000  34.0000 Du        
    657 ****       219.0000  44.5000  34.2500 Du        
    658 ****       219.0000  44.5000  34.5000 Du        
    659 ****       219.0000  44.5000  34.7500 Du        
    660 ****       219.0000  44.5000  35.0000 Du        
    661 ****       219.0000  44.5000  35.2500 Du        
    662 ****       219.0000  44.5000  35.5000 Du        
    663 ****       219.0000  44.5000  35.7500 Du        
    664 ****       219.0000  44.7500  34.2500 Du        
    665 ****       219.0000  44.7500  34.5000 Du        
    666 ****       219.0000  44.7500  34.7500 Du        
    667 ****       219.0000  44.7500  35.0000 Du        
    668 ****       219.0000  44.7500  35.2500 Du        
    669 ****       219.0000  44.7500  35.5000 Du        
    670 ****       219.0000  44.7500  35.7500 Du        
    671 ****       219.0000  45.0000  34.5000 Du        
    672 ****       219.0000  45.0000  34.7500 Du        
    673 ****       219.0000  45.0000  35.0000 Du        
    674 ****       219.0000  45.0000  35.2500 Du        
    675 ****       219.0000  45.0000  35.5000 Du        
    676 ****       219.0000  45.0000  35.7500 Du        
    677 ****       219.0000  45.2500  34.7500 Du        
    678 ****       219.0000  45.2500  35.0000 Du        
    679 ****       219.0000  45.2500  35.2500 Du        
    680 ****       219.0000  45.5000  34.7500 Du        
    681 ****       219.0000  45.5000  35.0000 Du        
    682 ****       219.0000  45.5000  35.2500 Du        
    683 ****       219.0000  45.7500  34.7500 Du        
    684 ****       219.0000  45.7500  35.0000 Du        
    685 ****       219.0000  45.7500  35.2500 Du        
    686 ****       219.0000  46.0000  34.7500 Du        
    687 ****       219.0000  46.0000  35.0000 Du        
    688 ****       219.0000  46.0000  35.2500 Du        
    689 ****       219.0000  46.0000  35.5000 Du        
    690 ****       219.0000  46.2500  35.0000 Du        
    691 ****       219.0000  46.2500  35.2500 Du        
    692 ****       219.0000  46.2500  35.5000 Du        
    693 ****       219.0000  46.5000  35.0000 Du        
    694 ****       219.0000  46.5000  35.2500 Du        
    695 ****       219.0000  46.5000  35.5000 Du        
    696 ****       219.0000  46.7500  35.0000 Du        
    697 ****       219.0000  46.7500  35.2500 Du        
    698 ****       219.0000  46.7500  35.5000 Du        
    699 ****       219.0000  46.7500  35.7500 Du        
    700 ****       219.0000  47.0000  35.0000 Du        
    701 ****       219.0000  47.0000  35.2500 Du        
    702 ****       219.0000  47.0000  35.5000 Du        
    703 ****       219.0000  47.0000  35.7500 Du        
    704 ****       219.0000  47.2500  35.0000 Du        
    705 ****       219.0000  47.2500  35.2500 Du        
    706 ****       219.0000  47.2500  35.5000 Du        
    707 ****       219.0000  47.2500  35.7500 Du        
    708 ****       219.0000  47.2500  36.0000 Du        
    709 ****       219.0000  47.5000  35.2500 Du        
    710 ****       219.0000  47.5000  35.5000 Du        
    711 ****       219.0000  47.5000  35.7500 Du        
    712 ****       219.0000  47.5000  36.0000 Du        
    713 ****       219.0000  47.7500  35.2500 Du        
    714 ****       219.0000  47.7500  35.5000 Du        
    715 ****       219.0000  47.7500  35.7500 Du        
    716 ****       219.0000  47.7500  36.0000 Du        
    717 ****       219.0000  48.0000  35.2500 Du        
    718 ****       219.0000  48.0000  35.5000 Du        
    719 ****       219.0000  48.0000  35.7500 Du        
    720 ****       219.0000  48.0000  36.0000 Du        
    721 ****       219.0000  48.0000  36.2500 Du        
    722 ****       219.0000  48.2500  35.2500 Du        
    723 ****       219.0000  48.2500  35.5000 Du        
    724 ****       219.0000  48.2500  35.7500 Du        
    725 ****       219.0000  48.2500  36.0000 Du        
    726 ****       219.0000  48.2500  36.2500 Du        
    727 ****       219.0000  48.5000  35.2500 Du        
    728 ****       219.0000  48.5000  35.5000 Du        
    729 ****       219.0000  48.5000  35.7500 Du        
    730 ****       219.0000  48.5000  36.0000 Du        
    731 ****       219.0000  48.5000  36.2500 Du        
    732 ****       219.0000  48.5000  36.5000 Du        
    733 ****       219.0000  48.7500  35.5000 Du        
    734 ****       219.0000  48.7500  35.7500 Du        
    735 ****       219.0000  48.7500  36.0000 Du        
    736 ****       219.0000  48.7500  36.2500 Du        
    737 ****       219.0000  48.7500  36.5000 Du        
    738 ****       219.0000  49.0000  35.5000 Du        
    739 ****       219.0000  49.0000  35.7500 Du        
    740 ****       219.0000  49.0000  36.0000 Du        
    741 ****       219.0000  49.0000  36.2500 Du        
    742 ****       219.0000  49.0000  36.5000 Du        
    743 ****       219.0000  49.0000  36.7500 Du        
    744 ****       219.0000  49.0000  37.0000 Du        
    745 ****       219.0000  49.2500  35.7500 Du        
    746 ****       219.0000  49.2500  36.0000 Du        
    747 ****       219.0000  49.2500  36.2500 Du        
    748 ****       219.0000  49.2500  36.5000 Du        
    749 ****       219.0000  49.2500  36.7500 Du        
    750 ****       219.0000  49.2500  37.0000 Du        
    751 ****       219.0000  49.5000  36.2500 Du        
    752 ****       219.0000  49.5000  36.7500 Du        
    753 ****       219.0000  49.5000  37.0000 Du        
    754 ****       219.2500  38.7500  33.2500 Du        
    755 ****       219.2500  39.0000  33.2500 Du        
    756 ****       219.2500  39.0000  33.5000 Du        
    757 ****       219.2500  39.2500  33.2500 Du        
    758 ****       219.2500  39.2500  33.5000 Du        
    759 ****       219.2500  39.2500  33.7500 Du        
    760 ****       219.2500  39.5000  33.2500 Du        
    761 ****       219.2500  39.5000  33.5000 Du        
    762 ****       219.2500  39.5000  33.7500 Du        
    763 ****       219.2500  39.7500  33.0000 Du        
    764 ****       219.2500  39.7500  33.2500 Du        
    765 ****       219.2500  39.7500  33.5000 Du        
    766 ****       219.2500  39.7500  33.7500 Du        
    767 ****       219.2500  40.0000  33.0000 Du        
    768 ****       219.2500  40.0000  33.2500 Du        
    769 ****       219.2500  40.0000  33.5000 Du        
    770 ****       219.2500  40.0000  33.7500 Du        
    771 ****       219.2500  40.2500  33.0000 Du        
    772 ****       219.2500  40.2500  33.2500 Du        
    773 ****       219.2500  40.2500  33.5000 Du        
    774 ****       219.2500  40.2500  33.7500 Du        
    775 ****       219.2500  40.5000  32.7500 Du        
    776 ****       219.2500  40.5000  33.0000 Du        
    777 ****       219.2500  40.5000  33.2500 Du        
    778 ****       219.2500  40.5000  33.5000 Du        
    779 ****       219.2500  40.5000  33.7500 Du        
    780 ****       219.2500  40.5000  34.0000 Du        
    781 ****       219.2500  40.7500  32.7500 Du        
    782 ****       219.2500  40.7500  33.0000 Du        
    783 ****       219.2500  40.7500  33.2500 Du        
    784 ****       219.2500  40.7500  33.5000 Du        
    785 ****       219.2500  40.7500  33.7500 Du        
    786 ****       219.2500  40.7500  34.0000 Du        
    787 ****       219.2500  41.0000  32.5000 Du        
    788 ****       219.2500  41.0000  32.7500 Du        
    789 ****       219.2500  41.0000  33.0000 Du        
    790 ****       219.2500  41.0000  33.2500 Du        
    791 ****       219.2500  41.0000  33.5000 Du        
    792 ****       219.2500  41.0000  33.7500 Du        
    793 ****       219.2500  41.0000  34.0000 Du        
    794 ****       219.2500  41.0000  34.2500 Du        
    795 ****       219.2500  41.2500  32.2500 Du        
    796 ****       219.2500  41.2500  32.5000 Du        
    797 ****       219.2500  41.2500  32.7500 Du        
    798 ****       219.2500  41.2500  33.0000 Du        
    799 ****       219.2500  41.2500  33.2500 Du        
    800 ****       219.2500  41.2500  33.5000 Du        
    801 ****       219.2500  41.2500  33.7500 Du        
    802 ****       219.2500  41.2500  34.0000 Du        
    803 ****       219.2500  41.2500  34.2500 Du        
    804 ****       219.2500  41.5000  32.2500 Du        
    805 ****       219.2500  41.5000  32.5000 Du        
    806 ****       219.2500  41.5000  32.7500 Du        
    807 ****       219.2500  41.5000  33.0000 Du        
    808 ****       219.2500  41.5000  33.2500 Du        
    809 ****       219.2500  41.5000  33.5000 Du        
    810 ****       219.2500  41.5000  33.7500 Du        
    811 ****       219.2500  41.5000  34.0000 Du        
    812 ****       219.2500  41.5000  34.2500 Du        
    813 ****       219.2500  41.7500  32.2500 Du        
    814 ****       219.2500  41.7500  32.5000 Du        
    815 ****       219.2500  41.7500  32.7500 Du        
    816 ****       219.2500  41.7500  33.0000 Du        
    817 ****       219.2500  41.7500  33.2500 Du        
    818 ****       219.2500  41.7500  33.5000 Du        
    819 ****       219.2500  41.7500  33.7500 Du        
    820 ****       219.2500  41.7500  34.0000 Du        
    821 ****       219.2500  41.7500  34.2500 Du        
    822 ****       219.2500  41.7500  34.5000 Du        
    823 ****       219.2500  42.0000  32.2500 Du        
    824 ****       219.2500  42.0000  32.5000 Du        
    825 ****       219.2500  42.0000  32.7500 Du        
    826 ****       219.2500  42.0000  33.0000 Du        
    827 ****       219.2500  42.0000  33.2500 Du        
    828 ****       219.2500  42.0000  33.5000 Du        
    829 ****       219.2500  42.0000  33.7500 Du        
    830 ****       219.2500  42.0000  34.0000 Du        
    831 ****       219.2500  42.0000  34.2500 Du        
    832 ****       219.2500  42.0000  34.5000 Du        
    833 ****       219.2500  42.0000  34.7500 Du        
    834 ****       219.2500  42.2500  32.5000 Du        
    835 ****       219.2500  42.2500  32.7500 Du        
    836 ****       219.2500  42.2500  33.0000 Du        
    837 ****       219.2500  42.2500  33.2500 Du        
    838 ****       219.2500  42.2500  33.5000 Du        
    839 ****       219.2500  42.2500  33.7500 Du        
    840 ****       219.2500  42.2500  34.0000 Du        
    841 ****       219.2500  42.2500  34.2500 Du        
    842 ****       219.2500  42.2500  34.5000 Du        
    843 ****       219.2500  42.2500  34.7500 Du        
    844 ****       219.2500  42.5000  32.7500 Du        
    845 ****       219.2500  42.5000  33.0000 Du        
    846 ****       219.2500  42.5000  33.2500 Du        
    847 ****       219.2500  42.5000  33.5000 Du        
    848 ****       219.2500  42.5000  33.7500 Du        
    849 ****       219.2500  42.5000  34.0000 Du        
    850 ****       219.2500  42.5000  34.2500 Du        
    851 ****       219.2500  42.5000  34.5000 Du        
    852 ****       219.2500  42.5000  34.7500 Du        
    853 ****       219.2500  42.7500  32.7500 Du        
    854 ****       219.2500  42.7500  33.0000 Du        
    855 ****       219.2500  42.7500  33.2500 Du        
    856 ****       219.2500  42.7500  33.5000 Du        
    857 ****       219.2500  42.7500  33.7500 Du        
    858 ****       219.2500  42.7500  34.0000 Du        
    859 ****       219.2500  42.7500  34.2500 Du        
    860 ****       219.2500  42.7500  34.5000 Du        
    861 ****       219.2500  42.7500  34.7500 Du        
    862 ****       219.2500  42.7500  35.0000 Du        
    863 ****       219.2500  43.0000  33.0000 Du        
    864 ****       219.2500  43.0000  33.2500 Du        
    865 ****       219.2500  43.0000  33.5000 Du        
    866 ****       219.2500  43.0000  33.7500 Du        
    867 ****       219.2500  43.0000  34.0000 Du        
    868 ****       219.2500  43.0000  34.2500 Du        
    869 ****       219.2500  43.0000  34.5000 Du        
    870 ****       219.2500  43.0000  34.7500 Du        
    871 ****       219.2500  43.0000  35.0000 Du        
    872 ****       219.2500  43.2500  33.0000 Du        
    873 ****       219.2500  43.2500  33.2500 Du        
    874 ****       219.2500  43.2500  33.5000 Du        
    875 ****       219.2500  43.2500  33.7500 Du        
    876 ****       219.2500  43.2500  34.0000 Du        
    877 ****       219.2500  43.2500  34.2500 Du        
    878 ****       219.2500  43.2500  34.5000 Du        
    879 ****       219.2500  43.2500  34.7500 Du        
    880 ****       219.2500  43.2500  35.0000 Du        
    881 ****       219.2500  43.5000  33.2500 Du        
    882 ****       219.2500  43.5000  33.5000 Du        
    883 ****       219.2500  43.5000  33.7500 Du        
    884 ****       219.2500  43.5000  34.0000 Du        
    885 ****       219.2500  43.5000  34.2500 Du        
    886 ****       219.2500  43.5000  34.5000 Du        
    887 ****       219.2500  43.5000  34.7500 Du        
    888 ****       219.2500  43.5000  35.0000 Du        
    889 ****       219.2500  43.5000  35.2500 Du        
    890 ****       219.2500  43.7500  33.5000 Du        
    891 ****       219.2500  43.7500  33.7500 Du        
    892 ****       219.2500  43.7500  34.0000 Du        
    893 ****       219.2500  43.7500  34.2500 Du        
    894 ****       219.2500  43.7500  34.5000 Du        
    895 ****       219.2500  43.7500  34.7500 Du        
    896 ****       219.2500  43.7500  35.0000 Du        
    897 ****       219.2500  43.7500  35.2500 Du        
    898 ****       219.2500  44.0000  33.5000 Du        
    899 ****       219.2500  44.0000  33.7500 Du        
    900 ****       219.2500  44.0000  34.0000 Du        
    901 ****       219.2500  44.0000  34.2500 Du        
    902 ****       219.2500  44.0000  34.5000 Du        
    903 ****       219.2500  44.0000  34.7500 Du        
    904 ****       219.2500  44.0000  35.0000 Du        
    905 ****       219.2500  44.0000  35.2500 Du        
    906 ****       219.2500  44.2500  33.7500 Du        
    907 ****       219.2500  44.2500  34.0000 Du        
    908 ****       219.2500  44.2500  34.2500 Du        
    909 ****       219.2500  44.2500  34.5000 Du        
    910 ****       219.2500  44.2500  34.7500 Du        
    911 ****       219.2500  44.2500  35.0000 Du        
    912 ****       219.2500  44.2500  35.2500 Du        
    913 ****       219.2500  44.5000  34.0000 Du        
    914 ****       219.2500  44.5000  34.2500 Du        
    915 ****       219.2500  44.5000  34.5000 Du        
    916 ****       219.2500  44.5000  34.7500 Du        
    917 ****       219.2500  44.5000  35.0000 Du        
    918 ****       219.2500  44.5000  35.2500 Du        
    919 ****       219.2500  44.5000  35.5000 Du        
    920 ****       219.2500  44.5000  35.7500 Du        
    921 ****       219.2500  44.7500  34.2500 Du        
    922 ****       219.2500  44.7500  34.5000 Du        
    923 ****       219.2500  44.7500  34.7500 Du        
    924 ****       219.2500  44.7500  35.0000 Du        
    925 ****       219.2500  44.7500  35.2500 Du        
    926 ****       219.2500  44.7500  35.5000 Du        
    927 ****       219.2500  44.7500  35.7500 Du        
    928 ****       219.2500  45.0000  34.5000 Du        
    929 ****       219.2500  45.0000  34.7500 Du        
    930 ****       219.2500  45.0000  35.0000 Du        
    931 ****       219.2500  45.0000  35.2500 Du        
    932 ****       219.2500  45.0000  35.5000 Du        
    933 ****       219.2500  45.2500  34.7500 Du        
    934 ****       219.2500  45.2500  35.0000 Du        
    935 ****       219.2500  45.2500  35.2500 Du        
    936 ****       219.2500  45.2500  35.5000 Du        
    937 ****       219.2500  45.5000  34.7500 Du        
    938 ****       219.2500  45.5000  35.0000 Du        
    939 ****       219.2500  45.7500  35.0000 Du        
    940 ****       219.2500  45.7500  35.2500 Du        
    941 ****       219.2500  46.0000  35.0000 Du        
    942 ****       219.2500  46.0000  35.2500 Du        
    943 ****       219.2500  46.2500  35.0000 Du        
    944 ****       219.2500  46.2500  35.2500 Du        
    945 ****       219.2500  46.5000  35.0000 Du        
    946 ****       219.2500  46.5000  35.2500 Du        
    947 ****       219.2500  46.7500  35.2500 Du        
    948 ****       219.2500  47.0000  35.0000 Du        
    949 ****       219.2500  47.0000  35.2500 Du        
    950 ****       219.2500  47.0000  35.5000 Du        
    951 ****       219.2500  47.2500  35.2500 Du        
    952 ****       219.2500  47.2500  35.5000 Du        
    953 ****       219.2500  47.2500  35.7500 Du        
    954 ****       219.2500  47.5000  35.2500 Du        
    955 ****       219.2500  47.5000  35.5000 Du        
    956 ****       219.2500  47.5000  35.7500 Du        
    957 ****       219.2500  47.7500  35.2500 Du        
    958 ****       219.2500  47.7500  35.5000 Du        
    959 ****       219.2500  47.7500  35.7500 Du        
    960 ****       219.2500  47.7500  36.0000 Du        
    961 ****       219.2500  48.0000  35.2500 Du        
    962 ****       219.2500  48.0000  35.5000 Du        
    963 ****       219.2500  48.0000  35.7500 Du        
    964 ****       219.2500  48.0000  36.0000 Du        
    965 ****       219.2500  48.2500  35.5000 Du        
    966 ****       219.2500  48.2500  35.7500 Du        
    967 ****       219.2500  48.2500  36.0000 Du        
    968 ****       219.2500  48.2500  36.2500 Du        
    969 ****       219.2500  48.5000  35.2500 Du        
    970 ****       219.2500  48.5000  35.5000 Du        
    971 ****       219.2500  48.5000  35.7500 Du        
    972 ****       219.2500  48.5000  36.0000 Du        
    973 ****       219.2500  48.5000  36.2500 Du        
    974 ****       219.2500  48.7500  35.5000 Du        
    975 ****       219.2500  48.7500  35.7500 Du        
    976 ****       219.2500  48.7500  36.0000 Du        
    977 ****       219.2500  48.7500  36.2500 Du        
    978 ****       219.2500  48.7500  36.5000 Du        
    979 ****       219.2500  49.0000  35.5000 Du        
    980 ****       219.2500  49.0000  35.7500 Du        
    981 ****       219.2500  49.0000  36.0000 Du        
    982 ****       219.2500  49.0000  36.2500 Du        
    983 ****       219.2500  49.0000  36.5000 Du        
    984 ****       219.2500  49.0000  36.7500 Du        
    985 ****       219.2500  49.2500  36.0000 Du        
    986 ****       219.2500  49.2500  36.2500 Du        
    987 ****       219.2500  49.2500  36.5000 Du        
    988 ****       219.2500  49.2500  36.7500 Du        
    989 ****       219.2500  49.2500  37.0000 Du        
    990 ****       219.2500  49.5000  36.2500 Du        
    991 ****       219.2500  49.5000  36.5000 Du        
    992 ****       219.2500  49.5000  36.7500 Du        
    993 ****       219.2500  49.5000  37.0000 Du        
    994 ****       219.2500  49.5000  37.2500 Du        
    995 ****       219.2500  49.7500  37.0000 Du        
    996 ****       219.2500  49.7500  37.2500 Du        
    997 ****       219.5000  39.0000  33.2500 Du        
    998 ****       219.5000  39.0000  33.5000 Du        
    999 ****       219.5000  39.2500  33.2500 Du        
   1000 ****       219.5000  39.2500  33.5000 Du        
   1001 ****       219.5000  39.5000  33.2500 Du        
   1002 ****       219.5000  39.5000  33.5000 Du        
   1003 ****       219.5000  39.7500  33.0000 Du        
   1004 ****       219.5000  39.7500  33.2500 Du        
   1005 ****       219.5000  39.7500  33.5000 Du        
   1006 ****       219.5000  39.7500  33.7500 Du        
   1007 ****       219.5000  40.0000  33.0000 Du        
   1008 ****       219.5000  40.0000  33.2500 Du        
   1009 ****       219.5000  40.0000  33.5000 Du        
   1010 ****       219.5000  40.0000  33.7500 Du        
   1011 ****       219.5000  40.2500  32.7500 Du        
   1012 ****       219.5000  40.2500  33.0000 Du        
   1013 ****       219.5000  40.2500  33.2500 Du        
   1014 ****       219.5000  40.2500  33.5000 Du        
   1015 ****       219.5000  40.2500  33.7500 Du        
   1016 ****       219.5000  40.5000  32.7500 Du        
   1017 ****       219.5000  40.5000  33.0000 Du        
   1018 ****       219.5000  40.5000  33.2500 Du        
   1019 ****       219.5000  40.5000  33.5000 Du        
   1020 ****       219.5000  40.5000  33.7500 Du        
   1021 ****       219.5000  40.7500  32.5000 Du        
   1022 ****       219.5000  40.7500  32.7500 Du        
   1023 ****       219.5000  40.7500  33.0000 Du        
   1024 ****       219.5000  40.7500  33.2500 Du        
   1025 ****       219.5000  40.7500  33.5000 Du        
   1026 ****       219.5000  40.7500  33.7500 Du        
   1027 ****       219.5000  40.7500  34.0000 Du        
   1028 ****       219.5000  41.0000  32.2500 Du        
   1029 ****       219.5000  41.0000  32.5000 Du        
   1030 ****       219.5000  41.0000  32.7500 Du        
   1031 ****       219.5000  41.0000  33.0000 Du        
   1032 ****       219.5000  41.0000  33.2500 Du        
   1033 ****       219.5000  41.0000  33.5000 Du        
   1034 ****       219.5000  41.0000  33.7500 Du        
   1035 ****       219.5000  41.0000  34.0000 Du        
   1036 ****       219.5000  41.2500  32.2500 Du        
   1037 ****       219.5000  41.2500  32.5000 Du        
   1038 ****       219.5000  41.2500  32.7500 Du        
   1039 ****       219.5000  41.2500  33.0000 Du        
   1040 ****       219.5000  41.2500  33.2500 Du        
   1041 ****       219.5000  41.2500  33.5000 Du        
   1042 ****       219.5000  41.2500  33.7500 Du        
   1043 ****       219.5000  41.2500  34.0000 Du        
   1044 ****       219.5000  41.2500  34.2500 Du        
   1045 ****       219.5000  41.5000  32.0000 Du        
   1046 ****       219.5000  41.5000  32.2500 Du        
   1047 ****       219.5000  41.5000  32.5000 Du        
   1048 ****       219.5000  41.5000  32.7500 Du        
   1049 ****       219.5000  41.5000  33.0000 Du        
   1050 ****       219.5000  41.5000  33.2500 Du        
   1051 ****       219.5000  41.5000  33.5000 Du        
   1052 ****       219.5000  41.5000  33.7500 Du        
   1053 ****       219.5000  41.5000  34.0000 Du        
   1054 ****       219.5000  41.5000  34.2500 Du        
   1055 ****       219.5000  41.7500  32.0000 Du        
   1056 ****       219.5000  41.7500  32.2500 Du        
   1057 ****       219.5000  41.7500  32.5000 Du        
   1058 ****       219.5000  41.7500  32.7500 Du        
   1059 ****       219.5000  41.7500  33.0000 Du        
   1060 ****       219.5000  41.7500  33.2500 Du        
   1061 ****       219.5000  41.7500  33.5000 Du        
   1062 ****       219.5000  41.7500  33.7500 Du        
   1063 ****       219.5000  41.7500  34.0000 Du        
   1064 ****       219.5000  41.7500  34.2500 Du        
   1065 ****       219.5000  42.0000  32.2500 Du        
   1066 ****       219.5000  42.0000  32.5000 Du        
   1067 ****       219.5000  42.0000  32.7500 Du        
   1068 ****       219.5000  42.0000  33.0000 Du        
   1069 ****       219.5000  42.0000  33.2500 Du        
   1070 ****       219.5000  42.0000  33.5000 Du        
   1071 ****       219.5000  42.0000  33.7500 Du        
   1072 ****       219.5000  42.0000  34.0000 Du        
   1073 ****       219.5000  42.0000  34.2500 Du        
   1074 ****       219.5000  42.2500  32.2500 Du        
   1075 ****       219.5000  42.2500  32.5000 Du        
   1076 ****       219.5000  42.2500  32.7500 Du        
   1077 ****       219.5000  42.2500  33.0000 Du        
   1078 ****       219.5000  42.2500  33.2500 Du        
   1079 ****       219.5000  42.2500  33.5000 Du        
   1080 ****       219.5000  42.2500  33.7500 Du        
   1081 ****       219.5000  42.2500  34.0000 Du        
   1082 ****       219.5000  42.2500  34.2500 Du        
   1083 ****       219.5000  42.2500  34.5000 Du        
   1084 ****       219.5000  42.5000  32.5000 Du        
   1085 ****       219.5000  42.5000  32.7500 Du        
   1086 ****       219.5000  42.5000  33.0000 Du        
   1087 ****       219.5000  42.5000  33.2500 Du        
   1088 ****       219.5000  42.5000  33.5000 Du        
   1089 ****       219.5000  42.5000  33.7500 Du        
   1090 ****       219.5000  42.5000  34.0000 Du        
   1091 ****       219.5000  42.5000  34.2500 Du        
   1092 ****       219.5000  42.7500  32.7500 Du        
   1093 ****       219.5000  42.7500  33.0000 Du        
   1094 ****       219.5000  42.7500  33.2500 Du        
   1095 ****       219.5000  42.7500  33.5000 Du        
   1096 ****       219.5000  42.7500  33.7500 Du        
   1097 ****       219.5000  42.7500  34.0000 Du        
   1098 ****       219.5000  42.7500  34.2500 Du        
   1099 ****       219.5000  43.0000  33.0000 Du        
   1100 ****       219.5000  43.0000  33.2500 Du        
   1101 ****       219.5000  43.0000  33.5000 Du        
   1102 ****       219.5000  43.0000  33.7500 Du        
   1103 ****       219.5000  43.0000  34.0000 Du        
   1104 ****       219.5000  43.0000  34.2500 Du        
   1105 ****       219.5000  43.2500  33.0000 Du        
   1106 ****       219.5000  43.2500  33.2500 Du        
   1107 ****       219.5000  43.2500  33.5000 Du        
   1108 ****       219.5000  43.2500  33.7500 Du        
   1109 ****       219.5000  43.2500  34.0000 Du        
   1110 ****       219.5000  43.2500  34.2500 Du        
   1111 ****       219.5000  43.5000  33.2500 Du        
   1112 ****       219.5000  43.5000  33.5000 Du        
   1113 ****       219.5000  43.5000  33.7500 Du        
   1114 ****       219.5000  43.5000  34.0000 Du        
   1115 ****       219.5000  43.5000  34.2500 Du        
   1116 ****       219.5000  43.5000  34.5000 Du        
   1117 ****       219.5000  43.7500  33.5000 Du        
   1118 ****       219.5000  43.7500  33.7500 Du        
   1119 ****       219.5000  43.7500  34.0000 Du        
   1120 ****       219.5000  43.7500  34.2500 Du        
   1121 ****       219.5000  43.7500  34.5000 Du        
   1122 ****       219.5000  44.0000  33.7500 Du        
   1123 ****       219.5000  44.0000  34.0000 Du        
   1124 ****       219.5000  44.0000  34.2500 Du        
   1125 ****       219.5000  44.0000  34.5000 Du        
   1126 ****       219.5000  44.0000  34.7500 Du        
   1127 ****       219.5000  44.2500  34.0000 Du        
   1128 ****       219.5000  44.2500  34.2500 Du        
   1129 ****       219.5000  44.2500  34.5000 Du        
   1130 ****       219.5000  44.2500  34.7500 Du        
   1131 ****       219.5000  44.5000  34.0000 Du        
   1132 ****       219.5000  44.5000  34.2500 Du        
   1133 ****       219.5000  44.5000  34.5000 Du        
   1134 ****       219.5000  44.5000  34.7500 Du        
   1135 ****       219.5000  44.5000  35.0000 Du        
   1136 ****       219.5000  44.7500  34.2500 Du        
   1137 ****       219.5000  44.7500  34.7500 Du        
   1138 ****       219.5000  44.7500  35.0000 Du        
   1139 ****       219.5000  48.5000  35.5000 Du        
   1140 ****       219.5000  48.5000  35.7500 Du        
   1141 ****       219.5000  48.5000  36.0000 Du        
   1142 ****       219.5000  48.7500  35.7500 Du        
   1143 ****       219.5000  48.7500  36.0000 Du        
   1144 ****       219.5000  48.7500  36.2500 Du        
   1145 ****       219.5000  49.0000  35.7500 Du        
   1146 ****       219.5000  49.0000  36.0000 Du        
   1147 ****       219.5000  49.0000  36.2500 Du        
   1148 ****       219.5000  49.2500  36.2500 Du        
   1149 ****       219.5000  49.7500  37.0000 Du        
   1150 ****       219.7500  39.2500  33.2500 Du        
   1151 ****       219.7500  39.2500  33.5000 Du        
   1152 ****       219.7500  39.5000  33.2500 Du        
   1153 ****       219.7500  39.5000  33.5000 Du        
   1154 ****       219.7500  39.7500  33.0000 Du        
   1155 ****       219.7500  39.7500  33.2500 Du        
   1156 ****       219.7500  39.7500  33.5000 Du        
   1157 ****       219.7500  40.0000  33.0000 Du        
   1158 ****       219.7500  40.0000  33.2500 Du        
   1159 ****       219.7500  40.0000  33.5000 Du        
   1160 ****       219.7500  40.0000  33.7500 Du        
   1161 ****       219.7500  40.2500  32.7500 Du        
   1162 ****       219.7500  40.2500  33.0000 Du        
   1163 ****       219.7500  40.2500  33.2500 Du        
   1164 ****       219.7500  40.2500  33.5000 Du        
   1165 ****       219.7500  40.2500  33.7500 Du        
   1166 ****       219.7500  40.5000  32.7500 Du        
   1167 ****       219.7500  40.5000  33.0000 Du        
   1168 ****       219.7500  40.5000  33.2500 Du        
   1169 ****       219.7500  40.5000  33.5000 Du        
   1170 ****       219.7500  40.5000  33.7500 Du        
   1171 ****       219.7500  40.7500  32.5000 Du        
   1172 ****       219.7500  40.7500  32.7500 Du        
   1173 ****       219.7500  40.7500  33.0000 Du        
   1174 ****       219.7500  40.7500  33.2500 Du        
   1175 ****       219.7500  40.7500  33.5000 Du        
   1176 ****       219.7500  40.7500  33.7500 Du        
   1177 ****       219.7500  41.0000  32.2500 Du        
   1178 ****       219.7500  41.0000  32.5000 Du        
   1179 ****       219.7500  41.0000  32.7500 Du        
   1180 ****       219.7500  41.0000  33.0000 Du        
   1181 ****       219.7500  41.0000  33.2500 Du        
   1182 ****       219.7500  41.0000  33.5000 Du        
   1183 ****       219.7500  41.0000  33.7500 Du        
   1184 ****       219.7500  41.0000  34.0000 Du        
   1185 ****       219.7500  41.2500  32.2500 Du        
   1186 ****       219.7500  41.2500  32.5000 Du        
   1187 ****       219.7500  41.2500  32.7500 Du        
   1188 ****       219.7500  41.2500  33.0000 Du        
   1189 ****       219.7500  41.2500  33.2500 Du        
   1190 ****       219.7500  41.2500  33.5000 Du        
   1191 ****       219.7500  41.2500  33.7500 Du        
   1192 ****       219.7500  41.2500  34.0000 Du        
   1193 ****       219.7500  41.5000  32.0000 Du        
   1194 ****       219.7500  41.5000  32.2500 Du        
   1195 ****       219.7500  41.5000  32.5000 Du        
   1196 ****       219.7500  41.5000  32.7500 Du        
   1197 ****       219.7500  41.5000  33.0000 Du        
   1198 ****       219.7500  41.5000  33.2500 Du        
   1199 ****       219.7500  41.5000  33.5000 Du        
   1200 ****       219.7500  41.5000  33.7500 Du        
   1201 ****       219.7500  41.5000  34.0000 Du        
   1202 ****       219.7500  41.7500  32.0000 Du        
   1203 ****       219.7500  41.7500  32.2500 Du        
   1204 ****       219.7500  41.7500  32.5000 Du        
   1205 ****       219.7500  41.7500  32.7500 Du        
   1206 ****       219.7500  41.7500  33.0000 Du        
   1207 ****       219.7500  41.7500  33.2500 Du        
   1208 ****       219.7500  41.7500  33.5000 Du        
   1209 ****       219.7500  41.7500  33.7500 Du        
   1210 ****       219.7500  41.7500  34.0000 Du        
   1211 ****       219.7500  42.0000  32.0000 Du        
   1212 ****       219.7500  42.0000  32.2500 Du        
   1213 ****       219.7500  42.0000  32.5000 Du        
   1214 ****       219.7500  42.0000  32.7500 Du        
   1215 ****       219.7500  42.0000  33.0000 Du        
   1216 ****       219.7500  42.0000  33.2500 Du        
   1217 ****       219.7500  42.0000  33.5000 Du        
   1218 ****       219.7500  42.0000  33.7500 Du        
   1219 ****       219.7500  42.0000  34.0000 Du        
   1220 ****       219.7500  42.0000  34.2500 Du        
   1221 ****       219.7500  42.2500  32.2500 Du        
   1222 ****       219.7500  42.2500  32.5000 Du        
   1223 ****       219.7500  42.2500  32.7500 Du        
   1224 ****       219.7500  42.2500  33.0000 Du        
   1225 ****       219.7500  42.2500  33.2500 Du        
   1226 ****       219.7500  42.2500  33.5000 Du        
   1227 ****       219.7500  42.2500  33.7500 Du        
   1228 ****       219.7500  42.2500  34.0000 Du        
   1229 ****       219.7500  42.2500  34.2500 Du        
   1230 ****       219.7500  42.5000  32.5000 Du        
   1231 ****       219.7500  42.5000  32.7500 Du        
   1232 ****       219.7500  42.5000  33.0000 Du        
   1233 ****       219.7500  42.5000  33.2500 Du        
   1234 ****       219.7500  42.5000  33.5000 Du        
   1235 ****       219.7500  42.5000  33.7500 Du        
   1236 ****       219.7500  42.5000  34.0000 Du        
   1237 ****       219.7500  42.7500  32.7500 Du        
   1238 ****       219.7500  42.7500  33.0000 Du        
   1239 ****       219.7500  42.7500  33.2500 Du        
   1240 ****       219.7500  42.7500  33.5000 Du        
   1241 ****       219.7500  42.7500  33.7500 Du        
   1242 ****       219.7500  42.7500  34.0000 Du        
   1243 ****       219.7500  42.7500  34.2500 Du        
   1244 ****       219.7500  43.0000  32.7500 Du        
   1245 ****       219.7500  43.0000  33.0000 Du        
   1246 ****       219.7500  43.0000  33.2500 Du        
   1247 ****       219.7500  43.0000  33.5000 Du        
   1248 ****       219.7500  43.0000  33.7500 Du        
   1249 ****       219.7500  43.0000  34.0000 Du        
   1250 ****       219.7500  43.0000  34.2500 Du        
   1251 ****       219.7500  43.2500  33.0000 Du        
   1252 ****       219.7500  43.2500  33.2500 Du        
   1253 ****       219.7500  43.2500  33.5000 Du        
   1254 ****       219.7500  43.2500  33.7500 Du        
   1255 ****       219.7500  43.2500  34.0000 Du        
   1256 ****       219.7500  43.2500  34.2500 Du        
   1257 ****       219.7500  43.5000  33.2500 Du        
   1258 ****       219.7500  43.5000  33.5000 Du        
   1259 ****       219.7500  43.5000  33.7500 Du        
   1260 ****       219.7500  43.5000  34.0000 Du        
   1261 ****       219.7500  43.5000  34.2500 Du        
   1262 ****       219.7500  43.7500  33.2500 Du        
   1263 ****       219.7500  43.7500  33.5000 Du        
   1264 ****       219.7500  43.7500  33.7500 Du        
   1265 ****       219.7500  43.7500  34.0000 Du        
   1266 ****       219.7500  43.7500  34.2500 Du        
   1267 ****       219.7500  44.0000  33.7500 Du        
   1268 ****       219.7500  44.0000  34.0000 Du        
   1269 ****       219.7500  44.0000  34.2500 Du        
   1270 ****       219.7500  44.0000  34.5000 Du        
   1271 ****       219.7500  44.2500  33.7500 Du        
   1272 ****       219.7500  44.2500  34.0000 Du        
   1273 ****       219.7500  44.2500  34.2500 Du        
   1274 ****       219.7500  44.2500  34.5000 Du        
   1275 ****       219.7500  44.5000  34.0000 Du        
   1276 ****       219.7500  44.5000  34.2500 Du        
   1277 ****       219.7500  44.5000  34.7500 Du        
   1278 ****       219.7500  44.7500  34.2500 Du        
   1279 ****       219.7500  44.7500  34.5000 Du        
   1280 ****       219.7500  44.7500  34.7500 Du        
   1281 ****       219.7500  44.7500  35.0000 Du        
   1282 ****       219.7500  45.0000  35.2500 Du        
   1283 ****       219.7500  46.0000  35.0000 Du        
   1284 ****       219.7500  46.2500  35.0000 Du        
   1285 ****       219.7500  48.5000  35.5000 Du        
   1286 ****       219.7500  48.5000  35.7500 Du        
   1287 ****       219.7500  48.7500  35.7500 Du        
   1288 ****       219.7500  48.7500  36.0000 Du        
   1289 ****       219.7500  49.0000  36.0000 Du        
   1290 ****       219.7500  49.0000  36.2500 Du        
   1291 ****       219.7500  49.2500  36.2500 Du        
   1292 ****       220.0000  39.7500  33.2500 Du        
   1293 ****       220.0000  39.7500  33.5000 Du        
   1294 ****       220.0000  40.0000  33.0000 Du        
   1295 ****       220.0000  40.0000  33.2500 Du        
   1296 ****       220.0000  40.0000  33.5000 Du        
   1297 ****       220.0000  40.2500  32.7500 Du        
   1298 ****       220.0000  40.2500  33.0000 Du        
   1299 ****       220.0000  40.2500  33.2500 Du        
   1300 ****       220.0000  40.2500  33.5000 Du        
   1301 ****       220.0000  40.5000  32.7500 Du        
   1302 ****       220.0000  40.5000  33.0000 Du        
   1303 ****       220.0000  40.5000  33.2500 Du        
   1304 ****       220.0000  40.5000  33.5000 Du        
   1305 ****       220.0000  40.5000  33.7500 Du        
   1306 ****       220.0000  40.7500  32.5000 Du        
   1307 ****       220.0000  40.7500  32.7500 Du        
   1308 ****       220.0000  40.7500  33.0000 Du        
   1309 ****       220.0000  40.7500  33.2500 Du        
   1310 ****       220.0000  40.7500  33.5000 Du        
   1311 ****       220.0000  40.7500  33.7500 Du        
   1312 ****       220.0000  41.0000  32.2500 Du        
   1313 ****       220.0000  41.0000  32.5000 Du        
   1314 ****       220.0000  41.0000  32.7500 Du        
   1315 ****       220.0000  41.0000  33.0000 Du        
   1316 ****       220.0000  41.0000  33.2500 Du        
   1317 ****       220.0000  41.0000  33.5000 Du        
   1318 ****       220.0000  41.0000  33.7500 Du        
   1319 ****       220.0000  41.2500  32.0000 Du        
   1320 ****       220.0000  41.2500  32.2500 Du        
   1321 ****       220.0000  41.2500  32.5000 Du        
   1322 ****       220.0000  41.2500  32.7500 Du        
   1323 ****       220.0000  41.2500  33.0000 Du        
   1324 ****       220.0000  41.2500  33.2500 Du        
   1325 ****       220.0000  41.2500  33.5000 Du        
   1326 ****       220.0000  41.2500  33.7500 Du        
   1327 ****       220.0000  41.5000  32.0000 Du        
   1328 ****       220.0000  41.5000  32.2500 Du        
   1329 ****       220.0000  41.5000  32.5000 Du        
   1330 ****       220.0000  41.5000  32.7500 Du        
   1331 ****       220.0000  41.5000  33.0000 Du        
   1332 ****       220.0000  41.5000  33.2500 Du        
   1333 ****       220.0000  41.5000  33.5000 Du        
   1334 ****       220.0000  41.5000  33.7500 Du        
   1335 ****       220.0000  41.5000  34.0000 Du        
   1336 ****       220.0000  41.7500  32.0000 Du        
   1337 ****       220.0000  41.7500  32.2500 Du        
   1338 ****       220.0000  41.7500  32.5000 Du        
   1339 ****       220.0000  41.7500  32.7500 Du        
   1340 ****       220.0000  41.7500  33.0000 Du        
   1341 ****       220.0000  41.7500  33.2500 Du        
   1342 ****       220.0000  41.7500  33.5000 Du        
   1343 ****       220.0000  41.7500  33.7500 Du        
   1344 ****       220.0000  41.7500  34.0000 Du        
   1345 ****       220.0000  42.0000  32.0000 Du        
   1346 ****       220.0000  42.0000  32.2500 Du        
   1347 ****       220.0000  42.0000  32.5000 Du        
   1348 ****       220.0000  42.0000  32.7500 Du        
   1349 ****       220.0000  42.0000  33.0000 Du        
   1350 ****       220.0000  42.0000  33.2500 Du        
   1351 ****       220.0000  42.0000  33.5000 Du        
   1352 ****       220.0000  42.0000  33.7500 Du        
   1353 ****       220.0000  42.0000  34.0000 Du        
   1354 ****       220.0000  42.2500  32.0000 Du        
   1355 ****       220.0000  42.2500  32.2500 Du        
   1356 ****       220.0000  42.2500  32.5000 Du        
   1357 ****       220.0000  42.2500  32.7500 Du        
   1358 ****       220.0000  42.2500  33.0000 Du        
   1359 ****       220.0000  42.2500  33.2500 Du        
   1360 ****       220.0000  42.2500  33.5000 Du        
   1361 ****       220.0000  42.2500  33.7500 Du        
   1362 ****       220.0000  42.2500  34.0000 Du        
   1363 ****       220.0000  42.5000  32.2500 Du        
   1364 ****       220.0000  42.5000  32.5000 Du        
   1365 ****       220.0000  42.5000  32.7500 Du        
   1366 ****       220.0000  42.5000  33.0000 Du        
   1367 ****       220.0000  42.5000  33.2500 Du        
   1368 ****       220.0000  42.5000  33.5000 Du        
   1369 ****       220.0000  42.5000  33.7500 Du        
   1370 ****       220.0000  42.5000  34.0000 Du        
   1371 ****       220.0000  42.7500  32.5000 Du        
   1372 ****       220.0000  42.7500  32.7500 Du        
   1373 ****       220.0000  42.7500  33.0000 Du        
   1374 ****       220.0000  42.7500  33.2500 Du        
   1375 ****       220.0000  42.7500  33.5000 Du        
   1376 ****       220.0000  42.7500  33.7500 Du        
   1377 ****       220.0000  42.7500  34.0000 Du        
   1378 ****       220.0000  43.0000  32.7500 Du        
   1379 ****       220.0000  43.0000  33.0000 Du        
   1380 ****       220.0000  43.0000  33.2500 Du        
   1381 ****       220.0000  43.0000  33.5000 Du        
   1382 ****       220.0000  43.0000  33.7500 Du        
   1383 ****       220.0000  43.0000  34.0000 Du        
   1384 ****       220.0000  43.2500  33.0000 Du        
   1385 ****       220.0000  43.2500  33.2500 Du        
   1386 ****       220.0000  43.2500  33.5000 Du        
   1387 ****       220.0000  43.2500  33.7500 Du        
   1388 ****       220.0000  43.2500  34.0000 Du        
   1389 ****       220.0000  43.2500  34.2500 Du        
   1390 ****       220.0000  43.5000  33.0000 Du        
   1391 ****       220.0000  43.5000  33.2500 Du        
   1392 ****       220.0000  43.5000  33.5000 Du        
   1393 ****       220.0000  43.5000  33.7500 Du        
   1394 ****       220.0000  43.5000  34.0000 Du        
   1395 ****       220.0000  43.5000  34.2500 Du        
   1396 ****       220.0000  43.7500  33.2500 Du        
   1397 ****       220.0000  43.7500  33.5000 Du        
   1398 ****       220.0000  43.7500  33.7500 Du        
   1399 ****       220.0000  43.7500  34.0000 Du        
   1400 ****       220.0000  43.7500  34.2500 Du        
   1401 ****       220.0000  44.0000  33.2500 Du        
   1402 ****       220.0000  44.0000  33.5000 Du        
   1403 ****       220.0000  44.0000  33.7500 Du        
   1404 ****       220.0000  44.0000  34.0000 Du        
   1405 ****       220.0000  44.0000  34.2500 Du        
   1406 ****       220.0000  44.2500  33.7500 Du        
   1407 ****       220.0000  44.2500  34.0000 Du        
   1408 ****       220.0000  44.2500  34.2500 Du        
   1409 ****       220.0000  44.5000  34.0000 Du        
   1410 ****       220.0000  44.7500  34.2500 Du        
   1411 ****       220.0000  47.0000  35.2500 Du        
   1412 ****       220.0000  47.2500  35.2500 Du        
   1413 ****       220.0000  49.0000  36.0000 Du        
   1414 ****       220.0000  49.0000  36.2500 Du        
   1415 ****       220.2500  40.0000  33.2500 Du        
   1416 ****       220.2500  40.2500  33.0000 Du        
   1417 ****       220.2500  40.2500  33.2500 Du        
   1418 ****       220.2500  40.2500  33.5000 Du        
   1419 ****       220.2500  40.5000  32.7500 Du        
   1420 ****       220.2500  40.5000  33.0000 Du        
   1421 ****       220.2500  40.5000  33.2500 Du        
   1422 ****       220.2500  40.5000  33.5000 Du        
   1423 ****       220.2500  40.7500  32.5000 Du        
   1424 ****       220.2500  40.7500  32.7500 Du        
   1425 ****       220.2500  40.7500  33.0000 Du        
   1426 ****       220.2500  40.7500  33.2500 Du        
   1427 ****       220.2500  40.7500  33.5000 Du        
   1428 ****       220.2500  40.7500  33.7500 Du        
   1429 ****       220.2500  41.0000  32.2500 Du        
   1430 ****       220.2500  41.0000  32.5000 Du        
   1431 ****       220.2500  41.0000  32.7500 Du        
   1432 ****       220.2500  41.0000  33.0000 Du        
   1433 ****       220.2500  41.0000  33.2500 Du        
   1434 ****       220.2500  41.0000  33.5000 Du        
   1435 ****       220.2500  41.0000  33.7500 Du        
   1436 ****       220.2500  41.2500  32.0000 Du        
   1437 ****       220.2500  41.2500  32.2500 Du        
   1438 ****       220.2500  41.2500  32.5000 Du        
   1439 ****       220.2500  41.2500  32.7500 Du        
   1440 ****       220.2500  41.2500  33.0000 Du        
   1441 ****       220.2500  41.2500  33.2500 Du        
   1442 ****       220.2500  41.2500  33.5000 Du        
   1443 ****       220.2500  41.2500  33.7500 Du        
   1444 ****       220.2500  41.5000  32.0000 Du        
   1445 ****       220.2500  41.5000  32.2500 Du        
   1446 ****       220.2500  41.5000  32.5000 Du        
   1447 ****       220.2500  41.5000  32.7500 Du        
   1448 ****       220.2500  41.5000  33.0000 Du        
   1449 ****       220.2500  41.5000  33.2500 Du        
   1450 ****       220.2500  41.5000  33.5000 Du        
   1451 ****       220.2500  41.5000  33.7500 Du        
   1452 ****       220.2500  41.7500  31.7500 Du        
   1453 ****       220.2500  41.7500  32.0000 Du        
   1454 ****       220.2500  41.7500  32.2500 Du        
   1455 ****       220.2500  41.7500  32.5000 Du        
   1456 ****       220.2500  41.7500  32.7500 Du        
   1457 ****       220.2500  41.7500  33.0000 Du        
   1458 ****       220.2500  41.7500  33.2500 Du        
   1459 ****       220.2500  41.7500  33.5000 Du        
   1460 ****       220.2500  41.7500  33.7500 Du        
   1461 ****       220.2500  42.0000  31.7500 Du        
   1462 ****       220.2500  42.0000  32.0000 Du        
   1463 ****       220.2500  42.0000  32.2500 Du        
   1464 ****       220.2500  42.0000  32.5000 Du        
   1465 ****       220.2500  42.0000  32.7500 Du        
   1466 ****       220.2500  42.0000  33.0000 Du        
   1467 ****       220.2500  42.0000  33.2500 Du        
   1468 ****       220.2500  42.0000  33.5000 Du        
   1469 ****       220.2500  42.0000  33.7500 Du        
   1470 ****       220.2500  42.2500  32.0000 Du        
   1471 ****       220.2500  42.2500  32.2500 Du        
   1472 ****       220.2500  42.2500  32.5000 Du        
   1473 ****       220.2500  42.2500  32.7500 Du        
   1474 ****       220.2500  42.2500  33.0000 Du        
   1475 ****       220.2500  42.2500  33.2500 Du        
   1476 ****       220.2500  42.2500  33.5000 Du        
   1477 ****       220.2500  42.2500  33.7500 Du        
   1478 ****       220.2500  42.5000  32.2500 Du        
   1479 ****       220.2500  42.5000  32.5000 Du        
   1480 ****       220.2500  42.5000  32.7500 Du        
   1481 ****       220.2500  42.5000  33.0000 Du        
   1482 ****       220.2500  42.5000  33.2500 Du        
   1483 ****       220.2500  42.5000  33.5000 Du        
   1484 ****       220.2500  42.5000  33.7500 Du        
   1485 ****       220.2500  42.7500  32.2500 Du        
   1486 ****       220.2500  42.7500  32.5000 Du        
   1487 ****       220.2500  42.7500  32.7500 Du        
   1488 ****       220.2500  42.7500  33.0000 Du        
   1489 ****       220.2500  42.7500  33.2500 Du        
   1490 ****       220.2500  42.7500  33.5000 Du        
   1491 ****       220.2500  42.7500  33.7500 Du        
   1492 ****       220.2500  43.0000  32.5000 Du        
   1493 ****       220.2500  43.0000  32.7500 Du        
   1494 ****       220.2500  43.0000  33.0000 Du        
   1495 ****       220.2500  43.0000  33.2500 Du        
   1496 ****       220.2500  43.0000  33.5000 Du        
   1497 ****       220.2500  43.0000  33.7500 Du        
   1498 ****       220.2500  43.2500  32.7500 Du        
   1499 ****       220.2500  43.2500  33.0000 Du        
   1500 ****       220.2500  43.2500  33.2500 Du        
   1501 ****       220.2500  43.2500  33.5000 Du        
   1502 ****       220.2500  43.2500  33.7500 Du        
   1503 ****       220.2500  43.2500  34.0000 Du        
   1504 ****       220.2500  43.5000  33.0000 Du        
   1505 ****       220.2500  43.5000  33.2500 Du        
   1506 ****       220.2500  43.5000  33.5000 Du        
   1507 ****       220.2500  43.5000  33.7500 Du        
   1508 ****       220.2500  43.7500  33.0000 Du        
   1509 ****       220.2500  43.7500  33.2500 Du        
   1510 ****       220.2500  43.7500  33.5000 Du        
   1511 ****       220.2500  43.7500  33.7500 Du        
   1512 ****       220.2500  43.7500  34.0000 Du        
   1513 ****       220.2500  44.0000  33.2500 Du        
   1514 ****       220.2500  44.0000  33.5000 Du        
   1515 ****       220.2500  44.0000  33.7500 Du        
   1516 ****       220.2500  44.0000  34.0000 Du        
   1517 ****       220.2500  44.0000  34.2500 Du        
   1518 ****       220.2500  44.2500  33.7500 Du        
   1519 ****       220.2500  44.2500  34.0000 Du        
   1520 ****       220.2500  47.2500  35.2500 Du        
   1521 ****       220.5000  40.7500  32.7500 Du        
   1522 ****       220.5000  40.7500  33.0000 Du        
   1523 ****       220.5000  40.7500  33.2500 Du        
   1524 ****       220.5000  41.0000  32.2500 Du        
   1525 ****       220.5000  41.0000  32.5000 Du        
   1526 ****       220.5000  41.0000  32.7500 Du        
   1527 ****       220.5000  41.0000  33.0000 Du        
   1528 ****       220.5000  41.0000  33.2500 Du        
   1529 ****       220.5000  41.0000  33.5000 Du        
   1530 ****       220.5000  41.2500  32.0000 Du        
   1531 ****       220.5000  41.2500  32.2500 Du        
   1532 ****       220.5000  41.2500  32.5000 Du        
   1533 ****       220.5000  41.2500  32.7500 Du        
   1534 ****       220.5000  41.2500  33.0000 Du        
   1535 ****       220.5000  41.2500  33.2500 Du        
   1536 ****       220.5000  41.2500  33.5000 Du        
   1537 ****       220.5000  41.5000  31.7500 Du        
   1538 ****       220.5000  41.5000  32.0000 Du        
   1539 ****       220.5000  41.5000  32.2500 Du        
   1540 ****       220.5000  41.5000  32.5000 Du        
   1541 ****       220.5000  41.5000  32.7500 Du        
   1542 ****       220.5000  41.5000  33.0000 Du        
   1543 ****       220.5000  41.5000  33.2500 Du        
   1544 ****       220.5000  41.5000  33.5000 Du        
   1545 ****       220.5000  41.7500  31.7500 Du        
   1546 ****       220.5000  41.7500  32.0000 Du        
   1547 ****       220.5000  41.7500  32.2500 Du        
   1548 ****       220.5000  41.7500  32.5000 Du        
   1549 ****       220.5000  41.7500  32.7500 Du        
   1550 ****       220.5000  41.7500  33.0000 Du        
   1551 ****       220.5000  41.7500  33.2500 Du        
   1552 ****       220.5000  41.7500  33.5000 Du        
   1553 ****       220.5000  42.0000  31.7500 Du        
   1554 ****       220.5000  42.0000  32.0000 Du        
   1555 ****       220.5000  42.0000  32.2500 Du        
   1556 ****       220.5000  42.0000  32.5000 Du        
   1557 ****       220.5000  42.0000  32.7500 Du        
   1558 ****       220.5000  42.0000  33.0000 Du        
   1559 ****       220.5000  42.0000  33.2500 Du        
   1560 ****       220.5000  42.0000  33.5000 Du        
   1561 ****       220.5000  42.2500  31.7500 Du        
   1562 ****       220.5000  42.2500  32.0000 Du        
   1563 ****       220.5000  42.2500  32.2500 Du        
   1564 ****       220.5000  42.2500  32.5000 Du        
   1565 ****       220.5000  42.2500  32.7500 Du        
   1566 ****       220.5000  42.2500  33.0000 Du        
   1567 ****       220.5000  42.2500  33.2500 Du        
   1568 ****       220.5000  42.2500  33.5000 Du        
   1569 ****       220.5000  42.5000  32.0000 Du        
   1570 ****       220.5000  42.5000  32.2500 Du        
   1571 ****       220.5000  42.5000  32.5000 Du        
   1572 ****       220.5000  42.5000  32.7500 Du        
   1573 ****       220.5000  42.5000  33.0000 Du        
   1574 ****       220.5000  42.5000  33.2500 Du        
   1575 ****       220.5000  42.5000  33.5000 Du        
   1576 ****       220.5000  42.7500  32.2500 Du        
   1577 ****       220.5000  42.7500  32.5000 Du        
   1578 ****       220.5000  42.7500  32.7500 Du        
   1579 ****       220.5000  42.7500  33.0000 Du        
   1580 ****       220.5000  42.7500  33.2500 Du        
   1581 ****       220.5000  42.7500  33.5000 Du        
   1582 ****       220.5000  43.0000  32.2500 Du        
   1583 ****       220.5000  43.0000  32.5000 Du        
   1584 ****       220.5000  43.0000  32.7500 Du        
   1585 ****       220.5000  43.0000  33.0000 Du        
   1586 ****       220.5000  43.0000  33.2500 Du        
   1587 ****       220.5000  43.0000  33.5000 Du        
   1588 ****       220.5000  43.0000  33.7500 Du        
   1589 ****       220.5000  43.2500  32.7500 Du        
   1590 ****       220.5000  43.2500  33.0000 Du        
   1591 ****       220.5000  43.2500  33.2500 Du        
   1592 ****       220.5000  43.2500  33.5000 Du        
   1593 ****       220.5000  43.2500  33.7500 Du        
   1594 ****       220.5000  43.5000  33.0000 Du        
   1595 ****       220.5000  43.5000  33.2500 Du        
   1596 ****       220.5000  43.5000  33.5000 Du        
   1597 ****       220.5000  43.5000  33.7500 Du        
   1598 ****       220.5000  43.7500  33.0000 Du        
   1599 ****       220.5000  43.7500  33.2500 Du        
   1600 ****       220.5000  43.7500  33.5000 Du        
   1601 ****       220.5000  43.7500  33.7500 Du        
   1602 ****       220.5000  44.0000  33.2500 Du        
   1603 ****       220.5000  44.0000  33.5000 Du        
   1604 ****       220.5000  44.0000  33.7500 Du        
   1605 ****       220.5000  44.0000  34.0000 Du        
   1606 ****       220.5000  44.2500  33.7500 Du        
   1607 ****       220.7500  41.2500  32.0000 Du        
   1608 ****       220.7500  41.2500  32.2500 Du        
   1609 ****       220.7500  41.2500  32.5000 Du        
   1610 ****       220.7500  41.2500  32.7500 Du        
   1611 ****       220.7500  41.2500  33.0000 Du        
   1612 ****       220.7500  41.2500  33.2500 Du        
   1613 ****       220.7500  41.5000  31.7500 Du        
   1614 ****       220.7500  41.5000  32.0000 Du        
   1615 ****       220.7500  41.5000  32.2500 Du        
   1616 ****       220.7500  41.5000  32.5000 Du        
   1617 ****       220.7500  41.5000  32.7500 Du        
   1618 ****       220.7500  41.5000  33.0000 Du        
   1619 ****       220.7500  41.5000  33.2500 Du        
   1620 ****       220.7500  41.7500  31.5000 Du        
   1621 ****       220.7500  41.7500  31.7500 Du        
   1622 ****       220.7500  41.7500  32.0000 Du        
   1623 ****       220.7500  41.7500  32.2500 Du        
   1624 ****       220.7500  41.7500  32.5000 Du        
   1625 ****       220.7500  41.7500  32.7500 Du        
   1626 ****       220.7500  41.7500  33.0000 Du        
   1627 ****       220.7500  41.7500  33.2500 Du        
   1628 ****       220.7500  41.7500  33.5000 Du        
   1629 ****       220.7500  42.0000  31.5000 Du        
   1630 ****       220.7500  42.0000  31.7500 Du        
   1631 ****       220.7500  42.0000  32.0000 Du        
   1632 ****       220.7500  42.0000  32.2500 Du        
   1633 ****       220.7500  42.0000  32.5000 Du        
   1634 ****       220.7500  42.0000  32.7500 Du        
   1635 ****       220.7500  42.0000  33.0000 Du        
   1636 ****       220.7500  42.0000  33.2500 Du        
   1637 ****       220.7500  42.0000  33.5000 Du        
   1638 ****       220.7500  42.2500  31.5000 Du        
   1639 ****       220.7500  42.2500  31.7500 Du        
   1640 ****       220.7500  42.2500  32.0000 Du        
   1641 ****       220.7500  42.2500  32.2500 Du        
   1642 ****       220.7500  42.2500  32.5000 Du        
   1643 ****       220.7500  42.2500  32.7500 Du        
   1644 ****       220.7500  42.2500  33.0000 Du        
   1645 ****       220.7500  42.2500  33.2500 Du        
   1646 ****       220.7500  42.2500  33.5000 Du        
   1647 ****       220.7500  42.5000  31.7500 Du        
   1648 ****       220.7500  42.5000  32.0000 Du        
   1649 ****       220.7500  42.5000  32.2500 Du        
   1650 ****       220.7500  42.5000  32.5000 Du        
   1651 ****       220.7500  42.5000  32.7500 Du        
   1652 ****       220.7500  42.5000  33.0000 Du        
   1653 ****       220.7500  42.5000  33.2500 Du        
   1654 ****       220.7500  42.5000  33.5000 Du        
   1655 ****       220.7500  42.7500  32.0000 Du        
   1656 ****       220.7500  42.7500  32.2500 Du        
   1657 ****       220.7500  42.7500  32.5000 Du        
   1658 ****       220.7500  42.7500  32.7500 Du        
   1659 ****       220.7500  42.7500  33.0000 Du        
   1660 ****       220.7500  42.7500  33.2500 Du        
   1661 ****       220.7500  42.7500  33.5000 Du        
   1662 ****       220.7500  43.0000  32.0000 Du        
   1663 ****       220.7500  43.0000  32.2500 Du        
   1664 ****       220.7500  43.0000  32.5000 Du        
   1665 ****       220.7500  43.0000  32.7500 Du        
   1666 ****       220.7500  43.0000  33.0000 Du        
   1667 ****       220.7500  43.0000  33.2500 Du        
   1668 ****       220.7500  43.0000  33.5000 Du        
   1669 ****       220.7500  43.2500  32.2500 Du        
   1670 ****       220.7500  43.2500  32.5000 Du        
   1671 ****       220.7500  43.2500  32.7500 Du        
   1672 ****       220.7500  43.2500  33.0000 Du        
   1673 ****       220.7500  43.2500  33.2500 Du        
   1674 ****       220.7500  43.2500  33.5000 Du        
   1675 ****       220.7500  43.2500  33.7500 Du        
   1676 ****       220.7500  43.5000  32.7500 Du        
   1677 ****       220.7500  43.5000  33.0000 Du        
   1678 ****       220.7500  43.5000  33.2500 Du        
   1679 ****       220.7500  43.5000  33.5000 Du        
   1680 ****       220.7500  43.5000  33.7500 Du        
   1681 ****       220.7500  43.7500  32.7500 Du        
   1682 ****       220.7500  43.7500  33.0000 Du        
   1683 ****       220.7500  43.7500  33.2500 Du        
   1684 ****       220.7500  43.7500  33.5000 Du        
   1685 ****       220.7500  43.7500  33.7500 Du        
   1686 ****       220.7500  44.0000  33.0000 Du        
   1687 ****       220.7500  44.0000  33.2500 Du        
   1688 ****       220.7500  44.0000  33.5000 Du        
   1689 ****       220.7500  44.0000  33.7500 Du        
   1690 ****       220.7500  44.2500  33.2500 Du        
   1691 ****       220.7500  44.2500  33.5000 Du        
   1692 ****       220.7500  44.2500  33.7500 Du        
   1693 ****       220.7500  47.7500  35.0000 Du        
   1694 ****       221.0000  41.5000  31.7500 Du        
   1695 ****       221.0000  41.5000  32.0000 Du        
   1696 ****       221.0000  41.5000  32.2500 Du        
   1697 ****       221.0000  41.5000  32.5000 Du        
   1698 ****       221.0000  41.5000  32.7500 Du        
   1699 ****       221.0000  41.7500  31.5000 Du        
   1700 ****       221.0000  41.7500  31.7500 Du        
   1701 ****       221.0000  41.7500  32.0000 Du        
   1702 ****       221.0000  41.7500  32.2500 Du        
   1703 ****       221.0000  41.7500  32.5000 Du        
   1704 ****       221.0000  41.7500  32.7500 Du        
   1705 ****       221.0000  41.7500  33.0000 Du        
   1706 ****       221.0000  41.7500  33.2500 Du        
   1707 ****       221.0000  42.0000  31.2500 Du        
   1708 ****       221.0000  42.0000  31.5000 Du        
   1709 ****       221.0000  42.0000  31.7500 Du        
   1710 ****       221.0000  42.0000  32.0000 Du        
   1711 ****       221.0000  42.0000  32.2500 Du        
   1712 ****       221.0000  42.0000  32.5000 Du        
   1713 ****       221.0000  42.0000  32.7500 Du        
   1714 ****       221.0000  42.0000  33.0000 Du        
   1715 ****       221.0000  42.0000  33.2500 Du        
   1716 ****       221.0000  42.2500  31.2500 Du        
   1717 ****       221.0000  42.2500  31.5000 Du        
   1718 ****       221.0000  42.2500  31.7500 Du        
   1719 ****       221.0000  42.2500  32.0000 Du        
   1720 ****       221.0000  42.2500  32.2500 Du        
   1721 ****       221.0000  42.2500  32.5000 Du        
   1722 ****       221.0000  42.2500  32.7500 Du        
   1723 ****       221.0000  42.2500  33.0000 Du        
   1724 ****       221.0000  42.2500  33.2500 Du        
   1725 ****       221.0000  42.5000  31.5000 Du        
   1726 ****       221.0000  42.5000  31.7500 Du        
   1727 ****       221.0000  42.5000  32.0000 Du        
   1728 ****       221.0000  42.5000  32.2500 Du        
   1729 ****       221.0000  42.5000  32.5000 Du        
   1730 ****       221.0000  42.5000  32.7500 Du        
   1731 ****       221.0000  42.5000  33.0000 Du        
   1732 ****       221.0000  42.5000  33.2500 Du        
   1733 ****       221.0000  42.7500  31.5000 Du        
   1734 ****       221.0000  42.7500  31.7500 Du        
   1735 ****       221.0000  42.7500  32.0000 Du        
   1736 ****       221.0000  42.7500  32.2500 Du        
   1737 ****       221.0000  42.7500  32.5000 Du        
   1738 ****       221.0000  42.7500  32.7500 Du        
   1739 ****       221.0000  42.7500  33.0000 Du        
   1740 ****       221.0000  42.7500  33.2500 Du        
   1741 ****       221.0000  42.7500  33.5000 Du        
   1742 ****       221.0000  43.0000  31.7500 Du        
   1743 ****       221.0000  43.0000  32.0000 Du        
   1744 ****       221.0000  43.0000  32.2500 Du        
   1745 ****       221.0000  43.0000  32.5000 Du        
   1746 ****       221.0000  43.0000  32.7500 Du        
   1747 ****       221.0000  43.0000  33.0000 Du        
   1748 ****       221.0000  43.0000  33.2500 Du        
   1749 ****       221.0000  43.0000  33.5000 Du        
   1750 ****       221.0000  43.2500  32.0000 Du        
   1751 ****       221.0000  43.2500  32.2500 Du        
   1752 ****       221.0000  43.2500  32.5000 Du        
   1753 ****       221.0000  43.2500  32.7500 Du        
   1754 ****       221.0000  43.2500  33.0000 Du        
   1755 ****       221.0000  43.2500  33.2500 Du        
   1756 ****       221.0000  43.2500  33.5000 Du        
   1757 ****       221.0000  43.5000  32.2500 Du        
   1758 ****       221.0000  43.5000  32.5000 Du        
   1759 ****       221.0000  43.5000  32.7500 Du        
   1760 ****       221.0000  43.5000  33.0000 Du        
   1761 ****       221.0000  43.5000  33.2500 Du        
   1762 ****       221.0000  43.5000  33.5000 Du        
   1763 ****       221.0000  43.7500  32.5000 Du        
   1764 ****       221.0000  43.7500  32.7500 Du        
   1765 ****       221.0000  43.7500  33.0000 Du        
   1766 ****       221.0000  43.7500  33.2500 Du        
   1767 ****       221.0000  43.7500  33.5000 Du        
   1768 ****       221.0000  44.0000  32.7500 Du        
   1769 ****       221.0000  44.0000  33.0000 Du        
   1770 ****       221.0000  44.0000  33.2500 Du        
   1771 ****       221.0000  44.0000  33.5000 Du        
   1772 ****       221.0000  44.2500  33.0000 Du        
   1773 ****       221.0000  44.2500  33.2500 Du        
   1774 ****       221.2500  41.7500  31.5000 Du        
   1775 ****       221.2500  41.7500  31.7500 Du        
   1776 ****       221.2500  41.7500  32.0000 Du        
   1777 ****       221.2500  41.7500  32.2500 Du        
   1778 ****       221.2500  41.7500  32.5000 Du        
   1779 ****       221.2500  41.7500  32.7500 Du        
   1780 ****       221.2500  41.7500  33.0000 Du        
   1781 ****       221.2500  42.0000  31.2500 Du        
   1782 ****       221.2500  42.0000  31.5000 Du        
   1783 ****       221.2500  42.0000  31.7500 Du        
   1784 ****       221.2500  42.0000  32.0000 Du        
   1785 ****       221.2500  42.0000  32.2500 Du        
   1786 ****       221.2500  42.0000  32.5000 Du        
   1787 ****       221.2500  42.0000  32.7500 Du        
   1788 ****       221.2500  42.0000  33.0000 Du        
   1789 ****       221.2500  42.0000  33.2500 Du        
   1790 ****       221.2500  42.2500  31.0000 Du        
   1791 ****       221.2500  42.2500  31.2500 Du        
   1792 ****       221.2500  42.2500  31.5000 Du        
   1793 ****       221.2500  42.2500  31.7500 Du        
   1794 ****       221.2500  42.2500  32.0000 Du        
   1795 ****       221.2500  42.2500  32.2500 Du        
   1796 ****       221.2500  42.2500  32.5000 Du        
   1797 ****       221.2500  42.2500  32.7500 Du        
   1798 ****       221.2500  42.2500  33.0000 Du        
   1799 ****       221.2500  42.2500  33.2500 Du        
   1800 ****       221.2500  42.5000  31.2500 Du        
   1801 ****       221.2500  42.5000  31.5000 Du        
   1802 ****       221.2500  42.5000  31.7500 Du        
   1803 ****       221.2500  42.5000  32.0000 Du        
   1804 ****       221.2500  42.5000  32.2500 Du        
   1805 ****       221.2500  42.5000  32.5000 Du        
   1806 ****       221.2500  42.5000  32.7500 Du        
   1807 ****       221.2500  42.5000  33.0000 Du        
   1808 ****       221.2500  42.5000  33.2500 Du        
   1809 ****       221.2500  42.7500  31.2500 Du        
   1810 ****       221.2500  42.7500  31.5000 Du        
   1811 ****       221.2500  42.7500  31.7500 Du        
   1812 ****       221.2500  42.7500  32.0000 Du        
   1813 ****       221.2500  42.7500  32.2500 Du        
   1814 ****       221.2500  42.7500  32.5000 Du        
   1815 ****       221.2500  42.7500  32.7500 Du        
   1816 ****       221.2500  42.7500  33.0000 Du        
   1817 ****       221.2500  42.7500  33.2500 Du        
   1818 ****       221.2500  43.0000  31.5000 Du        
   1819 ****       221.2500  43.0000  31.7500 Du        
   1820 ****       221.2500  43.0000  32.0000 Du        
   1821 ****       221.2500  43.0000  32.2500 Du        
   1822 ****       221.2500  43.0000  32.5000 Du        
   1823 ****       221.2500  43.0000  32.7500 Du        
   1824 ****       221.2500  43.0000  33.0000 Du        
   1825 ****       221.2500  43.0000  33.2500 Du        
   1826 ****       221.2500  43.0000  33.5000 Du        
   1827 ****       221.2500  43.2500  31.7500 Du        
   1828 ****       221.2500  43.2500  32.0000 Du        
   1829 ****       221.2500  43.2500  32.2500 Du        
   1830 ****       221.2500  43.2500  32.5000 Du        
   1831 ****       221.2500  43.2500  32.7500 Du        
   1832 ****       221.2500  43.2500  33.0000 Du        
   1833 ****       221.2500  43.2500  33.2500 Du        
   1834 ****       221.2500  43.2500  33.5000 Du        
   1835 ****       221.2500  43.5000  32.0000 Du        
   1836 ****       221.2500  43.5000  32.2500 Du        
   1837 ****       221.2500  43.5000  32.5000 Du        
   1838 ****       221.2500  43.5000  32.7500 Du        
   1839 ****       221.2500  43.5000  33.0000 Du        
   1840 ****       221.2500  43.5000  33.2500 Du        
   1841 ****       221.2500  43.7500  32.2500 Du        
   1842 ****       221.2500  43.7500  32.5000 Du        
   1843 ****       221.2500  43.7500  32.7500 Du        
   1844 ****       221.2500  43.7500  33.0000 Du        
   1845 ****       221.2500  43.7500  33.2500 Du        
   1846 ****       221.2500  44.0000  32.5000 Du        
   1847 ****       221.2500  44.0000  32.7500 Du        
   1848 ****       221.2500  44.0000  33.0000 Du        
   1849 ****       221.2500  44.0000  33.2500 Du        
   1850 ****       221.2500  44.2500  32.7500 Du        
   1851 ****       221.2500  44.2500  33.0000 Du        
   1852 ****       221.2500  44.2500  33.2500 Du        
   1853 ****       221.5000  41.7500  31.7500 Du        
   1854 ****       221.5000  41.7500  32.0000 Du        
   1855 ****       221.5000  42.0000  31.0000 Du        
   1856 ****       221.5000  42.0000  31.2500 Du        
   1857 ****       221.5000  42.0000  31.5000 Du        
   1858 ****       221.5000  42.0000  31.7500 Du        
   1859 ****       221.5000  42.0000  32.0000 Du        
   1860 ****       221.5000  42.0000  32.2500 Du        
   1861 ****       221.5000  42.0000  32.5000 Du        
   1862 ****       221.5000  42.0000  32.7500 Du        
   1863 ****       221.5000  42.0000  33.0000 Du        
   1864 ****       221.5000  42.2500  30.7500 Du        
   1865 ****       221.5000  42.2500  31.0000 Du        
   1866 ****       221.5000  42.2500  31.2500 Du        
   1867 ****       221.5000  42.2500  31.5000 Du        
   1868 ****       221.5000  42.2500  31.7500 Du        
   1869 ****       221.5000  42.2500  32.0000 Du        
   1870 ****       221.5000  42.2500  32.2500 Du        
   1871 ****       221.5000  42.2500  32.5000 Du        
   1872 ****       221.5000  42.2500  32.7500 Du        
   1873 ****       221.5000  42.2500  33.0000 Du        
   1874 ****       221.5000  42.2500  33.2500 Du        
   1875 ****       221.5000  42.5000  30.7500 Du        
   1876 ****       221.5000  42.5000  31.0000 Du        
   1877 ****       221.5000  42.5000  31.2500 Du        
   1878 ****       221.5000  42.5000  31.5000 Du        
   1879 ****       221.5000  42.5000  31.7500 Du        
   1880 ****       221.5000  42.5000  32.0000 Du        
   1881 ****       221.5000  42.5000  32.2500 Du        
   1882 ****       221.5000  42.5000  32.5000 Du        
   1883 ****       221.5000  42.5000  32.7500 Du        
   1884 ****       221.5000  42.5000  33.0000 Du        
   1885 ****       221.5000  42.5000  33.2500 Du        
   1886 ****       221.5000  42.7500  31.0000 Du        
   1887 ****       221.5000  42.7500  31.2500 Du        
   1888 ****       221.5000  42.7500  31.5000 Du        
   1889 ****       221.5000  42.7500  31.7500 Du        
   1890 ****       221.5000  42.7500  32.0000 Du        
   1891 ****       221.5000  42.7500  32.2500 Du        
   1892 ****       221.5000  42.7500  32.5000 Du        
   1893 ****       221.5000  42.7500  32.7500 Du        
   1894 ****       221.5000  42.7500  33.0000 Du        
   1895 ****       221.5000  42.7500  33.2500 Du        
   1896 ****       221.5000  43.0000  31.2500 Du        
   1897 ****       221.5000  43.0000  31.5000 Du        
   1898 ****       221.5000  43.0000  31.7500 Du        
   1899 ****       221.5000  43.0000  32.0000 Du        
   1900 ****       221.5000  43.0000  32.2500 Du        
   1901 ****       221.5000  43.0000  32.5000 Du        
   1902 ****       221.5000  43.0000  32.7500 Du        
   1903 ****       221.5000  43.0000  33.0000 Du        
   1904 ****       221.5000  43.0000  33.2500 Du        
   1905 ****       221.5000  43.2500  31.5000 Du        
   1906 ****       221.5000  43.2500  31.7500 Du        
   1907 ****       221.5000  43.2500  32.0000 Du        
   1908 ****       221.5000  43.2500  32.2500 Du        
   1909 ****       221.5000  43.2500  32.5000 Du        
   1910 ****       221.5000  43.2500  32.7500 Du        
   1911 ****       221.5000  43.2500  33.0000 Du        
   1912 ****       221.5000  43.2500  33.2500 Du        
   1913 ****       221.5000  43.5000  31.7500 Du        
   1914 ****       221.5000  43.5000  32.0000 Du        
   1915 ****       221.5000  43.5000  32.2500 Du        
   1916 ****       221.5000  43.5000  32.5000 Du        
   1917 ****       221.5000  43.5000  32.7500 Du        
   1918 ****       221.5000  43.5000  33.0000 Du        
   1919 ****       221.5000  43.5000  33.2500 Du        
   1920 ****       221.5000  43.7500  32.0000 Du        
   1921 ****       221.5000  43.7500  32.2500 Du        
   1922 ****       221.5000  43.7500  32.5000 Du        
   1923 ****       221.5000  43.7500  32.7500 Du        
   1924 ****       221.5000  43.7500  33.0000 Du        
   1925 ****       221.5000  43.7500  33.2500 Du        
   1926 ****       221.5000  44.0000  32.0000 Du        
   1927 ****       221.5000  44.0000  32.2500 Du        
   1928 ****       221.5000  44.0000  32.5000 Du        
   1929 ****       221.5000  44.0000  32.7500 Du        
   1930 ****       221.5000  44.0000  33.0000 Du        
   1931 ****       221.5000  44.0000  33.2500 Du        
   1932 ****       221.5000  44.2500  32.2500 Du        
   1933 ****       221.5000  44.2500  32.5000 Du        
   1934 ****       221.5000  44.2500  32.7500 Du        
   1935 ****       221.5000  44.2500  33.0000 Du        
   1936 ****       221.5000  44.2500  33.2500 Du        
   1937 ****       221.7500  42.0000  31.0000 Du        
   1938 ****       221.7500  42.0000  31.2500 Du        
   1939 ****       221.7500  42.0000  31.5000 Du        
   1940 ****       221.7500  42.0000  31.7500 Du        
   1941 ****       221.7500  42.0000  32.0000 Du        
   1942 ****       221.7500  42.0000  32.2500 Du        
   1943 ****       221.7500  42.0000  32.5000 Du        
   1944 ****       221.7500  42.2500  30.7500 Du        
   1945 ****       221.7500  42.2500  31.0000 Du        
   1946 ****       221.7500  42.2500  31.2500 Du        
   1947 ****       221.7500  42.2500  31.5000 Du        
   1948 ****       221.7500  42.2500  31.7500 Du        
   1949 ****       221.7500  42.2500  32.0000 Du        
   1950 ****       221.7500  42.2500  32.2500 Du        
   1951 ****       221.7500  42.2500  32.5000 Du        
   1952 ****       221.7500  42.2500  32.7500 Du        
   1953 ****       221.7500  42.2500  33.0000 Du        
   1954 ****       221.7500  42.5000  30.7500 Du        
   1955 ****       221.7500  42.5000  31.0000 Du        
   1956 ****       221.7500  42.5000  31.2500 Du        
   1957 ****       221.7500  42.5000  31.5000 Du        
   1958 ****       221.7500  42.5000  31.7500 Du        
   1959 ****       221.7500  42.5000  32.0000 Du        
   1960 ****       221.7500  42.5000  32.2500 Du        
   1961 ****       221.7500  42.5000  32.5000 Du        
   1962 ****       221.7500  42.5000  32.7500 Du        
   1963 ****       221.7500  42.5000  33.0000 Du        
   1964 ****       221.7500  42.5000  33.2500 Du        
   1965 ****       221.7500  42.7500  30.7500 Du        
   1966 ****       221.7500  42.7500  31.0000 Du        
   1967 ****       221.7500  42.7500  31.2500 Du        
   1968 ****       221.7500  42.7500  31.5000 Du        
   1969 ****       221.7500  42.7500  31.7500 Du        
   1970 ****       221.7500  42.7500  32.0000 Du        
   1971 ****       221.7500  42.7500  32.2500 Du        
   1972 ****       221.7500  42.7500  32.5000 Du        
   1973 ****       221.7500  42.7500  32.7500 Du        
   1974 ****       221.7500  42.7500  33.0000 Du        
   1975 ****       221.7500  42.7500  33.2500 Du        
   1976 ****       221.7500  43.0000  31.0000 Du        
   1977 ****       221.7500  43.0000  31.2500 Du        
   1978 ****       221.7500  43.0000  31.5000 Du        
   1979 ****       221.7500  43.0000  31.7500 Du        
   1980 ****       221.7500  43.0000  32.0000 Du        
   1981 ****       221.7500  43.0000  32.2500 Du        
   1982 ****       221.7500  43.0000  32.5000 Du        
   1983 ****       221.7500  43.0000  32.7500 Du        
   1984 ****       221.7500  43.0000  33.0000 Du        
   1985 ****       221.7500  43.0000  33.2500 Du        
   1986 ****       221.7500  43.2500  31.2500 Du        
   1987 ****       221.7500  43.2500  31.5000 Du        
   1988 ****       221.7500  43.2500  31.7500 Du        
   1989 ****       221.7500  43.2500  32.0000 Du        
   1990 ****       221.7500  43.2500  32.2500 Du        
   1991 ****       221.7500  43.2500  32.5000 Du        
   1992 ****       221.7500  43.2500  32.7500 Du        
   1993 ****       221.7500  43.2500  33.0000 Du        
   1994 ****       221.7500  43.2500  33.2500 Du        
   1995 ****       221.7500  43.5000  31.5000 Du        
   1996 ****       221.7500  43.5000  31.7500 Du        
   1997 ****       221.7500  43.5000  32.0000 Du        
   1998 ****       221.7500  43.5000  32.2500 Du        
   1999 ****       221.7500  43.5000  32.5000 Du        
   2000 ****       221.7500  43.5000  32.7500 Du        
   2001 ****       221.7500  43.5000  33.0000 Du        
   2002 ****       221.7500  43.5000  33.2500 Du        
   2003 ****       221.7500  43.7500  31.7500 Du        
   2004 ****       221.7500  43.7500  32.0000 Du        
   2005 ****       221.7500  43.7500  32.2500 Du        
   2006 ****       221.7500  43.7500  32.5000 Du        
   2007 ****       221.7500  43.7500  32.7500 Du        
   2008 ****       221.7500  43.7500  33.0000 Du        
   2009 ****       221.7500  43.7500  33.2500 Du        
   2010 ****       221.7500  44.0000  31.7500 Du        
   2011 ****       221.7500  44.0000  32.0000 Du        
   2012 ****       221.7500  44.0000  32.2500 Du        
   2013 ****       221.7500  44.0000  32.5000 Du        
   2014 ****       221.7500  44.0000  32.7500 Du        
   2015 ****       221.7500  44.0000  33.0000 Du        
   2016 ****       221.7500  44.0000  33.2500 Du        
   2017 ****       221.7500  44.2500  32.0000 Du        
   2018 ****       221.7500  44.2500  32.2500 Du        
   2019 ****       221.7500  44.2500  32.5000 Du        
   2020 ****       221.7500  44.2500  32.7500 Du        
   2021 ****       221.7500  44.2500  33.0000 Du        
   2022 ****       221.7500  44.2500  33.2500 Du        
   2023 ****       221.7500  44.5000  32.2500 Du        
   2024 ****       221.7500  44.5000  32.5000 Du        
   2025 ****       221.7500  44.5000  32.7500 Du        
   2026 ****       221.7500  44.5000  33.0000 Du        
   2027 ****       221.7500  44.7500  32.5000 Du        
   2028 ****       221.7500  44.7500  32.7500 Du        
   2029 ****       221.7500  44.7500  33.0000 Du        
   2030 ****       222.0000  42.0000  31.0000 Du        
   2031 ****       222.0000  42.0000  31.2500 Du        
   2032 ****       222.0000  42.0000  31.5000 Du        
   2033 ****       222.0000  42.0000  31.7500 Du        
   2034 ****       222.0000  42.0000  32.0000 Du        
   2035 ****       222.0000  42.2500  30.7500 Du        
   2036 ****       222.0000  42.2500  31.0000 Du        
   2037 ****       222.0000  42.2500  31.2500 Du        
   2038 ****       222.0000  42.2500  31.5000 Du        
   2039 ****       222.0000  42.2500  31.7500 Du        
   2040 ****       222.0000  42.2500  32.0000 Du        
   2041 ****       222.0000  42.2500  32.2500 Du        
   2042 ****       222.0000  42.2500  32.5000 Du        
   2043 ****       222.0000  42.2500  32.7500 Du        
   2044 ****       222.0000  42.2500  33.0000 Du        
   2045 ****       222.0000  42.5000  30.5000 Du        
   2046 ****       222.0000  42.5000  30.7500 Du        
   2047 ****       222.0000  42.5000  31.0000 Du        
   2048 ****       222.0000  42.5000  31.2500 Du        
   2049 ****       222.0000  42.5000  31.5000 Du        
   2050 ****       222.0000  42.5000  31.7500 Du        
   2051 ****       222.0000  42.5000  32.0000 Du        
   2052 ****       222.0000  42.5000  32.2500 Du        
   2053 ****       222.0000  42.5000  32.5000 Du        
   2054 ****       222.0000  42.5000  32.7500 Du        
   2055 ****       222.0000  42.5000  33.0000 Du        
   2056 ****       222.0000  42.5000  33.2500 Du        
   2057 ****       222.0000  42.7500  30.7500 Du        
   2058 ****       222.0000  42.7500  31.0000 Du        
   2059 ****       222.0000  42.7500  31.2500 Du        
   2060 ****       222.0000  42.7500  31.5000 Du        
   2061 ****       222.0000  42.7500  31.7500 Du        
   2062 ****       222.0000  42.7500  32.0000 Du        
   2063 ****       222.0000  42.7500  32.2500 Du        
   2064 ****       222.0000  42.7500  32.5000 Du        
   2065 ****       222.0000  42.7500  32.7500 Du        
   2066 ****       222.0000  42.7500  33.0000 Du        
   2067 ****       222.0000  42.7500  33.2500 Du        
   2068 ****       222.0000  43.0000  30.7500 Du        
   2069 ****       222.0000  43.0000  31.0000 Du        
   2070 ****       222.0000  43.0000  31.2500 Du        
   2071 ****       222.0000  43.0000  31.5000 Du        
   2072 ****       222.0000  43.0000  31.7500 Du        
   2073 ****       222.0000  43.0000  32.0000 Du        
   2074 ****       222.0000  43.0000  32.2500 Du        
   2075 ****       222.0000  43.0000  32.5000 Du        
   2076 ****       222.0000  43.0000  32.7500 Du        
   2077 ****       222.0000  43.0000  33.0000 Du        
   2078 ****       222.0000  43.0000  33.2500 Du        
   2079 ****       222.0000  43.2500  31.0000 Du        
   2080 ****       222.0000  43.2500  31.2500 Du        
   2081 ****       222.0000  43.2500  31.5000 Du        
   2082 ****       222.0000  43.2500  31.7500 Du        
   2083 ****       222.0000  43.2500  32.0000 Du        
   2084 ****       222.0000  43.2500  32.2500 Du        
   2085 ****       222.0000  43.2500  32.5000 Du        
   2086 ****       222.0000  43.2500  32.7500 Du        
   2087 ****       222.0000  43.2500  33.0000 Du        
   2088 ****       222.0000  43.2500  33.2500 Du        
   2089 ****       222.0000  43.5000  31.2500 Du        
   2090 ****       222.0000  43.5000  31.5000 Du        
   2091 ****       222.0000  43.5000  31.7500 Du        
   2092 ****       222.0000  43.5000  32.0000 Du        
   2093 ****       222.0000  43.5000  32.2500 Du        
   2094 ****       222.0000  43.5000  32.5000 Du        
   2095 ****       222.0000  43.5000  32.7500 Du        
   2096 ****       222.0000  43.5000  33.0000 Du        
   2097 ****       222.0000  43.5000  33.2500 Du        
   2098 ****       222.0000  43.7500  31.2500 Du        
   2099 ****       222.0000  43.7500  31.5000 Du        
   2100 ****       222.0000  43.7500  31.7500 Du        
   2101 ****       222.0000  43.7500  32.0000 Du        
   2102 ****       222.0000  43.7500  32.2500 Du        
   2103 ****       222.0000  43.7500  32.5000 Du        
   2104 ****       222.0000  43.7500  32.7500 Du        
   2105 ****       222.0000  43.7500  33.0000 Du        
   2106 ****       222.0000  43.7500  33.2500 Du        
   2107 ****       222.0000  44.0000  31.5000 Du        
   2108 ****       222.0000  44.0000  31.7500 Du        
   2109 ****       222.0000  44.0000  32.0000 Du        
   2110 ****       222.0000  44.0000  32.2500 Du        
   2111 ****       222.0000  44.0000  32.5000 Du        
   2112 ****       222.0000  44.0000  32.7500 Du        
   2113 ****       222.0000  44.0000  33.0000 Du        
   2114 ****       222.0000  44.0000  33.2500 Du        
   2115 ****       222.0000  44.2500  31.5000 Du        
   2116 ****       222.0000  44.2500  31.7500 Du        
   2117 ****       222.0000  44.2500  32.0000 Du        
   2118 ****       222.0000  44.2500  32.2500 Du        
   2119 ****       222.0000  44.2500  32.5000 Du        
   2120 ****       222.0000  44.2500  32.7500 Du        
   2121 ****       222.0000  44.2500  33.0000 Du        
   2122 ****       222.0000  44.2500  33.2500 Du        
   2123 ****       222.0000  44.5000  32.0000 Du        
   2124 ****       222.0000  44.5000  32.2500 Du        
   2125 ****       222.0000  44.5000  32.5000 Du        
   2126 ****       222.0000  44.5000  32.7500 Du        
   2127 ****       222.0000  44.5000  33.0000 Du        
   2128 ****       222.0000  44.7500  32.0000 Du        
   2129 ****       222.0000  44.7500  32.2500 Du        
   2130 ****       222.0000  44.7500  32.5000 Du        
   2131 ****       222.0000  44.7500  32.7500 Du        
   2132 ****       222.0000  44.7500  33.0000 Du        
   2133 ****       222.0000  45.0000  32.2500 Du        
   2134 ****       222.0000  45.0000  32.5000 Du        
   2135 ****       222.0000  45.0000  32.7500 Du        
   2136 ****       222.0000  45.0000  33.0000 Du        
   2137 ****       222.0000  47.7500  33.2500 Du        
   2138 ****       222.0000  48.0000  33.0000 Du        
   2139 ****       222.0000  48.0000  33.2500 Du        
   2140 ****       222.0000  48.2500  31.2500 Du        
   2141 ****       222.0000  48.2500  31.5000 Du        
   2142 ****       222.0000  48.2500  31.7500 Du        
   2143 ****       222.0000  48.2500  32.0000 Du        
   2144 ****       222.0000  48.2500  32.2500 Du        
   2145 ****       222.0000  48.2500  32.7500 Du        
   2146 ****       222.0000  48.2500  33.0000 Du        
   2147 ****       222.0000  48.2500  33.2500 Du        
   2148 ****       222.0000  48.5000  31.5000 Du        
   2149 ****       222.0000  48.5000  31.7500 Du        
   2150 ****       222.0000  48.5000  32.0000 Du        
   2151 ****       222.0000  48.5000  32.2500 Du        
   2152 ****       222.0000  48.7500  32.0000 Du        
   2153 ****       222.0000  48.7500  32.2500 Du        
   2154 ****       222.2500  42.0000  31.5000 Du        
   2155 ****       222.2500  42.2500  30.7500 Du        
   2156 ****       222.2500  42.2500  31.0000 Du        
   2157 ****       222.2500  42.2500  31.2500 Du        
   2158 ****       222.2500  42.2500  31.5000 Du        
   2159 ****       222.2500  42.2500  31.7500 Du        
   2160 ****       222.2500  42.2500  32.0000 Du        
   2161 ****       222.2500  42.2500  32.2500 Du        
   2162 ****       222.2500  42.2500  32.5000 Du        
   2163 ****       222.2500  42.2500  32.7500 Du        
   2164 ****       222.2500  42.5000  30.7500 Du        
   2165 ****       222.2500  42.5000  31.0000 Du        
   2166 ****       222.2500  42.5000  31.2500 Du        
   2167 ****       222.2500  42.5000  31.5000 Du        
   2168 ****       222.2500  42.5000  31.7500 Du        
   2169 ****       222.2500  42.5000  32.0000 Du        
   2170 ****       222.2500  42.5000  32.2500 Du        
   2171 ****       222.2500  42.5000  32.5000 Du        
   2172 ****       222.2500  42.5000  32.7500 Du        
   2173 ****       222.2500  42.5000  33.0000 Du        
   2174 ****       222.2500  42.5000  33.2500 Du        
   2175 ****       222.2500  42.7500  30.7500 Du        
   2176 ****       222.2500  42.7500  31.0000 Du        
   2177 ****       222.2500  42.7500  31.2500 Du        
   2178 ****       222.2500  42.7500  31.5000 Du        
   2179 ****       222.2500  42.7500  31.7500 Du        
   2180 ****       222.2500  42.7500  32.0000 Du        
   2181 ****       222.2500  42.7500  32.2500 Du        
   2182 ****       222.2500  42.7500  32.5000 Du        
   2183 ****       222.2500  42.7500  32.7500 Du        
   2184 ****       222.2500  42.7500  33.0000 Du        
   2185 ****       222.2500  42.7500  33.2500 Du        
   2186 ****       222.2500  43.0000  30.7500 Du        
   2187 ****       222.2500  43.0000  31.0000 Du        
   2188 ****       222.2500  43.0000  31.2500 Du        
   2189 ****       222.2500  43.0000  31.5000 Du        
   2190 ****       222.2500  43.0000  31.7500 Du        
   2191 ****       222.2500  43.0000  32.0000 Du        
   2192 ****       222.2500  43.0000  32.2500 Du        
   2193 ****       222.2500  43.0000  32.5000 Du        
   2194 ****       222.2500  43.0000  32.7500 Du        
   2195 ****       222.2500  43.0000  33.0000 Du        
   2196 ****       222.2500  43.0000  33.2500 Du        
   2197 ****       222.2500  43.2500  31.0000 Du        
   2198 ****       222.2500  43.2500  31.2500 Du        
   2199 ****       222.2500  43.2500  31.5000 Du        
   2200 ****       222.2500  43.2500  31.7500 Du        
   2201 ****       222.2500  43.2500  32.0000 Du        
   2202 ****       222.2500  43.2500  32.2500 Du        
   2203 ****       222.2500  43.2500  32.5000 Du        
   2204 ****       222.2500  43.2500  32.7500 Du        
   2205 ****       222.2500  43.2500  33.0000 Du        
   2206 ****       222.2500  43.2500  33.2500 Du        
   2207 ****       222.2500  43.5000  31.2500 Du        
   2208 ****       222.2500  43.5000  31.5000 Du        
   2209 ****       222.2500  43.5000  31.7500 Du        
   2210 ****       222.2500  43.5000  32.0000 Du        
   2211 ****       222.2500  43.5000  32.2500 Du        
   2212 ****       222.2500  43.5000  32.5000 Du        
   2213 ****       222.2500  43.5000  32.7500 Du        
   2214 ****       222.2500  43.5000  33.0000 Du        
   2215 ****       222.2500  43.5000  33.2500 Du        
   2216 ****       222.2500  43.7500  31.2500 Du        
   2217 ****       222.2500  43.7500  31.5000 Du        
   2218 ****       222.2500  43.7500  31.7500 Du        
   2219 ****       222.2500  43.7500  32.0000 Du        
   2220 ****       222.2500  43.7500  32.2500 Du        
   2221 ****       222.2500  43.7500  32.5000 Du        
   2222 ****       222.2500  43.7500  32.7500 Du        
   2223 ****       222.2500  43.7500  33.0000 Du        
   2224 ****       222.2500  43.7500  33.2500 Du        
   2225 ****       222.2500  44.0000  31.2500 Du        
   2226 ****       222.2500  44.0000  31.5000 Du        
   2227 ****       222.2500  44.0000  31.7500 Du        
   2228 ****       222.2500  44.0000  32.0000 Du        
   2229 ****       222.2500  44.0000  32.2500 Du        
   2230 ****       222.2500  44.0000  32.5000 Du        
   2231 ****       222.2500  44.0000  32.7500 Du        
   2232 ****       222.2500  44.0000  33.0000 Du        
   2233 ****       222.2500  44.0000  33.2500 Du        
   2234 ****       222.2500  44.2500  31.2500 Du        
   2235 ****       222.2500  44.2500  31.5000 Du        
   2236 ****       222.2500  44.2500  31.7500 Du        
   2237 ****       222.2500  44.2500  32.0000 Du        
   2238 ****       222.2500  44.2500  32.2500 Du        
   2239 ****       222.2500  44.2500  32.5000 Du        
   2240 ****       222.2500  44.2500  32.7500 Du        
   2241 ****       222.2500  44.2500  33.0000 Du        
   2242 ****       222.2500  44.5000  31.7500 Du        
   2243 ****       222.2500  44.5000  32.0000 Du        
   2244 ****       222.2500  44.5000  32.2500 Du        
   2245 ****       222.2500  44.5000  32.5000 Du        
   2246 ****       222.2500  44.5000  32.7500 Du        
   2247 ****       222.2500  44.5000  33.0000 Du        
   2248 ****       222.2500  44.7500  31.7500 Du        
   2249 ****       222.2500  44.7500  32.0000 Du        
   2250 ****       222.2500  44.7500  32.2500 Du        
   2251 ****       222.2500  44.7500  32.5000 Du        
   2252 ****       222.2500  44.7500  32.7500 Du        
   2253 ****       222.2500  44.7500  33.0000 Du        
   2254 ****       222.2500  45.0000  31.7500 Du        
   2255 ****       222.2500  45.0000  32.0000 Du        
   2256 ****       222.2500  45.0000  32.2500 Du        
   2257 ****       222.2500  45.0000  32.5000 Du        
   2258 ****       222.2500  45.0000  32.7500 Du        
   2259 ****       222.2500  45.0000  33.0000 Du        
   2260 ****       222.2500  45.2500  32.0000 Du        
   2261 ****       222.2500  45.2500  32.2500 Du        
   2262 ****       222.2500  45.2500  32.5000 Du        
   2263 ****       222.2500  45.2500  32.7500 Du        
   2264 ****       222.2500  45.2500  33.0000 Du        
   2265 ****       222.2500  47.2500  33.2500 Du        
   2266 ****       222.2500  47.5000  31.0000 Du        
   2267 ****       222.2500  47.5000  31.2500 Du        
   2268 ****       222.2500  47.7500  30.7500 Du        
   2269 ****       222.2500  47.7500  31.0000 Du        
   2270 ****       222.2500  47.7500  31.2500 Du        
   2271 ****       222.2500  47.7500  31.5000 Du        
   2272 ****       222.2500  47.7500  31.7500 Du        
   2273 ****       222.2500  47.7500  32.0000 Du        
   2274 ****       222.2500  47.7500  32.5000 Du        
   2275 ****       222.2500  47.7500  32.7500 Du        
   2276 ****       222.2500  47.7500  33.0000 Du        
   2277 ****       222.2500  47.7500  33.2500 Du        
   2278 ****       222.2500  48.0000  30.7500 Du        
   2279 ****       222.2500  48.0000  31.0000 Du        
   2280 ****       222.2500  48.0000  31.2500 Du        
   2281 ****       222.2500  48.0000  31.5000 Du        
   2282 ****       222.2500  48.0000  31.7500 Du        
   2283 ****       222.2500  48.0000  32.0000 Du        
   2284 ****       222.2500  48.0000  32.2500 Du        
   2285 ****       222.2500  48.0000  32.5000 Du        
   2286 ****       222.2500  48.0000  32.7500 Du        
   2287 ****       222.2500  48.0000  33.0000 Du        
   2288 ****       222.2500  48.0000  33.2500 Du        
   2289 ****       222.2500  48.0000  33.5000 Du        
   2290 ****       222.2500  48.2500  30.7500 Du        
   2291 ****       222.2500  48.2500  31.0000 Du        
   2292 ****       222.2500  48.2500  31.2500 Du        
   2293 ****       222.2500  48.2500  31.5000 Du        
   2294 ****       222.2500  48.2500  31.7500 Du        
   2295 ****       222.2500  48.2500  32.0000 Du        
   2296 ****       222.2500  48.2500  32.2500 Du        
   2297 ****       222.2500  48.2500  32.5000 Du        
   2298 ****       222.2500  48.2500  32.7500 Du        
   2299 ****       222.2500  48.2500  33.0000 Du        
   2300 ****       222.2500  48.2500  33.2500 Du        
   2301 ****       222.2500  48.5000  31.0000 Du        
   2302 ****       222.2500  48.5000  31.2500 Du        
   2303 ****       222.2500  48.5000  31.5000 Du        
   2304 ****       222.2500  48.5000  31.7500 Du        
   2305 ****       222.2500  48.5000  32.0000 Du        
   2306 ****       222.2500  48.5000  32.2500 Du        
   2307 ****       222.2500  48.5000  32.5000 Du        
   2308 ****       222.2500  48.5000  32.7500 Du        
   2309 ****       222.2500  48.5000  33.0000 Du        
   2310 ****       222.2500  48.5000  33.2500 Du        
   2311 ****       222.2500  48.7500  31.2500 Du        
   2312 ****       222.2500  48.7500  31.5000 Du        
   2313 ****       222.2500  48.7500  31.7500 Du        
   2314 ****       222.2500  48.7500  32.0000 Du        
   2315 ****       222.2500  48.7500  32.2500 Du        
   2316 ****       222.2500  48.7500  32.5000 Du        
   2317 ****       222.2500  48.7500  32.7500 Du        
   2318 ****       222.2500  49.0000  31.5000 Du        
   2319 ****       222.2500  49.0000  31.7500 Du        
   2320 ****       222.2500  49.0000  32.0000 Du        
   2321 ****       222.2500  49.0000  32.2500 Du        
   2322 ****       222.5000  42.2500  31.2500 Du        
   2323 ****       222.5000  42.2500  31.5000 Du        
   2324 ****       222.5000  42.2500  31.7500 Du        
   2325 ****       222.5000  42.2500  32.0000 Du        
   2326 ****       222.5000  42.2500  32.2500 Du        
   2327 ****       222.5000  42.5000  31.0000 Du        
   2328 ****       222.5000  42.5000  31.2500 Du        
   2329 ****       222.5000  42.5000  31.5000 Du        
   2330 ****       222.5000  42.5000  31.7500 Du        
   2331 ****       222.5000  42.5000  32.0000 Du        
   2332 ****       222.5000  42.5000  32.2500 Du        
   2333 ****       222.5000  42.5000  32.5000 Du        
   2334 ****       222.5000  42.5000  32.7500 Du        
   2335 ****       222.5000  42.5000  33.0000 Du        
   2336 ****       222.5000  42.7500  31.0000 Du        
   2337 ****       222.5000  42.7500  31.2500 Du        
   2338 ****       222.5000  42.7500  31.5000 Du        
   2339 ****       222.5000  42.7500  31.7500 Du        
   2340 ****       222.5000  42.7500  32.0000 Du        
   2341 ****       222.5000  42.7500  32.2500 Du        
   2342 ****       222.5000  42.7500  32.5000 Du        
   2343 ****       222.5000  42.7500  32.7500 Du        
   2344 ****       222.5000  42.7500  33.0000 Du        
   2345 ****       222.5000  42.7500  33.2500 Du        
   2346 ****       222.5000  43.0000  31.0000 Du        
   2347 ****       222.5000  43.0000  31.2500 Du        
   2348 ****       222.5000  43.0000  31.5000 Du        
   2349 ****       222.5000  43.0000  31.7500 Du        
   2350 ****       222.5000  43.0000  32.0000 Du        
   2351 ****       222.5000  43.0000  32.2500 Du        
   2352 ****       222.5000  43.0000  32.5000 Du        
   2353 ****       222.5000  43.0000  32.7500 Du        
   2354 ****       222.5000  43.0000  33.0000 Du        
   2355 ****       222.5000  43.0000  33.2500 Du        
   2356 ****       222.5000  43.2500  31.2500 Du        
   2357 ****       222.5000  43.2500  31.5000 Du        
   2358 ****       222.5000  43.2500  31.7500 Du        
   2359 ****       222.5000  43.2500  32.0000 Du        
   2360 ****       222.5000  43.2500  32.2500 Du        
   2361 ****       222.5000  43.2500  32.5000 Du        
   2362 ****       222.5000  43.2500  32.7500 Du        
   2363 ****       222.5000  43.2500  33.0000 Du        
   2364 ****       222.5000  43.2500  33.2500 Du        
   2365 ****       222.5000  43.5000  31.2500 Du        
   2366 ****       222.5000  43.5000  31.5000 Du        
   2367 ****       222.5000  43.5000  31.7500 Du        
   2368 ****       222.5000  43.5000  32.0000 Du        
   2369 ****       222.5000  43.5000  32.2500 Du        
   2370 ****       222.5000  43.5000  32.5000 Du        
   2371 ****       222.5000  43.5000  32.7500 Du        
   2372 ****       222.5000  43.5000  33.0000 Du        
   2373 ****       222.5000  43.5000  33.2500 Du        
   2374 ****       222.5000  43.7500  31.2500 Du        
   2375 ****       222.5000  43.7500  31.5000 Du        
   2376 ****       222.5000  43.7500  31.7500 Du        
   2377 ****       222.5000  43.7500  32.0000 Du        
   2378 ****       222.5000  43.7500  32.2500 Du        
   2379 ****       222.5000  43.7500  32.5000 Du        
   2380 ****       222.5000  43.7500  32.7500 Du        
   2381 ****       222.5000  43.7500  33.0000 Du        
   2382 ****       222.5000  44.0000  31.2500 Du        
   2383 ****       222.5000  44.0000  31.5000 Du        
   2384 ****       222.5000  44.0000  31.7500 Du        
   2385 ****       222.5000  44.0000  32.0000 Du        
   2386 ****       222.5000  44.0000  32.2500 Du        
   2387 ****       222.5000  44.0000  32.5000 Du        
   2388 ****       222.5000  44.0000  32.7500 Du        
   2389 ****       222.5000  44.0000  33.0000 Du        
   2390 ****       222.5000  44.2500  31.2500 Du        
   2391 ****       222.5000  44.2500  31.5000 Du        
   2392 ****       222.5000  44.2500  31.7500 Du        
   2393 ****       222.5000  44.2500  32.0000 Du        
   2394 ****       222.5000  44.2500  32.2500 Du        
   2395 ****       222.5000  44.2500  32.5000 Du        
   2396 ****       222.5000  44.2500  32.7500 Du        
   2397 ****       222.5000  44.2500  33.0000 Du        
   2398 ****       222.5000  44.5000  31.5000 Du        
   2399 ****       222.5000  44.5000  31.7500 Du        
   2400 ****       222.5000  44.5000  32.0000 Du        
   2401 ****       222.5000  44.5000  32.2500 Du        
   2402 ****       222.5000  44.5000  32.5000 Du        
   2403 ****       222.5000  44.5000  32.7500 Du        
   2404 ****       222.5000  44.5000  33.0000 Du        
   2405 ****       222.5000  44.7500  31.2500 Du        
   2406 ****       222.5000  44.7500  31.5000 Du        
   2407 ****       222.5000  44.7500  31.7500 Du        
   2408 ****       222.5000  44.7500  32.0000 Du        
   2409 ****       222.5000  44.7500  32.2500 Du        
   2410 ****       222.5000  44.7500  32.5000 Du        
   2411 ****       222.5000  44.7500  32.7500 Du        
   2412 ****       222.5000  44.7500  33.0000 Du        
   2413 ****       222.5000  45.0000  31.2500 Du        
   2414 ****       222.5000  45.0000  31.5000 Du        
   2415 ****       222.5000  45.0000  31.7500 Du        
   2416 ****       222.5000  45.0000  32.0000 Du        
   2417 ****       222.5000  45.0000  32.2500 Du        
   2418 ****       222.5000  45.0000  32.5000 Du        
   2419 ****       222.5000  45.0000  32.7500 Du        
   2420 ****       222.5000  45.0000  33.0000 Du        
   2421 ****       222.5000  45.2500  31.2500 Du        
   2422 ****       222.5000  45.2500  31.5000 Du        
   2423 ****       222.5000  45.2500  31.7500 Du        
   2424 ****       222.5000  45.2500  32.0000 Du        
   2425 ****       222.5000  45.2500  32.2500 Du        
   2426 ****       222.5000  45.2500  32.5000 Du        
   2427 ****       222.5000  45.2500  32.7500 Du        
   2428 ****       222.5000  45.2500  33.0000 Du        
   2429 ****       222.5000  45.5000  31.2500 Du        
   2430 ****       222.5000  45.5000  31.5000 Du        
   2431 ****       222.5000  45.5000  31.7500 Du        
   2432 ****       222.5000  45.5000  32.0000 Du        
   2433 ****       222.5000  45.5000  32.2500 Du        
   2434 ****       222.5000  45.5000  32.5000 Du        
   2435 ****       222.5000  45.5000  32.7500 Du        
   2436 ****       222.5000  45.5000  33.0000 Du        
   2437 ****       222.5000  45.7500  31.2500 Du        
   2438 ****       222.5000  45.7500  31.5000 Du        
   2439 ****       222.5000  45.7500  31.7500 Du        
   2440 ****       222.5000  45.7500  32.0000 Du        
   2441 ****       222.5000  45.7500  32.2500 Du        
   2442 ****       222.5000  45.7500  32.5000 Du        
   2443 ****       222.5000  45.7500  32.7500 Du        
   2444 ****       222.5000  45.7500  33.0000 Du        
   2445 ****       222.5000  45.7500  33.2500 Du        
   2446 ****       222.5000  46.0000  31.0000 Du        
   2447 ****       222.5000  46.0000  31.2500 Du        
   2448 ****       222.5000  46.0000  31.7500 Du        
   2449 ****       222.5000  46.0000  32.0000 Du        
   2450 ****       222.5000  46.0000  32.5000 Du        
   2451 ****       222.5000  46.0000  32.7500 Du        
   2452 ****       222.5000  46.0000  33.0000 Du        
   2453 ****       222.5000  46.0000  33.2500 Du        
   2454 ****       222.5000  46.2500  31.2500 Du        
   2455 ****       222.5000  46.2500  32.7500 Du        
   2456 ****       222.5000  46.2500  33.0000 Du        
   2457 ****       222.5000  46.2500  33.2500 Du        
   2458 ****       222.5000  46.5000  31.0000 Du        
   2459 ****       222.5000  46.5000  31.2500 Du        
   2460 ****       222.5000  46.5000  31.5000 Du        
   2461 ****       222.5000  46.5000  31.7500 Du        
   2462 ****       222.5000  46.5000  32.0000 Du        
   2463 ****       222.5000  46.7500  30.7500 Du        
   2464 ****       222.5000  46.7500  31.0000 Du        
   2465 ****       222.5000  46.7500  31.2500 Du        
   2466 ****       222.5000  46.7500  31.7500 Du        
   2467 ****       222.5000  46.7500  32.0000 Du        
   2468 ****       222.5000  46.7500  32.2500 Du        
   2469 ****       222.5000  47.0000  30.7500 Du        
   2470 ****       222.5000  47.0000  31.0000 Du        
   2471 ****       222.5000  47.0000  31.2500 Du        
   2472 ****       222.5000  47.0000  31.5000 Du        
   2473 ****       222.5000  47.0000  31.7500 Du        
   2474 ****       222.5000  47.0000  32.0000 Du        
   2475 ****       222.5000  47.2500  30.7500 Du        
   2476 ****       222.5000  47.2500  31.0000 Du        
   2477 ****       222.5000  47.2500  31.2500 Du        
   2478 ****       222.5000  47.2500  31.5000 Du        
   2479 ****       222.5000  47.2500  31.7500 Du        
   2480 ****       222.5000  47.2500  32.0000 Du        
   2481 ****       222.5000  47.5000  30.7500 Du        
   2482 ****       222.5000  47.5000  31.0000 Du        
   2483 ****       222.5000  47.5000  31.2500 Du        
   2484 ****       222.5000  47.5000  31.5000 Du        
   2485 ****       222.5000  47.5000  31.7500 Du        
   2486 ****       222.5000  47.5000  32.0000 Du        
   2487 ****       222.5000  47.5000  32.2500 Du        
   2488 ****       222.5000  47.7500  30.5000 Du        
   2489 ****       222.5000  47.7500  30.7500 Du        
   2490 ****       222.5000  47.7500  31.0000 Du        
   2491 ****       222.5000  47.7500  31.2500 Du        
   2492 ****       222.5000  47.7500  31.5000 Du        
   2493 ****       222.5000  47.7500  31.7500 Du        
   2494 ****       222.5000  47.7500  32.0000 Du        
   2495 ****       222.5000  47.7500  32.2500 Du        
   2496 ****       222.5000  48.0000  30.5000 Du        
   2497 ****       222.5000  48.0000  30.7500 Du        
   2498 ****       222.5000  48.0000  31.0000 Du        
   2499 ****       222.5000  48.0000  31.2500 Du        
   2500 ****       222.5000  48.0000  31.5000 Du        
   2501 ****       222.5000  48.0000  31.7500 Du        
   2502 ****       222.5000  48.0000  32.0000 Du        
   2503 ****       222.5000  48.0000  32.2500 Du        
   2504 ****       222.5000  48.0000  32.5000 Du        
   2505 ****       222.5000  48.0000  32.7500 Du        
   2506 ****       222.5000  48.0000  33.0000 Du        
   2507 ****       222.5000  48.0000  33.2500 Du        
   2508 ****       222.5000  48.2500  30.7500 Du        
   2509 ****       222.5000  48.2500  31.0000 Du        
   2510 ****       222.5000  48.2500  31.2500 Du        
   2511 ****       222.5000  48.2500  31.5000 Du        
   2512 ****       222.5000  48.2500  31.7500 Du        
   2513 ****       222.5000  48.2500  32.0000 Du        
   2514 ****       222.5000  48.2500  32.2500 Du        
   2515 ****       222.5000  48.2500  32.5000 Du        
   2516 ****       222.5000  48.2500  32.7500 Du        
   2517 ****       222.5000  48.2500  33.0000 Du        
   2518 ****       222.5000  48.5000  31.0000 Du        
   2519 ****       222.5000  48.5000  31.2500 Du        
   2520 ****       222.5000  48.5000  31.5000 Du        
   2521 ****       222.5000  48.5000  31.7500 Du        
   2522 ****       222.5000  48.5000  32.0000 Du        
   2523 ****       222.5000  48.5000  32.2500 Du        
   2524 ****       222.5000  48.5000  32.5000 Du        
   2525 ****       222.5000  48.5000  32.7500 Du        
   2526 ****       222.5000  48.5000  33.0000 Du        
   2527 ****       222.5000  48.7500  31.2500 Du        
   2528 ****       222.5000  48.7500  31.5000 Du        
   2529 ****       222.5000  48.7500  31.7500 Du        
   2530 ****       222.5000  48.7500  32.0000 Du        
   2531 ****       222.5000  48.7500  32.2500 Du        
   2532 ****       222.5000  48.7500  32.5000 Du        
   2533 ****       222.5000  48.7500  32.7500 Du        
   2534 ****       222.5000  49.0000  31.2500 Du        
   2535 ****       222.5000  49.0000  31.5000 Du        
   2536 ****       222.5000  49.0000  31.7500 Du        
   2537 ****       222.5000  49.0000  32.0000 Du        
   2538 ****       222.5000  49.0000  32.2500 Du        
   2539 ****       222.5000  49.2500  31.7500 Du        
   2540 ****       222.5000  49.2500  32.0000 Du        
   2541 ****       222.5000  49.2500  32.2500 Du        
   2542 ****       222.7500  42.2500  32.0000 Du        
   2543 ****       222.7500  42.5000  31.2500 Du        
   2544 ****       222.7500  42.5000  31.5000 Du        
   2545 ****       222.7500  42.5000  31.7500 Du        
   2546 ****       222.7500  42.5000  32.0000 Du        
   2547 ****       222.7500  42.5000  32.2500 Du        
   2548 ****       222.7500  42.5000  32.5000 Du        
   2549 ****       222.7500  42.5000  32.7500 Du        
   2550 ****       222.7500  42.5000  33.0000 Du        
   2551 ****       222.7500  42.7500  31.2500 Du        
   2552 ****       222.7500  42.7500  31.5000 Du        
   2553 ****       222.7500  42.7500  31.7500 Du        
   2554 ****       222.7500  42.7500  32.0000 Du        
   2555 ****       222.7500  42.7500  32.2500 Du        
   2556 ****       222.7500  42.7500  32.5000 Du        
   2557 ****       222.7500  42.7500  32.7500 Du        
   2558 ****       222.7500  42.7500  33.0000 Du        
   2559 ****       222.7500  42.7500  33.2500 Du        
   2560 ****       222.7500  43.0000  31.2500 Du        
   2561 ****       222.7500  43.0000  31.5000 Du        
   2562 ****       222.7500  43.0000  31.7500 Du        
   2563 ****       222.7500  43.0000  32.0000 Du        
   2564 ****       222.7500  43.0000  32.2500 Du        
   2565 ****       222.7500  43.0000  32.5000 Du        
   2566 ****       222.7500  43.0000  32.7500 Du        
   2567 ****       222.7500  43.0000  33.0000 Du        
   2568 ****       222.7500  43.0000  33.2500 Du        
   2569 ****       222.7500  43.2500  31.5000 Du        
   2570 ****       222.7500  43.2500  31.7500 Du        
   2571 ****       222.7500  43.2500  32.0000 Du        
   2572 ****       222.7500  43.2500  32.2500 Du        
   2573 ****       222.7500  43.2500  32.5000 Du        
   2574 ****       222.7500  43.2500  32.7500 Du        
   2575 ****       222.7500  43.2500  33.0000 Du        
   2576 ****       222.7500  43.2500  33.2500 Du        
   2577 ****       222.7500  43.5000  31.5000 Du        
   2578 ****       222.7500  43.5000  31.7500 Du        
   2579 ****       222.7500  43.5000  32.0000 Du        
   2580 ****       222.7500  43.5000  32.2500 Du        
   2581 ****       222.7500  43.5000  32.5000 Du        
   2582 ****       222.7500  43.5000  32.7500 Du        
   2583 ****       222.7500  43.5000  33.0000 Du        
   2584 ****       222.7500  43.7500  31.5000 Du        
   2585 ****       222.7500  43.7500  31.7500 Du        
   2586 ****       222.7500  43.7500  32.0000 Du        
   2587 ****       222.7500  43.7500  32.2500 Du        
   2588 ****       222.7500  43.7500  32.5000 Du        
   2589 ****       222.7500  43.7500  32.7500 Du        
   2590 ****       222.7500  43.7500  33.0000 Du        
   2591 ****       222.7500  44.0000  31.5000 Du        
   2592 ****       222.7500  44.0000  31.7500 Du        
   2593 ****       222.7500  44.0000  32.0000 Du        
   2594 ****       222.7500  44.0000  32.2500 Du        
   2595 ****       222.7500  44.0000  32.5000 Du        
   2596 ****       222.7500  44.0000  32.7500 Du        
   2597 ****       222.7500  44.0000  33.0000 Du        
   2598 ****       222.7500  44.2500  31.5000 Du        
   2599 ****       222.7500  44.2500  31.7500 Du        
   2600 ****       222.7500  44.2500  32.0000 Du        
   2601 ****       222.7500  44.2500  32.2500 Du        
   2602 ****       222.7500  44.2500  32.5000 Du        
   2603 ****       222.7500  44.2500  32.7500 Du        
   2604 ****       222.7500  44.2500  33.0000 Du        
   2605 ****       222.7500  44.5000  31.5000 Du        
   2606 ****       222.7500  44.5000  31.7500 Du        
   2607 ****       222.7500  44.5000  32.0000 Du        
   2608 ****       222.7500  44.5000  32.2500 Du        
   2609 ****       222.7500  44.5000  32.5000 Du        
   2610 ****       222.7500  44.5000  32.7500 Du        
   2611 ****       222.7500  44.5000  33.0000 Du        
   2612 ****       222.7500  44.7500  31.2500 Du        
   2613 ****       222.7500  44.7500  31.5000 Du        
   2614 ****       222.7500  44.7500  31.7500 Du        
   2615 ****       222.7500  44.7500  32.0000 Du        
   2616 ****       222.7500  44.7500  32.2500 Du        
   2617 ****       222.7500  44.7500  32.5000 Du        
   2618 ****       222.7500  44.7500  32.7500 Du        
   2619 ****       222.7500  44.7500  33.0000 Du        
   2620 ****       222.7500  45.0000  31.2500 Du        
   2621 ****       222.7500  45.0000  31.5000 Du        
   2622 ****       222.7500  45.0000  31.7500 Du        
   2623 ****       222.7500  45.0000  32.0000 Du        
   2624 ****       222.7500  45.0000  32.2500 Du        
   2625 ****       222.7500  45.0000  32.5000 Du        
   2626 ****       222.7500  45.0000  32.7500 Du        
   2627 ****       222.7500  45.0000  33.0000 Du        
   2628 ****       222.7500  45.2500  31.0000 Du        
   2629 ****       222.7500  45.2500  31.2500 Du        
   2630 ****       222.7500  45.2500  31.5000 Du        
   2631 ****       222.7500  45.2500  31.7500 Du        
   2632 ****       222.7500  45.2500  32.0000 Du        
   2633 ****       222.7500  45.2500  32.2500 Du        
   2634 ****       222.7500  45.2500  32.5000 Du        
   2635 ****       222.7500  45.2500  32.7500 Du        
   2636 ****       222.7500  45.2500  33.0000 Du        
   2637 ****       222.7500  45.5000  31.0000 Du        
   2638 ****       222.7500  45.5000  31.2500 Du        
   2639 ****       222.7500  45.5000  31.5000 Du        
   2640 ****       222.7500  45.5000  31.7500 Du        
   2641 ****       222.7500  45.5000  32.0000 Du        
   2642 ****       222.7500  45.5000  32.2500 Du        
   2643 ****       222.7500  45.5000  32.5000 Du        
   2644 ****       222.7500  45.5000  32.7500 Du        
   2645 ****       222.7500  45.5000  33.0000 Du        
   2646 ****       222.7500  45.7500  30.7500 Du        
   2647 ****       222.7500  45.7500  31.0000 Du        
   2648 ****       222.7500  45.7500  31.2500 Du        
   2649 ****       222.7500  45.7500  31.5000 Du        
   2650 ****       222.7500  45.7500  31.7500 Du        
   2651 ****       222.7500  45.7500  32.0000 Du        
   2652 ****       222.7500  45.7500  32.2500 Du        
   2653 ****       222.7500  45.7500  32.5000 Du        
   2654 ****       222.7500  45.7500  32.7500 Du        
   2655 ****       222.7500  45.7500  33.0000 Du        
   2656 ****       222.7500  45.7500  33.2500 Du        
   2657 ****       222.7500  46.0000  30.7500 Du        
   2658 ****       222.7500  46.0000  31.0000 Du        
   2659 ****       222.7500  46.0000  31.2500 Du        
   2660 ****       222.7500  46.0000  31.5000 Du        
   2661 ****       222.7500  46.0000  31.7500 Du        
   2662 ****       222.7500  46.0000  32.0000 Du        
   2663 ****       222.7500  46.0000  32.2500 Du        
   2664 ****       222.7500  46.0000  32.5000 Du        
   2665 ****       222.7500  46.0000  32.7500 Du        
   2666 ****       222.7500  46.0000  33.0000 Du        
   2667 ****       222.7500  46.0000  33.2500 Du        
   2668 ****       222.7500  46.2500  30.7500 Du        
   2669 ****       222.7500  46.2500  31.0000 Du        
   2670 ****       222.7500  46.2500  31.2500 Du        
   2671 ****       222.7500  46.2500  31.5000 Du        
   2672 ****       222.7500  46.2500  31.7500 Du        
   2673 ****       222.7500  46.2500  32.0000 Du        
   2674 ****       222.7500  46.2500  32.2500 Du        
   2675 ****       222.7500  46.2500  32.5000 Du        
   2676 ****       222.7500  46.2500  32.7500 Du        
   2677 ****       222.7500  46.2500  33.0000 Du        
   2678 ****       222.7500  46.2500  33.2500 Du        
   2679 ****       222.7500  46.5000  30.5000 Du        
   2680 ****       222.7500  46.5000  30.7500 Du        
   2681 ****       222.7500  46.5000  31.0000 Du        
   2682 ****       222.7500  46.5000  31.2500 Du        
   2683 ****       222.7500  46.5000  31.5000 Du        
   2684 ****       222.7500  46.5000  31.7500 Du        
   2685 ****       222.7500  46.5000  32.0000 Du        
   2686 ****       222.7500  46.5000  32.2500 Du        
   2687 ****       222.7500  46.5000  32.5000 Du        
   2688 ****       222.7500  46.5000  32.7500 Du        
   2689 ****       222.7500  46.7500  30.5000 Du        
   2690 ****       222.7500  46.7500  30.7500 Du        
   2691 ****       222.7500  46.7500  31.0000 Du        
   2692 ****       222.7500  46.7500  31.2500 Du        
   2693 ****       222.7500  46.7500  31.5000 Du        
   2694 ****       222.7500  46.7500  31.7500 Du        
   2695 ****       222.7500  46.7500  32.0000 Du        
   2696 ****       222.7500  46.7500  32.2500 Du        
   2697 ****       222.7500  46.7500  32.5000 Du        
   2698 ****       222.7500  46.7500  32.7500 Du        
   2699 ****       222.7500  47.0000  30.5000 Du        
   2700 ****       222.7500  47.0000  30.7500 Du        
   2701 ****       222.7500  47.0000  31.0000 Du        
   2702 ****       222.7500  47.0000  31.2500 Du        
   2703 ****       222.7500  47.0000  31.5000 Du        
   2704 ****       222.7500  47.0000  31.7500 Du        
   2705 ****       222.7500  47.0000  32.0000 Du        
   2706 ****       222.7500  47.0000  32.2500 Du        
   2707 ****       222.7500  47.0000  32.7500 Du        
   2708 ****       222.7500  47.2500  30.5000 Du        
   2709 ****       222.7500  47.2500  30.7500 Du        
   2710 ****       222.7500  47.2500  31.0000 Du        
   2711 ****       222.7500  47.2500  31.2500 Du        
   2712 ****       222.7500  47.2500  31.5000 Du        
   2713 ****       222.7500  47.2500  31.7500 Du        
   2714 ****       222.7500  47.2500  32.0000 Du        
   2715 ****       222.7500  47.2500  32.2500 Du        
   2716 ****       222.7500  47.2500  32.5000 Du        
   2717 ****       222.7500  47.5000  30.5000 Du        
   2718 ****       222.7500  47.5000  30.7500 Du        
   2719 ****       222.7500  47.5000  31.0000 Du        
   2720 ****       222.7500  47.5000  31.2500 Du        
   2721 ****       222.7500  47.5000  31.5000 Du        
   2722 ****       222.7500  47.5000  31.7500 Du        
   2723 ****       222.7500  47.5000  32.0000 Du        
   2724 ****       222.7500  47.5000  32.2500 Du        
   2725 ****       222.7500  47.7500  30.2500 Du        
   2726 ****       222.7500  47.7500  30.5000 Du        
   2727 ****       222.7500  47.7500  30.7500 Du        
   2728 ****       222.7500  47.7500  31.0000 Du        
   2729 ****       222.7500  47.7500  31.2500 Du        
   2730 ****       222.7500  47.7500  31.5000 Du        
   2731 ****       222.7500  47.7500  31.7500 Du        
   2732 ****       222.7500  47.7500  32.0000 Du        
   2733 ****       222.7500  47.7500  32.2500 Du        
   2734 ****       222.7500  47.7500  32.5000 Du        
   2735 ****       222.7500  47.7500  32.7500 Du        
   2736 ****       222.7500  48.0000  30.5000 Du        
   2737 ****       222.7500  48.0000  30.7500 Du        
   2738 ****       222.7500  48.0000  31.0000 Du        
   2739 ****       222.7500  48.0000  31.2500 Du        
   2740 ****       222.7500  48.0000  31.5000 Du        
   2741 ****       222.7500  48.0000  31.7500 Du        
   2742 ****       222.7500  48.0000  32.0000 Du        
   2743 ****       222.7500  48.0000  32.2500 Du        
   2744 ****       222.7500  48.0000  32.5000 Du        
   2745 ****       222.7500  48.0000  32.7500 Du        
   2746 ****       222.7500  48.0000  33.0000 Du        
   2747 ****       222.7500  48.2500  30.5000 Du        
   2748 ****       222.7500  48.2500  30.7500 Du        
   2749 ****       222.7500  48.2500  31.0000 Du        
   2750 ****       222.7500  48.2500  31.2500 Du        
   2751 ****       222.7500  48.2500  31.5000 Du        
   2752 ****       222.7500  48.2500  31.7500 Du        
   2753 ****       222.7500  48.2500  32.0000 Du        
   2754 ****       222.7500  48.2500  32.2500 Du        
   2755 ****       222.7500  48.2500  32.5000 Du        
   2756 ****       222.7500  48.2500  32.7500 Du        
   2757 ****       222.7500  48.2500  33.0000 Du        
   2758 ****       222.7500  48.5000  30.7500 Du        
   2759 ****       222.7500  48.5000  31.0000 Du        
   2760 ****       222.7500  48.5000  31.2500 Du        
   2761 ****       222.7500  48.5000  31.5000 Du        
   2762 ****       222.7500  48.5000  31.7500 Du        
   2763 ****       222.7500  48.5000  32.0000 Du        
   2764 ****       222.7500  48.5000  32.2500 Du        
   2765 ****       222.7500  48.5000  32.5000 Du        
   2766 ****       222.7500  48.5000  32.7500 Du        
   2767 ****       222.7500  48.5000  33.0000 Du        
   2768 ****       222.7500  48.7500  31.0000 Du        
   2769 ****       222.7500  48.7500  31.2500 Du        
   2770 ****       222.7500  48.7500  31.5000 Du        
   2771 ****       222.7500  48.7500  31.7500 Du        
   2772 ****       222.7500  48.7500  32.0000 Du        
   2773 ****       222.7500  48.7500  32.2500 Du        
   2774 ****       222.7500  48.7500  32.5000 Du        
   2775 ****       222.7500  48.7500  32.7500 Du        
   2776 ****       222.7500  48.7500  33.0000 Du        
   2777 ****       222.7500  49.0000  31.2500 Du        
   2778 ****       222.7500  49.0000  31.5000 Du        
   2779 ****       222.7500  49.0000  31.7500 Du        
   2780 ****       222.7500  49.0000  32.0000 Du        
   2781 ****       222.7500  49.0000  32.2500 Du        
   2782 ****       222.7500  49.0000  32.5000 Du        
   2783 ****       222.7500  49.2500  31.7500 Du        
   2784 ****       222.7500  49.2500  32.0000 Du        
   2785 ****       222.7500  49.2500  32.2500 Du        
   2786 ****       222.7500  49.5000  32.0000 Du        
   2787 ****       223.0000  42.5000  31.7500 Du        
   2788 ****       223.0000  42.5000  32.0000 Du        
   2789 ****       223.0000  42.5000  32.2500 Du        
   2790 ****       223.0000  42.5000  32.5000 Du        
   2791 ****       223.0000  42.5000  32.7500 Du        
   2792 ****       223.0000  42.5000  33.0000 Du        
   2793 ****       223.0000  42.7500  31.7500 Du        
   2794 ****       223.0000  42.7500  32.0000 Du        
   2795 ****       223.0000  42.7500  32.2500 Du        
   2796 ****       223.0000  42.7500  32.5000 Du        
   2797 ****       223.0000  42.7500  32.7500 Du        
   2798 ****       223.0000  42.7500  33.0000 Du        
   2799 ****       223.0000  42.7500  33.2500 Du        
   2800 ****       223.0000  43.0000  31.7500 Du        
   2801 ****       223.0000  43.0000  32.0000 Du        
   2802 ****       223.0000  43.0000  32.2500 Du        
   2803 ****       223.0000  43.0000  32.5000 Du        
   2804 ****       223.0000  43.0000  32.7500 Du        
   2805 ****       223.0000  43.0000  33.0000 Du        
   2806 ****       223.0000  43.0000  33.2500 Du        
   2807 ****       223.0000  43.2500  31.7500 Du        
   2808 ****       223.0000  43.2500  32.0000 Du        
   2809 ****       223.0000  43.2500  32.2500 Du        
   2810 ****       223.0000  43.2500  32.5000 Du        
   2811 ****       223.0000  43.2500  32.7500 Du        
   2812 ****       223.0000  43.2500  33.0000 Du        
   2813 ****       223.0000  43.2500  33.2500 Du        
   2814 ****       223.0000  43.5000  31.7500 Du        
   2815 ****       223.0000  43.5000  32.0000 Du        
   2816 ****       223.0000  43.5000  32.2500 Du        
   2817 ****       223.0000  43.5000  32.5000 Du        
   2818 ****       223.0000  43.5000  32.7500 Du        
   2819 ****       223.0000  43.5000  33.0000 Du        
   2820 ****       223.0000  43.7500  31.7500 Du        
   2821 ****       223.0000  43.7500  32.0000 Du        
   2822 ****       223.0000  43.7500  32.2500 Du        
   2823 ****       223.0000  43.7500  32.5000 Du        
   2824 ****       223.0000  43.7500  32.7500 Du        
   2825 ****       223.0000  43.7500  33.0000 Du        
   2826 ****       223.0000  44.0000  31.7500 Du        
   2827 ****       223.0000  44.0000  32.0000 Du        
   2828 ****       223.0000  44.0000  32.2500 Du        
   2829 ****       223.0000  44.0000  32.5000 Du        
   2830 ****       223.0000  44.0000  32.7500 Du        
   2831 ****       223.0000  44.0000  33.0000 Du        
   2832 ****       223.0000  44.2500  31.7500 Du        
   2833 ****       223.0000  44.2500  32.0000 Du        
   2834 ****       223.0000  44.2500  32.2500 Du        
   2835 ****       223.0000  44.2500  32.5000 Du        
   2836 ****       223.0000  44.2500  32.7500 Du        
   2837 ****       223.0000  44.2500  33.0000 Du        
   2838 ****       223.0000  44.5000  31.5000 Du        
   2839 ****       223.0000  44.5000  31.7500 Du        
   2840 ****       223.0000  44.5000  32.0000 Du        
   2841 ****       223.0000  44.5000  32.2500 Du        
   2842 ****       223.0000  44.5000  32.5000 Du        
   2843 ****       223.0000  44.5000  32.7500 Du        
   2844 ****       223.0000  44.5000  33.0000 Du        
   2845 ****       223.0000  44.7500  31.5000 Du        
   2846 ****       223.0000  44.7500  31.7500 Du        
   2847 ****       223.0000  44.7500  32.0000 Du        
   2848 ****       223.0000  44.7500  32.2500 Du        
   2849 ****       223.0000  44.7500  32.5000 Du        
   2850 ****       223.0000  44.7500  32.7500 Du        
   2851 ****       223.0000  44.7500  33.0000 Du        
   2852 ****       223.0000  45.0000  31.2500 Du        
   2853 ****       223.0000  45.0000  31.5000 Du        
   2854 ****       223.0000  45.0000  31.7500 Du        
   2855 ****       223.0000  45.0000  32.0000 Du        
   2856 ****       223.0000  45.0000  32.2500 Du        
   2857 ****       223.0000  45.0000  32.5000 Du        
   2858 ****       223.0000  45.0000  32.7500 Du        
   2859 ****       223.0000  45.0000  33.0000 Du        
   2860 ****       223.0000  45.0000  33.2500 Du        
   2861 ****       223.0000  45.2500  31.0000 Du        
   2862 ****       223.0000  45.2500  31.2500 Du        
   2863 ****       223.0000  45.2500  31.5000 Du        
   2864 ****       223.0000  45.2500  31.7500 Du        
   2865 ****       223.0000  45.2500  32.0000 Du        
   2866 ****       223.0000  45.2500  32.2500 Du        
   2867 ****       223.0000  45.2500  32.5000 Du        
   2868 ****       223.0000  45.2500  32.7500 Du        
   2869 ****       223.0000  45.2500  33.0000 Du        
   2870 ****       223.0000  45.5000  30.7500 Du        
   2871 ****       223.0000  45.5000  31.0000 Du        
   2872 ****       223.0000  45.5000  31.2500 Du        
   2873 ****       223.0000  45.5000  31.5000 Du        
   2874 ****       223.0000  45.5000  31.7500 Du        
   2875 ****       223.0000  45.5000  32.0000 Du        
   2876 ****       223.0000  45.5000  32.2500 Du        
   2877 ****       223.0000  45.5000  32.5000 Du        
   2878 ****       223.0000  45.5000  32.7500 Du        
   2879 ****       223.0000  45.5000  33.0000 Du        
   2880 ****       223.0000  45.7500  30.5000 Du        
   2881 ****       223.0000  45.7500  30.7500 Du        
   2882 ****       223.0000  45.7500  31.0000 Du        
   2883 ****       223.0000  45.7500  31.2500 Du        
   2884 ****       223.0000  45.7500  31.5000 Du        
   2885 ****       223.0000  45.7500  31.7500 Du        
   2886 ****       223.0000  45.7500  32.0000 Du        
   2887 ****       223.0000  45.7500  32.2500 Du        
   2888 ****       223.0000  45.7500  32.5000 Du        
   2889 ****       223.0000  45.7500  32.7500 Du        
   2890 ****       223.0000  45.7500  33.0000 Du        
   2891 ****       223.0000  45.7500  33.2500 Du        
   2892 ****       223.0000  46.0000  30.5000 Du        
   2893 ****       223.0000  46.0000  30.7500 Du        
   2894 ****       223.0000  46.0000  31.0000 Du        
   2895 ****       223.0000  46.0000  31.2500 Du        
   2896 ****       223.0000  46.0000  31.5000 Du        
   2897 ****       223.0000  46.0000  31.7500 Du        
   2898 ****       223.0000  46.0000  32.0000 Du        
   2899 ****       223.0000  46.0000  32.2500 Du        
   2900 ****       223.0000  46.0000  32.5000 Du        
   2901 ****       223.0000  46.0000  32.7500 Du        
   2902 ****       223.0000  46.0000  33.0000 Du        
   2903 ****       223.0000  46.0000  33.2500 Du        
   2904 ****       223.0000  46.2500  30.2500 Du        
   2905 ****       223.0000  46.2500  30.5000 Du        
   2906 ****       223.0000  46.2500  30.7500 Du        
   2907 ****       223.0000  46.2500  31.0000 Du        
   2908 ****       223.0000  46.2500  31.2500 Du        
   2909 ****       223.0000  46.2500  31.5000 Du        
   2910 ****       223.0000  46.2500  31.7500 Du        
   2911 ****       223.0000  46.2500  32.0000 Du        
   2912 ****       223.0000  46.2500  32.2500 Du        
   2913 ****       223.0000  46.2500  32.5000 Du        
   2914 ****       223.0000  46.2500  32.7500 Du        
   2915 ****       223.0000  46.2500  33.0000 Du        
   2916 ****       223.0000  46.2500  33.2500 Du        
   2917 ****       223.0000  46.5000  30.2500 Du        
   2918 ****       223.0000  46.5000  30.5000 Du        
   2919 ****       223.0000  46.5000  30.7500 Du        
   2920 ****       223.0000  46.5000  31.0000 Du        
   2921 ****       223.0000  46.5000  31.2500 Du        
   2922 ****       223.0000  46.5000  31.5000 Du        
   2923 ****       223.0000  46.5000  31.7500 Du        
   2924 ****       223.0000  46.5000  32.0000 Du        
   2925 ****       223.0000  46.5000  32.2500 Du        
   2926 ****       223.0000  46.5000  32.5000 Du        
   2927 ****       223.0000  46.5000  32.7500 Du        
   2928 ****       223.0000  46.5000  33.0000 Du        
   2929 ****       223.0000  46.7500  30.2500 Du        
   2930 ****       223.0000  46.7500  30.5000 Du        
   2931 ****       223.0000  46.7500  30.7500 Du        
   2932 ****       223.0000  46.7500  31.0000 Du        
   2933 ****       223.0000  46.7500  31.2500 Du        
   2934 ****       223.0000  46.7500  31.5000 Du        
   2935 ****       223.0000  46.7500  31.7500 Du        
   2936 ****       223.0000  46.7500  32.0000 Du        
   2937 ****       223.0000  46.7500  32.2500 Du        
   2938 ****       223.0000  46.7500  32.5000 Du        
   2939 ****       223.0000  46.7500  32.7500 Du        
   2940 ****       223.0000  47.0000  30.2500 Du        
   2941 ****       223.0000  47.0000  30.5000 Du        
   2942 ****       223.0000  47.0000  30.7500 Du        
   2943 ****       223.0000  47.0000  31.0000 Du        
   2944 ****       223.0000  47.0000  31.2500 Du        
   2945 ****       223.0000  47.0000  31.5000 Du        
   2946 ****       223.0000  47.0000  31.7500 Du        
   2947 ****       223.0000  47.0000  32.0000 Du        
   2948 ****       223.0000  47.0000  32.2500 Du        
   2949 ****       223.0000  47.0000  32.5000 Du        
   2950 ****       223.0000  47.0000  32.7500 Du        
   2951 ****       223.0000  47.0000  33.0000 Du        
   2952 ****       223.0000  47.2500  30.2500 Du        
   2953 ****       223.0000  47.2500  30.5000 Du        
   2954 ****       223.0000  47.2500  30.7500 Du        
   2955 ****       223.0000  47.2500  31.0000 Du        
   2956 ****       223.0000  47.2500  31.2500 Du        
   2957 ****       223.0000  47.2500  31.5000 Du        
   2958 ****       223.0000  47.2500  31.7500 Du        
   2959 ****       223.0000  47.2500  32.0000 Du        
   2960 ****       223.0000  47.2500  32.2500 Du        
   2961 ****       223.0000  47.2500  32.5000 Du        
   2962 ****       223.0000  47.2500  32.7500 Du        
   2963 ****       223.0000  47.5000  30.2500 Du        
   2964 ****       223.0000  47.5000  30.5000 Du        
   2965 ****       223.0000  47.5000  30.7500 Du        
   2966 ****       223.0000  47.5000  31.0000 Du        
   2967 ****       223.0000  47.5000  31.2500 Du        
   2968 ****       223.0000  47.5000  31.5000 Du        
   2969 ****       223.0000  47.5000  31.7500 Du        
   2970 ****       223.0000  47.5000  32.0000 Du        
   2971 ****       223.0000  47.5000  32.2500 Du        
   2972 ****       223.0000  47.7500  30.2500 Du        
   2973 ****       223.0000  47.7500  30.5000 Du        
   2974 ****       223.0000  47.7500  30.7500 Du        
   2975 ****       223.0000  47.7500  31.0000 Du        
   2976 ****       223.0000  47.7500  31.2500 Du        
   2977 ****       223.0000  47.7500  31.5000 Du        
   2978 ****       223.0000  47.7500  31.7500 Du        
   2979 ****       223.0000  47.7500  32.0000 Du        
   2980 ****       223.0000  47.7500  32.2500 Du        
   2981 ****       223.0000  47.7500  32.5000 Du        
   2982 ****       223.0000  48.0000  30.2500 Du        
   2983 ****       223.0000  48.0000  30.5000 Du        
   2984 ****       223.0000  48.0000  30.7500 Du        
   2985 ****       223.0000  48.0000  31.0000 Du        
   2986 ****       223.0000  48.0000  31.2500 Du        
   2987 ****       223.0000  48.0000  31.5000 Du        
   2988 ****       223.0000  48.0000  31.7500 Du        
   2989 ****       223.0000  48.0000  32.0000 Du        
   2990 ****       223.0000  48.0000  32.2500 Du        
   2991 ****       223.0000  48.0000  32.5000 Du        
   2992 ****       223.0000  48.0000  32.7500 Du        
   2993 ****       223.0000  48.2500  30.2500 Du        
   2994 ****       223.0000  48.2500  30.5000 Du        
   2995 ****       223.0000  48.2500  30.7500 Du        
   2996 ****       223.0000  48.2500  31.0000 Du        
   2997 ****       223.0000  48.2500  31.2500 Du        
   2998 ****       223.0000  48.2500  31.5000 Du        
   2999 ****       223.0000  48.2500  31.7500 Du        
   3000 ****       223.0000  48.2500  32.0000 Du        
   3001 ****       223.0000  48.2500  32.2500 Du        
   3002 ****       223.0000  48.2500  32.5000 Du        
   3003 ****       223.0000  48.2500  32.7500 Du        
   3004 ****       223.0000  48.5000  30.7500 Du        
   3005 ****       223.0000  48.5000  31.0000 Du        
   3006 ****       223.0000  48.5000  31.2500 Du        
   3007 ****       223.0000  48.5000  31.5000 Du        
   3008 ****       223.0000  48.5000  31.7500 Du        
   3009 ****       223.0000  48.5000  32.0000 Du        
   3010 ****       223.0000  48.5000  32.2500 Du        
   3011 ****       223.0000  48.5000  32.5000 Du        
   3012 ****       223.0000  48.7500  31.0000 Du        
   3013 ****       223.0000  48.7500  31.2500 Du        
   3014 ****       223.0000  48.7500  31.5000 Du        
   3015 ****       223.0000  48.7500  31.7500 Du        
   3016 ****       223.0000  48.7500  32.0000 Du        
   3017 ****       223.0000  48.7500  32.2500 Du        
   3018 ****       223.0000  48.7500  32.5000 Du        
   3019 ****       223.0000  48.7500  32.7500 Du        
   3020 ****       223.0000  49.0000  31.2500 Du        
   3021 ****       223.0000  49.0000  31.5000 Du        
   3022 ****       223.0000  49.0000  31.7500 Du        
   3023 ****       223.0000  49.0000  32.0000 Du        
   3024 ****       223.0000  49.0000  32.2500 Du        
   3025 ****       223.0000  49.0000  32.5000 Du        
   3026 ****       223.0000  49.2500  31.5000 Du        
   3027 ****       223.0000  49.2500  31.7500 Du        
   3028 ****       223.0000  49.2500  32.0000 Du        
   3029 ****       223.0000  49.2500  32.2500 Du        
   3030 ****       223.0000  49.2500  32.5000 Du        
   3031 ****       223.0000  49.5000  32.0000 Du        
   3032 ****       223.0000  49.5000  32.2500 Du        
   3033 ****       223.2500  42.5000  32.2500 Du        
   3034 ****       223.2500  42.7500  32.0000 Du        
   3035 ****       223.2500  42.7500  32.2500 Du        
   3036 ****       223.2500  42.7500  32.5000 Du        
   3037 ****       223.2500  42.7500  32.7500 Du        
   3038 ****       223.2500  42.7500  33.0000 Du        
   3039 ****       223.2500  43.0000  31.7500 Du        
   3040 ****       223.2500  43.0000  32.0000 Du        
   3041 ****       223.2500  43.0000  32.2500 Du        
   3042 ****       223.2500  43.0000  32.5000 Du        
   3043 ****       223.2500  43.0000  32.7500 Du        
   3044 ****       223.2500  43.0000  33.0000 Du        
   3045 ****       223.2500  43.2500  31.7500 Du        
   3046 ****       223.2500  43.2500  32.0000 Du        
   3047 ****       223.2500  43.2500  32.2500 Du        
   3048 ****       223.2500  43.2500  32.5000 Du        
   3049 ****       223.2500  43.2500  32.7500 Du        
   3050 ****       223.2500  43.2500  33.0000 Du        
   3051 ****       223.2500  43.5000  31.7500 Du        
   3052 ****       223.2500  43.5000  32.0000 Du        
   3053 ****       223.2500  43.5000  32.2500 Du        
   3054 ****       223.2500  43.5000  32.5000 Du        
   3055 ****       223.2500  43.5000  32.7500 Du        
   3056 ****       223.2500  43.5000  33.0000 Du        
   3057 ****       223.2500  43.7500  31.7500 Du        
   3058 ****       223.2500  43.7500  32.0000 Du        
   3059 ****       223.2500  43.7500  32.2500 Du        
   3060 ****       223.2500  43.7500  32.5000 Du        
   3061 ****       223.2500  43.7500  32.7500 Du        
   3062 ****       223.2500  43.7500  33.0000 Du        
   3063 ****       223.2500  44.0000  31.7500 Du        
   3064 ****       223.2500  44.0000  32.0000 Du        
   3065 ****       223.2500  44.0000  32.2500 Du        
   3066 ****       223.2500  44.0000  32.5000 Du        
   3067 ****       223.2500  44.0000  32.7500 Du        
   3068 ****       223.2500  44.0000  33.0000 Du        
   3069 ****       223.2500  44.2500  31.7500 Du        
   3070 ****       223.2500  44.2500  32.0000 Du        
   3071 ****       223.2500  44.2500  32.2500 Du        
   3072 ****       223.2500  44.2500  32.5000 Du        
   3073 ****       223.2500  44.2500  32.7500 Du        
   3074 ****       223.2500  44.2500  33.0000 Du        
   3075 ****       223.2500  44.5000  31.7500 Du        
   3076 ****       223.2500  44.5000  32.0000 Du        
   3077 ****       223.2500  44.5000  32.2500 Du        
   3078 ****       223.2500  44.5000  32.5000 Du        
   3079 ****       223.2500  44.5000  32.7500 Du        
   3080 ****       223.2500  44.5000  33.0000 Du        
   3081 ****       223.2500  44.7500  31.7500 Du        
   3082 ****       223.2500  44.7500  32.0000 Du        
   3083 ****       223.2500  44.7500  32.2500 Du        
   3084 ****       223.2500  44.7500  32.5000 Du        
   3085 ****       223.2500  44.7500  32.7500 Du        
   3086 ****       223.2500  44.7500  33.0000 Du        
   3087 ****       223.2500  45.0000  31.5000 Du        
   3088 ****       223.2500  45.0000  31.7500 Du        
   3089 ****       223.2500  45.0000  32.0000 Du        
   3090 ****       223.2500  45.0000  32.2500 Du        
   3091 ****       223.2500  45.0000  32.5000 Du        
   3092 ****       223.2500  45.0000  32.7500 Du        
   3093 ****       223.2500  45.0000  33.0000 Du        
   3094 ****       223.2500  45.0000  33.2500 Du        
   3095 ****       223.2500  45.2500  31.2500 Du        
   3096 ****       223.2500  45.2500  31.5000 Du        
   3097 ****       223.2500  45.2500  31.7500 Du        
   3098 ****       223.2500  45.2500  32.0000 Du        
   3099 ****       223.2500  45.2500  32.2500 Du        
   3100 ****       223.2500  45.2500  32.5000 Du        
   3101 ****       223.2500  45.2500  32.7500 Du        
   3102 ****       223.2500  45.2500  33.0000 Du        
   3103 ****       223.2500  45.2500  33.2500 Du        
   3104 ****       223.2500  45.5000  31.0000 Du        
   3105 ****       223.2500  45.5000  31.2500 Du        
   3106 ****       223.2500  45.5000  31.5000 Du        
   3107 ****       223.2500  45.5000  31.7500 Du        
   3108 ****       223.2500  45.5000  32.0000 Du        
   3109 ****       223.2500  45.5000  32.2500 Du        
   3110 ****       223.2500  45.5000  32.5000 Du        
   3111 ****       223.2500  45.5000  32.7500 Du        
   3112 ****       223.2500  45.5000  33.0000 Du        
   3113 ****       223.2500  45.7500  30.5000 Du        
   3114 ****       223.2500  45.7500  30.7500 Du        
   3115 ****       223.2500  45.7500  31.0000 Du        
   3116 ****       223.2500  45.7500  31.2500 Du        
   3117 ****       223.2500  45.7500  31.5000 Du        
   3118 ****       223.2500  45.7500  31.7500 Du        
   3119 ****       223.2500  45.7500  32.0000 Du        
   3120 ****       223.2500  45.7500  32.2500 Du        
   3121 ****       223.2500  45.7500  32.5000 Du        
   3122 ****       223.2500  45.7500  32.7500 Du        
   3123 ****       223.2500  45.7500  33.0000 Du        
   3124 ****       223.2500  45.7500  33.2500 Du        
   3125 ****       223.2500  46.0000  30.2500 Du        
   3126 ****       223.2500  46.0000  30.5000 Du        
   3127 ****       223.2500  46.0000  30.7500 Du        
   3128 ****       223.2500  46.0000  31.0000 Du        
   3129 ****       223.2500  46.0000  31.2500 Du        
   3130 ****       223.2500  46.0000  31.5000 Du        
   3131 ****       223.2500  46.0000  31.7500 Du        
   3132 ****       223.2500  46.0000  32.0000 Du        
   3133 ****       223.2500  46.0000  32.2500 Du        
   3134 ****       223.2500  46.0000  32.5000 Du        
   3135 ****       223.2500  46.0000  32.7500 Du        
   3136 ****       223.2500  46.0000  33.0000 Du        
   3137 ****       223.2500  46.0000  33.2500 Du        
   3138 ****       223.2500  46.2500  30.0000 Du        
   3139 ****       223.2500  46.2500  30.2500 Du        
   3140 ****       223.2500  46.2500  30.5000 Du        
   3141 ****       223.2500  46.2500  30.7500 Du        
   3142 ****       223.2500  46.2500  31.0000 Du        
   3143 ****       223.2500  46.2500  31.2500 Du        
   3144 ****       223.2500  46.2500  31.5000 Du        
   3145 ****       223.2500  46.2500  31.7500 Du        
   3146 ****       223.2500  46.2500  32.0000 Du        
   3147 ****       223.2500  46.2500  32.2500 Du        
   3148 ****       223.2500  46.2500  32.5000 Du        
   3149 ****       223.2500  46.2500  32.7500 Du        
   3150 ****       223.2500  46.2500  33.0000 Du        
   3151 ****       223.2500  46.2500  33.2500 Du        
   3152 ****       223.2500  46.5000  30.0000 Du        
   3153 ****       223.2500  46.5000  30.2500 Du        
   3154 ****       223.2500  46.5000  30.5000 Du        
   3155 ****       223.2500  46.5000  30.7500 Du        
   3156 ****       223.2500  46.5000  31.0000 Du        
   3157 ****       223.2500  46.5000  31.2500 Du        
   3158 ****       223.2500  46.5000  31.5000 Du        
   3159 ****       223.2500  46.5000  31.7500 Du        
   3160 ****       223.2500  46.5000  32.0000 Du        
   3161 ****       223.2500  46.5000  32.2500 Du        
   3162 ****       223.2500  46.5000  32.5000 Du        
   3163 ****       223.2500  46.5000  32.7500 Du        
   3164 ****       223.2500  46.5000  33.0000 Du        
   3165 ****       223.2500  46.7500  30.0000 Du        
   3166 ****       223.2500  46.7500  30.2500 Du        
   3167 ****       223.2500  46.7500  30.5000 Du        
   3168 ****       223.2500  46.7500  30.7500 Du        
   3169 ****       223.2500  46.7500  31.0000 Du        
   3170 ****       223.2500  46.7500  31.2500 Du        
   3171 ****       223.2500  46.7500  31.5000 Du        
   3172 ****       223.2500  46.7500  31.7500 Du        
   3173 ****       223.2500  46.7500  32.0000 Du        
   3174 ****       223.2500  46.7500  32.2500 Du        
   3175 ****       223.2500  46.7500  32.5000 Du        
   3176 ****       223.2500  46.7500  32.7500 Du        
   3177 ****       223.2500  47.0000  30.0000 Du        
   3178 ****       223.2500  47.0000  30.2500 Du        
   3179 ****       223.2500  47.0000  30.5000 Du        
   3180 ****       223.2500  47.0000  30.7500 Du        
   3181 ****       223.2500  47.0000  31.0000 Du        
   3182 ****       223.2500  47.0000  31.2500 Du        
   3183 ****       223.2500  47.0000  31.5000 Du        
   3184 ****       223.2500  47.0000  31.7500 Du        
   3185 ****       223.2500  47.0000  32.0000 Du        
   3186 ****       223.2500  47.0000  32.2500 Du        
   3187 ****       223.2500  47.0000  32.5000 Du        
   3188 ****       223.2500  47.0000  32.7500 Du        
   3189 ****       223.2500  47.2500  30.0000 Du        
   3190 ****       223.2500  47.2500  30.2500 Du        
   3191 ****       223.2500  47.2500  30.5000 Du        
   3192 ****       223.2500  47.2500  30.7500 Du        
   3193 ****       223.2500  47.2500  31.0000 Du        
   3194 ****       223.2500  47.2500  31.2500 Du        
   3195 ****       223.2500  47.2500  31.5000 Du        
   3196 ****       223.2500  47.2500  31.7500 Du        
   3197 ****       223.2500  47.2500  32.0000 Du        
   3198 ****       223.2500  47.2500  32.2500 Du        
   3199 ****       223.2500  47.2500  32.5000 Du        
   3200 ****       223.2500  47.2500  32.7500 Du        
   3201 ****       223.2500  47.5000  30.0000 Du        
   3202 ****       223.2500  47.5000  30.2500 Du        
   3203 ****       223.2500  47.5000  30.5000 Du        
   3204 ****       223.2500  47.5000  30.7500 Du        
   3205 ****       223.2500  47.5000  31.0000 Du        
   3206 ****       223.2500  47.5000  31.2500 Du        
   3207 ****       223.2500  47.5000  31.5000 Du        
   3208 ****       223.2500  47.5000  31.7500 Du        
   3209 ****       223.2500  47.5000  32.0000 Du        
   3210 ****       223.2500  47.5000  32.2500 Du        
   3211 ****       223.2500  47.7500  30.0000 Du        
   3212 ****       223.2500  47.7500  30.2500 Du        
   3213 ****       223.2500  47.7500  30.5000 Du        
   3214 ****       223.2500  47.7500  30.7500 Du        
   3215 ****       223.2500  47.7500  31.0000 Du        
   3216 ****       223.2500  47.7500  31.2500 Du        
   3217 ****       223.2500  47.7500  31.5000 Du        
   3218 ****       223.2500  47.7500  31.7500 Du        
   3219 ****       223.2500  47.7500  32.0000 Du        
   3220 ****       223.2500  47.7500  32.2500 Du        
   3221 ****       223.2500  48.0000  30.0000 Du        
   3222 ****       223.2500  48.0000  30.2500 Du        
   3223 ****       223.2500  48.0000  30.5000 Du        
   3224 ****       223.2500  48.0000  30.7500 Du        
   3225 ****       223.2500  48.0000  31.0000 Du        
   3226 ****       223.2500  48.0000  31.2500 Du        
   3227 ****       223.2500  48.0000  31.5000 Du        
   3228 ****       223.2500  48.0000  31.7500 Du        
   3229 ****       223.2500  48.0000  32.0000 Du        
   3230 ****       223.2500  48.0000  32.2500 Du        
   3231 ****       223.2500  48.2500  30.0000 Du        
   3232 ****       223.2500  48.2500  30.2500 Du        
   3233 ****       223.2500  48.2500  30.5000 Du        
   3234 ****       223.2500  48.2500  30.7500 Du        
   3235 ****       223.2500  48.2500  31.0000 Du        
   3236 ****       223.2500  48.2500  31.2500 Du        
   3237 ****       223.2500  48.2500  31.5000 Du        
   3238 ****       223.2500  48.2500  31.7500 Du        
   3239 ****       223.2500  48.2500  32.0000 Du        
   3240 ****       223.2500  48.2500  32.2500 Du        
   3241 ****       223.2500  48.2500  32.5000 Du        
   3242 ****       223.2500  48.5000  30.5000 Du        
   3243 ****       223.2500  48.5000  30.7500 Du        
   3244 ****       223.2500  48.5000  31.0000 Du        
   3245 ****       223.2500  48.5000  31.2500 Du        
   3246 ****       223.2500  48.5000  31.5000 Du        
   3247 ****       223.2500  48.5000  31.7500 Du        
   3248 ****       223.2500  48.5000  32.0000 Du        
   3249 ****       223.2500  48.7500  30.7500 Du        
   3250 ****       223.2500  48.7500  31.0000 Du        
   3251 ****       223.2500  48.7500  31.2500 Du        
   3252 ****       223.2500  48.7500  31.5000 Du        
   3253 ****       223.2500  48.7500  31.7500 Du        
   3254 ****       223.2500  48.7500  32.0000 Du        
   3255 ****       223.2500  48.7500  32.2500 Du        
   3256 ****       223.2500  49.0000  31.0000 Du        
   3257 ****       223.2500  49.0000  31.2500 Du        
   3258 ****       223.2500  49.0000  31.5000 Du        
   3259 ****       223.2500  49.0000  31.7500 Du        
   3260 ****       223.2500  49.0000  32.0000 Du        
   3261 ****       223.2500  49.0000  32.2500 Du        
   3262 ****       223.2500  49.2500  31.5000 Du        
   3263 ****       223.2500  49.2500  31.7500 Du        
   3264 ****       223.2500  49.2500  32.0000 Du        
   3265 ****       223.2500  49.2500  32.2500 Du        
   3266 ****       223.2500  49.5000  32.2500 Du        
   3267 ****       223.5000  43.0000  32.2500 Du        
   3268 ****       223.5000  43.2500  32.0000 Du        
   3269 ****       223.5000  43.2500  32.2500 Du        
   3270 ****       223.5000  43.5000  32.0000 Du        
   3271 ****       223.5000  43.5000  32.2500 Du        
   3272 ****       223.5000  43.5000  32.5000 Du        
   3273 ****       223.5000  43.7500  32.0000 Du        
   3274 ****       223.5000  43.7500  32.2500 Du        
   3275 ****       223.5000  43.7500  32.5000 Du        
   3276 ****       223.5000  43.7500  32.7500 Du        
   3277 ****       223.5000  44.0000  32.0000 Du        
   3278 ****       223.5000  44.0000  32.2500 Du        
   3279 ****       223.5000  44.0000  32.5000 Du        
   3280 ****       223.5000  44.0000  32.7500 Du        
   3281 ****       223.5000  44.0000  33.0000 Du        
   3282 ****       223.5000  44.2500  32.0000 Du        
   3283 ****       223.5000  44.2500  32.2500 Du        
   3284 ****       223.5000  44.2500  32.5000 Du        
   3285 ****       223.5000  44.2500  32.7500 Du        
   3286 ****       223.5000  44.2500  33.0000 Du        
   3287 ****       223.5000  44.5000  32.0000 Du        
   3288 ****       223.5000  44.5000  32.2500 Du        
   3289 ****       223.5000  44.5000  32.5000 Du        
   3290 ****       223.5000  44.5000  32.7500 Du        
   3291 ****       223.5000  44.5000  33.0000 Du        
   3292 ****       223.5000  44.7500  31.7500 Du        
   3293 ****       223.5000  44.7500  32.0000 Du        
   3294 ****       223.5000  44.7500  32.2500 Du        
   3295 ****       223.5000  44.7500  32.5000 Du        
   3296 ****       223.5000  44.7500  32.7500 Du        
   3297 ****       223.5000  44.7500  33.0000 Du        
   3298 ****       223.5000  45.0000  31.7500 Du        
   3299 ****       223.5000  45.0000  32.0000 Du        
   3300 ****       223.5000  45.0000  32.2500 Du        
   3301 ****       223.5000  45.0000  32.5000 Du        
   3302 ****       223.5000  45.0000  32.7500 Du        
   3303 ****       223.5000  45.0000  33.0000 Du        
   3304 ****       223.5000  45.2500  31.5000 Du        
   3305 ****       223.5000  45.2500  31.7500 Du        
   3306 ****       223.5000  45.2500  32.0000 Du        
   3307 ****       223.5000  45.2500  32.2500 Du        
   3308 ****       223.5000  45.2500  32.5000 Du        
   3309 ****       223.5000  45.2500  32.7500 Du        
   3310 ****       223.5000  45.2500  33.0000 Du        
   3311 ****       223.5000  45.5000  31.2500 Du        
   3312 ****       223.5000  45.5000  31.5000 Du        
   3313 ****       223.5000  45.5000  31.7500 Du        
   3314 ****       223.5000  45.5000  32.0000 Du        
   3315 ****       223.5000  45.5000  32.2500 Du        
   3316 ****       223.5000  45.5000  32.5000 Du        
   3317 ****       223.5000  45.5000  32.7500 Du        
   3318 ****       223.5000  45.5000  33.0000 Du        
   3319 ****       223.5000  45.5000  33.2500 Du        
   3320 ****       223.5000  45.7500  30.7500 Du        
   3321 ****       223.5000  45.7500  31.0000 Du        
   3322 ****       223.5000  45.7500  31.2500 Du        
   3323 ****       223.5000  45.7500  31.5000 Du        
   3324 ****       223.5000  45.7500  31.7500 Du        
   3325 ****       223.5000  45.7500  32.0000 Du        
   3326 ****       223.5000  45.7500  32.2500 Du        
   3327 ****       223.5000  45.7500  32.5000 Du        
   3328 ****       223.5000  45.7500  32.7500 Du        
   3329 ****       223.5000  45.7500  33.0000 Du        
   3330 ****       223.5000  45.7500  33.2500 Du        
   3331 ****       223.5000  46.0000  30.2500 Du        
   3332 ****       223.5000  46.0000  30.5000 Du        
   3333 ****       223.5000  46.0000  30.7500 Du        
   3334 ****       223.5000  46.0000  31.0000 Du        
   3335 ****       223.5000  46.0000  31.2500 Du        
   3336 ****       223.5000  46.0000  31.5000 Du        
   3337 ****       223.5000  46.0000  31.7500 Du        
   3338 ****       223.5000  46.0000  32.0000 Du        
   3339 ****       223.5000  46.0000  32.2500 Du        
   3340 ****       223.5000  46.0000  32.5000 Du        
   3341 ****       223.5000  46.0000  32.7500 Du        
   3342 ****       223.5000  46.0000  33.0000 Du        
   3343 ****       223.5000  46.2500  30.0000 Du        
   3344 ****       223.5000  46.2500  30.2500 Du        
   3345 ****       223.5000  46.2500  30.5000 Du        
   3346 ****       223.5000  46.2500  30.7500 Du        
   3347 ****       223.5000  46.2500  31.0000 Du        
   3348 ****       223.5000  46.2500  31.2500 Du        
   3349 ****       223.5000  46.2500  31.5000 Du        
   3350 ****       223.5000  46.2500  31.7500 Du        
   3351 ****       223.5000  46.2500  32.0000 Du        
   3352 ****       223.5000  46.2500  32.2500 Du        
   3353 ****       223.5000  46.5000  29.7500 Du        
   3354 ****       223.5000  46.5000  30.0000 Du        
   3355 ****       223.5000  46.5000  30.2500 Du        
   3356 ****       223.5000  46.5000  30.5000 Du        
   3357 ****       223.5000  46.5000  30.7500 Du        
   3358 ****       223.5000  46.5000  31.0000 Du        
   3359 ****       223.5000  46.5000  31.2500 Du        
   3360 ****       223.5000  46.5000  31.5000 Du        
   3361 ****       223.5000  46.5000  31.7500 Du        
   3362 ****       223.5000  46.5000  32.0000 Du        
   3363 ****       223.5000  46.5000  32.2500 Du        
   3364 ****       223.5000  46.7500  29.7500 Du        
   3365 ****       223.5000  46.7500  30.0000 Du        
   3366 ****       223.5000  46.7500  30.2500 Du        
   3367 ****       223.5000  46.7500  30.5000 Du        
   3368 ****       223.5000  46.7500  30.7500 Du        
   3369 ****       223.5000  46.7500  31.0000 Du        
   3370 ****       223.5000  46.7500  31.2500 Du        
   3371 ****       223.5000  46.7500  31.5000 Du        
   3372 ****       223.5000  46.7500  31.7500 Du        
   3373 ****       223.5000  46.7500  32.0000 Du        
   3374 ****       223.5000  46.7500  32.2500 Du        
   3375 ****       223.5000  47.0000  29.7500 Du        
   3376 ****       223.5000  47.0000  30.0000 Du        
   3377 ****       223.5000  47.0000  30.2500 Du        
   3378 ****       223.5000  47.0000  30.5000 Du        
   3379 ****       223.5000  47.0000  30.7500 Du        
   3380 ****       223.5000  47.0000  31.0000 Du        
   3381 ****       223.5000  47.0000  31.2500 Du        
   3382 ****       223.5000  47.0000  31.5000 Du        
   3383 ****       223.5000  47.0000  31.7500 Du        
   3384 ****       223.5000  47.0000  32.0000 Du        
   3385 ****       223.5000  47.0000  32.2500 Du        
   3386 ****       223.5000  47.2500  29.7500 Du        
   3387 ****       223.5000  47.2500  30.0000 Du        
   3388 ****       223.5000  47.2500  30.2500 Du        
   3389 ****       223.5000  47.2500  30.5000 Du        
   3390 ****       223.5000  47.2500  30.7500 Du        
   3391 ****       223.5000  47.2500  31.0000 Du        
   3392 ****       223.5000  47.2500  31.2500 Du        
   3393 ****       223.5000  47.2500  31.5000 Du        
   3394 ****       223.5000  47.2500  31.7500 Du        
   3395 ****       223.5000  47.2500  32.0000 Du        
   3396 ****       223.5000  47.2500  32.2500 Du        
   3397 ****       223.5000  47.5000  29.7500 Du        
   3398 ****       223.5000  47.5000  30.0000 Du        
   3399 ****       223.5000  47.5000  30.2500 Du        
   3400 ****       223.5000  47.5000  30.5000 Du        
   3401 ****       223.5000  47.5000  30.7500 Du        
   3402 ****       223.5000  47.5000  31.0000 Du        
   3403 ****       223.5000  47.5000  31.2500 Du        
   3404 ****       223.5000  47.5000  31.5000 Du        
   3405 ****       223.5000  47.5000  31.7500 Du        
   3406 ****       223.5000  47.5000  32.0000 Du        
   3407 ****       223.5000  47.5000  32.2500 Du        
   3408 ****       223.5000  47.7500  29.7500 Du        
   3409 ****       223.5000  47.7500  30.0000 Du        
   3410 ****       223.5000  47.7500  30.2500 Du        
   3411 ****       223.5000  47.7500  30.5000 Du        
   3412 ****       223.5000  47.7500  30.7500 Du        
   3413 ****       223.5000  47.7500  31.0000 Du        
   3414 ****       223.5000  47.7500  31.2500 Du        
   3415 ****       223.5000  47.7500  31.5000 Du        
   3416 ****       223.5000  47.7500  31.7500 Du        
   3417 ****       223.5000  47.7500  32.0000 Du        
   3418 ****       223.5000  47.7500  32.2500 Du        
   3419 ****       223.5000  48.0000  29.7500 Du        
   3420 ****       223.5000  48.0000  30.0000 Du        
   3421 ****       223.5000  48.0000  30.2500 Du        
   3422 ****       223.5000  48.0000  30.5000 Du        
   3423 ****       223.5000  48.0000  30.7500 Du        
   3424 ****       223.5000  48.0000  31.0000 Du        
   3425 ****       223.5000  48.0000  31.2500 Du        
   3426 ****       223.5000  48.0000  31.5000 Du        
   3427 ****       223.5000  48.0000  31.7500 Du        
   3428 ****       223.5000  48.0000  32.0000 Du        
   3429 ****       223.5000  48.0000  32.2500 Du        
   3430 ****       223.5000  48.2500  30.0000 Du        
   3431 ****       223.5000  48.2500  30.2500 Du        
   3432 ****       223.5000  48.2500  30.5000 Du        
   3433 ****       223.5000  48.2500  30.7500 Du        
   3434 ****       223.5000  48.2500  31.0000 Du        
   3435 ****       223.5000  48.2500  31.2500 Du        
   3436 ****       223.5000  48.2500  31.5000 Du        
   3437 ****       223.5000  48.2500  31.7500 Du        
   3438 ****       223.5000  48.2500  32.0000 Du        
   3439 ****       223.5000  48.5000  30.2500 Du        
   3440 ****       223.5000  48.5000  30.5000 Du        
   3441 ****       223.5000  48.5000  30.7500 Du        
   3442 ****       223.5000  48.5000  31.0000 Du        
   3443 ****       223.5000  48.5000  31.2500 Du        
   3444 ****       223.5000  48.7500  30.7500 Du        
   3445 ****       223.5000  48.7500  31.0000 Du        
   3446 ****       223.5000  48.7500  31.2500 Du        
   3447 ****       223.5000  48.7500  31.5000 Du        
   3448 ****       223.5000  48.7500  31.7500 Du        
   3449 ****       223.5000  49.0000  31.0000 Du        
   3450 ****       223.5000  49.0000  31.2500 Du        
   3451 ****       223.5000  49.0000  31.5000 Du        
   3452 ****       223.5000  49.0000  31.7500 Du        
   3453 ****       223.7500  44.0000  32.2500 Du        
   3454 ****       223.7500  44.2500  32.2500 Du        
   3455 ****       223.7500  44.2500  32.5000 Du        
   3456 ****       223.7500  44.2500  32.7500 Du        
   3457 ****       223.7500  44.5000  32.0000 Du        
   3458 ****       223.7500  44.5000  32.2500 Du        
   3459 ****       223.7500  44.5000  32.5000 Du        
   3460 ****       223.7500  44.5000  32.7500 Du        
   3461 ****       223.7500  44.5000  33.0000 Du        
   3462 ****       223.7500  44.7500  32.0000 Du        
   3463 ****       223.7500  44.7500  32.2500 Du        
   3464 ****       223.7500  44.7500  32.5000 Du        
   3465 ****       223.7500  44.7500  32.7500 Du        
   3466 ****       223.7500  44.7500  33.0000 Du        
   3467 ****       223.7500  45.0000  31.7500 Du        
   3468 ****       223.7500  45.0000  32.0000 Du        
   3469 ****       223.7500  45.0000  32.2500 Du        
   3470 ****       223.7500  45.0000  32.5000 Du        
   3471 ****       223.7500  45.0000  32.7500 Du        
   3472 ****       223.7500  45.0000  33.0000 Du        
   3473 ****       223.7500  45.0000  33.2500 Du        
   3474 ****       223.7500  45.2500  31.7500 Du        
   3475 ****       223.7500  45.2500  32.0000 Du        
   3476 ****       223.7500  45.2500  32.2500 Du        
   3477 ****       223.7500  45.2500  32.5000 Du        
   3478 ****       223.7500  45.2500  32.7500 Du        
   3479 ****       223.7500  45.2500  33.0000 Du        
   3480 ****       223.7500  45.2500  33.2500 Du        
   3481 ****       223.7500  45.5000  31.5000 Du        
   3482 ****       223.7500  45.5000  31.7500 Du        
   3483 ****       223.7500  45.5000  32.0000 Du        
   3484 ****       223.7500  45.5000  32.2500 Du        
   3485 ****       223.7500  45.5000  32.5000 Du        
   3486 ****       223.7500  45.5000  32.7500 Du        
   3487 ****       223.7500  45.5000  33.0000 Du        
   3488 ****       223.7500  45.5000  33.2500 Du        
   3489 ****       223.7500  45.7500  31.0000 Du        
   3490 ****       223.7500  45.7500  31.2500 Du        
   3491 ****       223.7500  45.7500  31.5000 Du        
   3492 ****       223.7500  45.7500  31.7500 Du        
   3493 ****       223.7500  45.7500  32.0000 Du        
   3494 ****       223.7500  45.7500  32.2500 Du        
   3495 ****       223.7500  45.7500  32.5000 Du        
   3496 ****       223.7500  45.7500  32.7500 Du        
   3497 ****       223.7500  45.7500  33.0000 Du        
   3498 ****       223.7500  45.7500  33.2500 Du        
   3499 ****       223.7500  46.0000  30.2500 Du        
   3500 ****       223.7500  46.0000  30.5000 Du        
   3501 ****       223.7500  46.0000  30.7500 Du        
   3502 ****       223.7500  46.0000  31.0000 Du        
   3503 ****       223.7500  46.0000  31.2500 Du        
   3504 ****       223.7500  46.0000  31.5000 Du        
   3505 ****       223.7500  46.0000  31.7500 Du        
   3506 ****       223.7500  46.0000  32.0000 Du        
   3507 ****       223.7500  46.0000  32.2500 Du        
   3508 ****       223.7500  46.0000  32.5000 Du        
   3509 ****       223.7500  46.0000  32.7500 Du        
   3510 ****       223.7500  46.0000  33.0000 Du        
   3511 ****       223.7500  46.0000  33.2500 Du        
   3512 ****       223.7500  46.2500  29.7500 Du        
   3513 ****       223.7500  46.2500  30.0000 Du        
   3514 ****       223.7500  46.2500  30.2500 Du        
   3515 ****       223.7500  46.2500  30.5000 Du        
   3516 ****       223.7500  46.2500  30.7500 Du        
   3517 ****       223.7500  46.2500  31.0000 Du        
   3518 ****       223.7500  46.2500  31.2500 Du        
   3519 ****       223.7500  46.2500  31.5000 Du        
   3520 ****       223.7500  46.2500  31.7500 Du        
   3521 ****       223.7500  46.2500  32.0000 Du        
   3522 ****       223.7500  46.2500  32.2500 Du        
   3523 ****       223.7500  46.2500  32.7500 Du        
   3524 ****       223.7500  46.5000  29.7500 Du        
   3525 ****       223.7500  46.5000  30.0000 Du        
   3526 ****       223.7500  46.5000  30.2500 Du        
   3527 ****       223.7500  46.5000  30.5000 Du        
   3528 ****       223.7500  46.5000  30.7500 Du        
   3529 ****       223.7500  46.5000  31.0000 Du        
   3530 ****       223.7500  46.5000  31.2500 Du        
   3531 ****       223.7500  46.5000  31.5000 Du        
   3532 ****       223.7500  46.5000  31.7500 Du        
   3533 ****       223.7500  46.5000  32.0000 Du        
   3534 ****       223.7500  46.5000  32.2500 Du        
   3535 ****       223.7500  46.7500  29.5000 Du        
   3536 ****       223.7500  46.7500  29.7500 Du        
   3537 ****       223.7500  46.7500  30.0000 Du        
   3538 ****       223.7500  46.7500  30.2500 Du        
   3539 ****       223.7500  46.7500  30.5000 Du        
   3540 ****       223.7500  46.7500  30.7500 Du        
   3541 ****       223.7500  46.7500  31.0000 Du        
   3542 ****       223.7500  46.7500  31.2500 Du        
   3543 ****       223.7500  46.7500  31.5000 Du        
   3544 ****       223.7500  46.7500  31.7500 Du        
   3545 ****       223.7500  46.7500  32.0000 Du        
   3546 ****       223.7500  46.7500  32.2500 Du        
   3547 ****       223.7500  47.0000  29.5000 Du        
   3548 ****       223.7500  47.0000  29.7500 Du        
   3549 ****       223.7500  47.0000  30.0000 Du        
   3550 ****       223.7500  47.0000  30.2500 Du        
   3551 ****       223.7500  47.0000  30.5000 Du        
   3552 ****       223.7500  47.0000  30.7500 Du        
   3553 ****       223.7500  47.0000  31.0000 Du        
   3554 ****       223.7500  47.0000  31.2500 Du        
   3555 ****       223.7500  47.0000  31.5000 Du        
   3556 ****       223.7500  47.0000  31.7500 Du        
   3557 ****       223.7500  47.0000  32.0000 Du        
   3558 ****       223.7500  47.0000  32.2500 Du        
   3559 ****       223.7500  47.2500  29.5000 Du        
   3560 ****       223.7500  47.2500  29.7500 Du        
   3561 ****       223.7500  47.2500  30.0000 Du        
   3562 ****       223.7500  47.2500  30.2500 Du        
   3563 ****       223.7500  47.2500  30.5000 Du        
   3564 ****       223.7500  47.2500  30.7500 Du        
   3565 ****       223.7500  47.2500  31.0000 Du        
   3566 ****       223.7500  47.2500  31.2500 Du        
   3567 ****       223.7500  47.2500  31.5000 Du        
   3568 ****       223.7500  47.2500  31.7500 Du        
   3569 ****       223.7500  47.2500  32.0000 Du        
   3570 ****       223.7500  47.2500  32.2500 Du        
   3571 ****       223.7500  47.5000  29.5000 Du        
   3572 ****       223.7500  47.5000  29.7500 Du        
   3573 ****       223.7500  47.5000  30.0000 Du        
   3574 ****       223.7500  47.5000  30.2500 Du        
   3575 ****       223.7500  47.5000  30.5000 Du        
   3576 ****       223.7500  47.5000  30.7500 Du        
   3577 ****       223.7500  47.5000  31.0000 Du        
   3578 ****       223.7500  47.5000  31.2500 Du        
   3579 ****       223.7500  47.5000  31.5000 Du        
   3580 ****       223.7500  47.5000  31.7500 Du        
   3581 ****       223.7500  47.5000  32.0000 Du        
   3582 ****       223.7500  47.5000  32.2500 Du        
   3583 ****       223.7500  47.7500  29.2500 Du        
   3584 ****       223.7500  47.7500  29.5000 Du        
   3585 ****       223.7500  47.7500  29.7500 Du        
   3586 ****       223.7500  47.7500  30.0000 Du        
   3587 ****       223.7500  47.7500  30.2500 Du        
   3588 ****       223.7500  47.7500  30.5000 Du        
   3589 ****       223.7500  47.7500  30.7500 Du        
   3590 ****       223.7500  47.7500  31.0000 Du        
   3591 ****       223.7500  47.7500  31.2500 Du        
   3592 ****       223.7500  47.7500  31.5000 Du        
   3593 ****       223.7500  47.7500  31.7500 Du        
   3594 ****       223.7500  47.7500  32.0000 Du        
   3595 ****       223.7500  48.0000  29.2500 Du        
   3596 ****       223.7500  48.0000  29.5000 Du        
   3597 ****       223.7500  48.0000  29.7500 Du        
   3598 ****       223.7500  48.0000  30.0000 Du        
   3599 ****       223.7500  48.0000  30.2500 Du        
   3600 ****       223.7500  48.0000  30.5000 Du        
   3601 ****       223.7500  48.0000  30.7500 Du        
   3602 ****       223.7500  48.0000  31.0000 Du        
   3603 ****       223.7500  48.0000  31.2500 Du        
   3604 ****       223.7500  48.0000  31.5000 Du        
   3605 ****       223.7500  48.0000  31.7500 Du        
   3606 ****       223.7500  48.0000  32.0000 Du        
   3607 ****       223.7500  48.2500  29.5000 Du        
   3608 ****       223.7500  48.2500  29.7500 Du        
   3609 ****       223.7500  48.2500  30.0000 Du        
   3610 ****       223.7500  48.2500  30.2500 Du        
   3611 ****       223.7500  48.2500  30.5000 Du        
   3612 ****       223.7500  48.2500  30.7500 Du        
   3613 ****       223.7500  48.2500  31.0000 Du        
   3614 ****       223.7500  48.2500  31.2500 Du        
   3615 ****       223.7500  48.2500  31.5000 Du        
   3616 ****       223.7500  48.2500  31.7500 Du        
   3617 ****       223.7500  48.5000  30.0000 Du        
   3618 ****       223.7500  48.5000  30.2500 Du        
   3619 ****       223.7500  48.5000  30.5000 Du        
   3620 ****       223.7500  48.5000  30.7500 Du        
   3621 ****       223.7500  48.5000  31.0000 Du        
   3622 ****       223.7500  48.5000  31.2500 Du        
   3623 ****       223.7500  48.7500  30.5000 Du        
   3624 ****       223.7500  48.7500  30.7500 Du        
   3625 ****       223.7500  48.7500  31.0000 Du        
   3626 ****       223.7500  48.7500  31.2500 Du        
   3627 ****       223.7500  49.0000  31.0000 Du        
   3628 ****       223.7500  49.0000  31.2500 Du        
   3629 ****       224.0000  44.5000  32.2500 Du        
   3630 ****       224.0000  44.5000  32.5000 Du        
   3631 ****       224.0000  44.7500  32.0000 Du        
   3632 ****       224.0000  44.7500  32.2500 Du        
   3633 ****       224.0000  44.7500  32.5000 Du        
   3634 ****       224.0000  44.7500  32.7500 Du        
   3635 ****       224.0000  44.7500  33.0000 Du        
   3636 ****       224.0000  45.0000  32.0000 Du        
   3637 ****       224.0000  45.0000  32.2500 Du        
   3638 ****       224.0000  45.0000  32.5000 Du        
   3639 ****       224.0000  45.0000  32.7500 Du        
   3640 ****       224.0000  45.0000  33.0000 Du        
   3641 ****       224.0000  45.2500  32.0000 Du        
   3642 ****       224.0000  45.2500  32.2500 Du        
   3643 ****       224.0000  45.2500  32.5000 Du        
   3644 ****       224.0000  45.2500  32.7500 Du        
   3645 ****       224.0000  45.2500  33.0000 Du        
   3646 ****       224.0000  45.2500  33.2500 Du        
   3647 ****       224.0000  45.5000  31.7500 Du        
   3648 ****       224.0000  45.5000  32.0000 Du        
   3649 ****       224.0000  45.5000  32.2500 Du        
   3650 ****       224.0000  45.5000  32.5000 Du        
   3651 ****       224.0000  45.5000  32.7500 Du        
   3652 ****       224.0000  45.5000  33.0000 Du        
   3653 ****       224.0000  45.7500  31.5000 Du        
   3654 ****       224.0000  45.7500  31.7500 Du        
   3655 ****       224.0000  45.7500  32.0000 Du        
   3656 ****       224.0000  45.7500  32.2500 Du        
   3657 ****       224.0000  45.7500  32.5000 Du        
   3658 ****       224.0000  45.7500  32.7500 Du        
   3659 ****       224.0000  45.7500  33.0000 Du        
   3660 ****       224.0000  45.7500  33.2500 Du        
   3661 ****       224.0000  46.0000  30.7500 Du        
   3662 ****       224.0000  46.0000  31.0000 Du        
   3663 ****       224.0000  46.0000  31.2500 Du        
   3664 ****       224.0000  46.0000  31.5000 Du        
   3665 ****       224.0000  46.0000  31.7500 Du        
   3666 ****       224.0000  46.0000  32.0000 Du        
   3667 ****       224.0000  46.0000  32.2500 Du        
   3668 ****       224.0000  46.0000  32.5000 Du        
   3669 ****       224.0000  46.0000  32.7500 Du        
   3670 ****       224.0000  46.0000  33.0000 Du        
   3671 ****       224.0000  46.2500  29.7500 Du        
   3672 ****       224.0000  46.2500  30.0000 Du        
   3673 ****       224.0000  46.2500  30.2500 Du        
   3674 ****       224.0000  46.2500  30.5000 Du        
   3675 ****       224.0000  46.2500  30.7500 Du        
   3676 ****       224.0000  46.2500  31.0000 Du        
   3677 ****       224.0000  46.2500  31.2500 Du        
   3678 ****       224.0000  46.2500  31.5000 Du        
   3679 ****       224.0000  46.2500  31.7500 Du        
   3680 ****       224.0000  46.2500  32.0000 Du        
   3681 ****       224.0000  46.2500  32.2500 Du        
   3682 ****       224.0000  46.2500  32.5000 Du        
   3683 ****       224.0000  46.2500  32.7500 Du        
   3684 ****       224.0000  46.2500  33.0000 Du        
   3685 ****       224.0000  46.5000  29.5000 Du        
   3686 ****       224.0000  46.5000  29.7500 Du        
   3687 ****       224.0000  46.5000  30.0000 Du        
   3688 ****       224.0000  46.5000  30.2500 Du        
   3689 ****       224.0000  46.5000  30.5000 Du        
   3690 ****       224.0000  46.5000  30.7500 Du        
   3691 ****       224.0000  46.5000  31.0000 Du        
   3692 ****       224.0000  46.5000  31.2500 Du        
   3693 ****       224.0000  46.5000  31.5000 Du        
   3694 ****       224.0000  46.5000  31.7500 Du        
   3695 ****       224.0000  46.5000  32.0000 Du        
   3696 ****       224.0000  46.5000  32.2500 Du        
   3697 ****       224.0000  46.7500  29.5000 Du        
   3698 ****       224.0000  46.7500  29.7500 Du        
   3699 ****       224.0000  46.7500  30.0000 Du        
   3700 ****       224.0000  46.7500  30.2500 Du        
   3701 ****       224.0000  46.7500  30.5000 Du        
   3702 ****       224.0000  46.7500  30.7500 Du        
   3703 ****       224.0000  46.7500  31.0000 Du        
   3704 ****       224.0000  46.7500  31.2500 Du        
   3705 ****       224.0000  46.7500  31.5000 Du        
   3706 ****       224.0000  46.7500  31.7500 Du        
   3707 ****       224.0000  46.7500  32.0000 Du        
   3708 ****       224.0000  46.7500  32.2500 Du        
   3709 ****       224.0000  47.0000  29.2500 Du        
   3710 ****       224.0000  47.0000  29.5000 Du        
   3711 ****       224.0000  47.0000  29.7500 Du        
   3712 ****       224.0000  47.0000  30.0000 Du        
   3713 ****       224.0000  47.0000  30.2500 Du        
   3714 ****       224.0000  47.0000  30.5000 Du        
   3715 ****       224.0000  47.0000  30.7500 Du        
   3716 ****       224.0000  47.0000  31.0000 Du        
   3717 ****       224.0000  47.0000  31.2500 Du        
   3718 ****       224.0000  47.0000  31.5000 Du        
   3719 ****       224.0000  47.0000  31.7500 Du        
   3720 ****       224.0000  47.0000  32.0000 Du        
   3721 ****       224.0000  47.0000  32.2500 Du        
   3722 ****       224.0000  47.2500  29.2500 Du        
   3723 ****       224.0000  47.2500  29.5000 Du        
   3724 ****       224.0000  47.2500  29.7500 Du        
   3725 ****       224.0000  47.2500  30.0000 Du        
   3726 ****       224.0000  47.2500  30.2500 Du        
   3727 ****       224.0000  47.2500  30.5000 Du        
   3728 ****       224.0000  47.2500  30.7500 Du        
   3729 ****       224.0000  47.2500  31.0000 Du        
   3730 ****       224.0000  47.2500  31.2500 Du        
   3731 ****       224.0000  47.2500  31.5000 Du        
   3732 ****       224.0000  47.2500  31.7500 Du        
   3733 ****       224.0000  47.2500  32.0000 Du        
   3734 ****       224.0000  47.2500  32.2500 Du        
   3735 ****       224.0000  47.5000  29.2500 Du        
   3736 ****       224.0000  47.5000  29.5000 Du        
   3737 ****       224.0000  47.5000  29.7500 Du        
   3738 ****       224.0000  47.5000  30.0000 Du        
   3739 ****       224.0000  47.5000  30.2500 Du        
   3740 ****       224.0000  47.5000  30.5000 Du        
   3741 ****       224.0000  47.5000  30.7500 Du        
   3742 ****       224.0000  47.5000  31.0000 Du        
   3743 ****       224.0000  47.5000  31.2500 Du        
   3744 ****       224.0000  47.5000  31.5000 Du        
   3745 ****       224.0000  47.5000  31.7500 Du        
   3746 ****       224.0000  47.5000  32.0000 Du        
   3747 ****       224.0000  47.5000  32.2500 Du        
   3748 ****       224.0000  47.7500  29.0000 Du        
   3749 ****       224.0000  47.7500  29.2500 Du        
   3750 ****       224.0000  47.7500  29.5000 Du        
   3751 ****       224.0000  47.7500  29.7500 Du        
   3752 ****       224.0000  47.7500  30.0000 Du        
   3753 ****       224.0000  47.7500  30.2500 Du        
   3754 ****       224.0000  47.7500  30.5000 Du        
   3755 ****       224.0000  47.7500  30.7500 Du        
   3756 ****       224.0000  47.7500  31.0000 Du        
   3757 ****       224.0000  47.7500  31.2500 Du        
   3758 ****       224.0000  47.7500  31.5000 Du        
   3759 ****       224.0000  47.7500  31.7500 Du        
   3760 ****       224.0000  47.7500  32.0000 Du        
   3761 ****       224.0000  47.7500  32.2500 Du        
   3762 ****       224.0000  48.0000  29.0000 Du        
   3763 ****       224.0000  48.0000  29.2500 Du        
   3764 ****       224.0000  48.0000  29.5000 Du        
   3765 ****       224.0000  48.0000  29.7500 Du        
   3766 ****       224.0000  48.0000  30.0000 Du        
   3767 ****       224.0000  48.0000  30.2500 Du        
   3768 ****       224.0000  48.0000  30.5000 Du        
   3769 ****       224.0000  48.0000  30.7500 Du        
   3770 ****       224.0000  48.0000  31.0000 Du        
   3771 ****       224.0000  48.0000  31.2500 Du        
   3772 ****       224.0000  48.0000  31.5000 Du        
   3773 ****       224.0000  48.0000  31.7500 Du        
   3774 ****       224.0000  48.2500  29.0000 Du        
   3775 ****       224.0000  48.2500  29.2500 Du        
   3776 ****       224.0000  48.2500  29.5000 Du        
   3777 ****       224.0000  48.2500  29.7500 Du        
   3778 ****       224.0000  48.2500  30.0000 Du        
   3779 ****       224.0000  48.2500  30.2500 Du        
   3780 ****       224.0000  48.2500  30.5000 Du        
   3781 ****       224.0000  48.2500  30.7500 Du        
   3782 ****       224.0000  48.2500  31.0000 Du        
   3783 ****       224.0000  48.2500  31.2500 Du        
   3784 ****       224.0000  48.2500  31.5000 Du        
   3785 ****       224.0000  48.2500  31.7500 Du        
   3786 ****       224.0000  48.5000  29.7500 Du        
   3787 ****       224.0000  48.5000  30.0000 Du        
   3788 ****       224.0000  48.5000  30.2500 Du        
   3789 ****       224.0000  48.5000  30.5000 Du        
   3790 ****       224.0000  48.5000  30.7500 Du        
   3791 ****       224.0000  48.5000  31.0000 Du        
   3792 ****       224.0000  48.5000  31.2500 Du        
   3793 ****       224.0000  48.7500  30.0000 Du        
   3794 ****       224.0000  48.7500  30.2500 Du        
   3795 ****       224.0000  48.7500  30.5000 Du        
   3796 ****       224.0000  48.7500  30.7500 Du        
   3797 ****       224.0000  48.7500  31.0000 Du        
   3798 ****       224.0000  48.7500  31.2500 Du        
   3799 ****       224.0000  49.0000  30.7500 Du        
   3800 ****       224.0000  49.0000  31.0000 Du        
   3801 ****       224.0000  49.0000  31.2500 Du        
   3802 ****       224.2500  45.0000  32.2500 Du        
   3803 ****       224.2500  45.0000  32.5000 Du        
   3804 ****       224.2500  45.0000  32.7500 Du        
   3805 ****       224.2500  45.0000  33.0000 Du        
   3806 ****       224.2500  45.2500  32.0000 Du        
   3807 ****       224.2500  45.2500  32.2500 Du        
   3808 ****       224.2500  45.2500  32.5000 Du        
   3809 ****       224.2500  45.2500  32.7500 Du        
   3810 ****       224.2500  45.2500  33.0000 Du        
   3811 ****       224.2500  45.5000  32.0000 Du        
   3812 ****       224.2500  45.5000  32.2500 Du        
   3813 ****       224.2500  45.5000  32.5000 Du        
   3814 ****       224.2500  45.5000  32.7500 Du        
   3815 ****       224.2500  45.5000  33.0000 Du        
   3816 ****       224.2500  45.7500  31.7500 Du        
   3817 ****       224.2500  45.7500  32.0000 Du        
   3818 ****       224.2500  45.7500  32.2500 Du        
   3819 ****       224.2500  45.7500  32.5000 Du        
   3820 ****       224.2500  45.7500  32.7500 Du        
   3821 ****       224.2500  45.7500  33.0000 Du        
   3822 ****       224.2500  46.0000  31.5000 Du        
   3823 ****       224.2500  46.0000  31.7500 Du        
   3824 ****       224.2500  46.0000  32.0000 Du        
   3825 ****       224.2500  46.0000  32.2500 Du        
   3826 ****       224.2500  46.0000  32.5000 Du        
   3827 ****       224.2500  46.0000  32.7500 Du        
   3828 ****       224.2500  46.0000  33.0000 Du        
   3829 ****       224.2500  46.2500  30.2500 Du        
   3830 ****       224.2500  46.2500  30.7500 Du        
   3831 ****       224.2500  46.2500  31.0000 Du        
   3832 ****       224.2500  46.2500  31.2500 Du        
   3833 ****       224.2500  46.2500  31.5000 Du        
   3834 ****       224.2500  46.2500  31.7500 Du        
   3835 ****       224.2500  46.2500  32.0000 Du        
   3836 ****       224.2500  46.2500  32.2500 Du        
   3837 ****       224.2500  46.2500  32.5000 Du        
   3838 ****       224.2500  46.2500  32.7500 Du        
   3839 ****       224.2500  46.5000  29.5000 Du        
   3840 ****       224.2500  46.5000  29.7500 Du        
   3841 ****       224.2500  46.5000  30.0000 Du        
   3842 ****       224.2500  46.5000  30.2500 Du        
   3843 ****       224.2500  46.5000  30.5000 Du        
   3844 ****       224.2500  46.5000  30.7500 Du        
   3845 ****       224.2500  46.5000  31.0000 Du        
   3846 ****       224.2500  46.5000  31.2500 Du        
   3847 ****       224.2500  46.5000  31.5000 Du        
   3848 ****       224.2500  46.5000  31.7500 Du        
   3849 ****       224.2500  46.5000  32.0000 Du        
   3850 ****       224.2500  46.5000  32.2500 Du        
   3851 ****       224.2500  46.7500  29.5000 Du        
   3852 ****       224.2500  46.7500  29.7500 Du        
   3853 ****       224.2500  46.7500  30.0000 Du        
   3854 ****       224.2500  46.7500  30.2500 Du        
   3855 ****       224.2500  46.7500  30.5000 Du        
   3856 ****       224.2500  46.7500  30.7500 Du        
   3857 ****       224.2500  46.7500  31.0000 Du        
   3858 ****       224.2500  46.7500  31.2500 Du        
   3859 ****       224.2500  46.7500  31.5000 Du        
   3860 ****       224.2500  46.7500  31.7500 Du        
   3861 ****       224.2500  46.7500  32.0000 Du        
   3862 ****       224.2500  46.7500  32.2500 Du        
   3863 ****       224.2500  47.0000  29.2500 Du        
   3864 ****       224.2500  47.0000  29.5000 Du        
   3865 ****       224.2500  47.0000  29.7500 Du        
   3866 ****       224.2500  47.0000  30.0000 Du        
   3867 ****       224.2500  47.0000  30.2500 Du        
   3868 ****       224.2500  47.0000  30.5000 Du        
   3869 ****       224.2500  47.0000  30.7500 Du        
   3870 ****       224.2500  47.0000  31.0000 Du        
   3871 ****       224.2500  47.0000  31.2500 Du        
   3872 ****       224.2500  47.0000  31.5000 Du        
   3873 ****       224.2500  47.0000  31.7500 Du        
   3874 ****       224.2500  47.0000  32.0000 Du        
   3875 ****       224.2500  47.0000  32.2500 Du        
   3876 ****       224.2500  47.2500  29.2500 Du        
   3877 ****       224.2500  47.2500  29.5000 Du        
   3878 ****       224.2500  47.2500  29.7500 Du        
   3879 ****       224.2500  47.2500  30.0000 Du        
   3880 ****       224.2500  47.2500  30.2500 Du        
   3881 ****       224.2500  47.2500  30.5000 Du        
   3882 ****       224.2500  47.2500  30.7500 Du        
   3883 ****       224.2500  47.2500  31.0000 Du        
   3884 ****       224.2500  47.2500  31.2500 Du        
   3885 ****       224.2500  47.2500  31.5000 Du        
   3886 ****       224.2500  47.2500  31.7500 Du        
   3887 ****       224.2500  47.2500  32.0000 Du        
   3888 ****       224.2500  47.2500  32.2500 Du        
   3889 ****       224.2500  47.5000  29.0000 Du        
   3890 ****       224.2500  47.5000  29.2500 Du        
   3891 ****       224.2500  47.5000  29.5000 Du        
   3892 ****       224.2500  47.5000  29.7500 Du        
   3893 ****       224.2500  47.5000  30.0000 Du        
   3894 ****       224.2500  47.5000  30.2500 Du        
   3895 ****       224.2500  47.5000  30.5000 Du        
   3896 ****       224.2500  47.5000  30.7500 Du        
   3897 ****       224.2500  47.5000  31.0000 Du        
   3898 ****       224.2500  47.5000  31.2500 Du        
   3899 ****       224.2500  47.5000  31.5000 Du        
   3900 ****       224.2500  47.5000  31.7500 Du        
   3901 ****       224.2500  47.5000  32.0000 Du        
   3902 ****       224.2500  47.5000  32.2500 Du        
   3903 ****       224.2500  47.7500  29.0000 Du        
   3904 ****       224.2500  47.7500  29.2500 Du        
   3905 ****       224.2500  47.7500  29.5000 Du        
   3906 ****       224.2500  47.7500  29.7500 Du        
   3907 ****       224.2500  47.7500  30.0000 Du        
   3908 ****       224.2500  47.7500  30.2500 Du        
   3909 ****       224.2500  47.7500  30.5000 Du        
   3910 ****       224.2500  47.7500  30.7500 Du        
   3911 ****       224.2500  47.7500  31.0000 Du        
   3912 ****       224.2500  47.7500  31.2500 Du        
   3913 ****       224.2500  47.7500  31.5000 Du        
   3914 ****       224.2500  47.7500  31.7500 Du        
   3915 ****       224.2500  47.7500  32.0000 Du        
   3916 ****       224.2500  47.7500  32.2500 Du        
   3917 ****       224.2500  48.0000  29.0000 Du        
   3918 ****       224.2500  48.0000  29.2500 Du        
   3919 ****       224.2500  48.0000  29.5000 Du        
   3920 ****       224.2500  48.0000  29.7500 Du        
   3921 ****       224.2500  48.0000  30.0000 Du        
   3922 ****       224.2500  48.0000  30.2500 Du        
   3923 ****       224.2500  48.0000  30.5000 Du        
   3924 ****       224.2500  48.0000  30.7500 Du        
   3925 ****       224.2500  48.0000  31.0000 Du        
   3926 ****       224.2500  48.0000  31.2500 Du        
   3927 ****       224.2500  48.0000  31.5000 Du        
   3928 ****       224.2500  48.0000  31.7500 Du        
   3929 ****       224.2500  48.2500  28.7500 Du        
   3930 ****       224.2500  48.2500  29.0000 Du        
   3931 ****       224.2500  48.2500  29.2500 Du        
   3932 ****       224.2500  48.2500  29.5000 Du        
   3933 ****       224.2500  48.2500  29.7500 Du        
   3934 ****       224.2500  48.2500  30.0000 Du        
   3935 ****       224.2500  48.2500  30.2500 Du        
   3936 ****       224.2500  48.2500  30.5000 Du        
   3937 ****       224.2500  48.2500  30.7500 Du        
   3938 ****       224.2500  48.2500  31.0000 Du        
   3939 ****       224.2500  48.2500  31.2500 Du        
   3940 ****       224.2500  48.2500  31.5000 Du        
   3941 ****       224.2500  48.5000  29.2500 Du        
   3942 ****       224.2500  48.5000  29.5000 Du        
   3943 ****       224.2500  48.5000  29.7500 Du        
   3944 ****       224.2500  48.5000  30.0000 Du        
   3945 ****       224.2500  48.5000  30.2500 Du        
   3946 ****       224.2500  48.5000  30.5000 Du        
   3947 ****       224.2500  48.5000  30.7500 Du        
   3948 ****       224.2500  48.5000  31.0000 Du        
   3949 ****       224.2500  48.5000  31.2500 Du        
   3950 ****       224.2500  48.7500  29.7500 Du        
   3951 ****       224.2500  48.7500  30.0000 Du        
   3952 ****       224.2500  48.7500  30.2500 Du        
   3953 ****       224.2500  48.7500  30.5000 Du        
   3954 ****       224.2500  48.7500  30.7500 Du        
   3955 ****       224.2500  48.7500  31.0000 Du        
   3956 ****       224.2500  48.7500  31.2500 Du        
   3957 ****       224.2500  49.0000  30.5000 Du        
   3958 ****       224.2500  49.0000  30.7500 Du        
   3959 ****       224.2500  49.0000  31.0000 Du        
   3960 ****       224.2500  49.0000  31.2500 Du        
   3961 ****       224.5000  45.2500  32.2500 Du        
   3962 ****       224.5000  45.2500  32.5000 Du        
   3963 ****       224.5000  45.2500  32.7500 Du        
   3964 ****       224.5000  45.2500  33.0000 Du        
   3965 ****       224.5000  45.5000  32.2500 Du        
   3966 ****       224.5000  45.5000  32.5000 Du        
   3967 ****       224.5000  45.5000  32.7500 Du        
   3968 ****       224.5000  45.5000  33.0000 Du        
   3969 ****       224.5000  45.7500  32.0000 Du        
   3970 ****       224.5000  45.7500  32.2500 Du        
   3971 ****       224.5000  45.7500  32.5000 Du        
   3972 ****       224.5000  45.7500  32.7500 Du        
   3973 ****       224.5000  45.7500  33.0000 Du        
   3974 ****       224.5000  46.0000  32.0000 Du        
   3975 ****       224.5000  46.0000  32.2500 Du        
   3976 ****       224.5000  46.0000  32.5000 Du        
   3977 ****       224.5000  46.0000  32.7500 Du        
   3978 ****       224.5000  46.0000  33.0000 Du        
   3979 ****       224.5000  46.2500  31.7500 Du        
   3980 ****       224.5000  46.2500  32.0000 Du        
   3981 ****       224.5000  46.2500  32.2500 Du        
   3982 ****       224.5000  46.2500  32.7500 Du        
   3983 ****       224.5000  46.5000  29.7500 Du        
   3984 ****       224.5000  46.5000  30.0000 Du        
   3985 ****       224.5000  46.5000  30.2500 Du        
   3986 ****       224.5000  46.5000  30.5000 Du        
   3987 ****       224.5000  46.5000  30.7500 Du        
   3988 ****       224.5000  46.5000  31.0000 Du        
   3989 ****       224.5000  46.5000  31.7500 Du        
   3990 ****       224.5000  46.5000  32.0000 Du        
   3991 ****       224.5000  46.5000  32.2500 Du        
   3992 ****       224.5000  46.7500  29.5000 Du        
   3993 ****       224.5000  46.7500  29.7500 Du        
   3994 ****       224.5000  46.7500  30.0000 Du        
   3995 ****       224.5000  46.7500  30.2500 Du        
   3996 ****       224.5000  46.7500  30.5000 Du        
   3997 ****       224.5000  46.7500  30.7500 Du        
   3998 ****       224.5000  46.7500  31.0000 Du        
   3999 ****       224.5000  46.7500  31.2500 Du        
   4000 ****       224.5000  46.7500  31.5000 Du        
   4001 ****       224.5000  46.7500  31.7500 Du        
   4002 ****       224.5000  46.7500  32.0000 Du        
   4003 ****       224.5000  46.7500  32.2500 Du        
   4004 ****       224.5000  47.0000  29.2500 Du        
   4005 ****       224.5000  47.0000  29.5000 Du        
   4006 ****       224.5000  47.0000  29.7500 Du        
   4007 ****       224.5000  47.0000  30.0000 Du        
   4008 ****       224.5000  47.0000  30.2500 Du        
   4009 ****       224.5000  47.0000  30.5000 Du        
   4010 ****       224.5000  47.0000  30.7500 Du        
   4011 ****       224.5000  47.0000  31.0000 Du        
   4012 ****       224.5000  47.0000  31.2500 Du        
   4013 ****       224.5000  47.0000  31.5000 Du        
   4014 ****       224.5000  47.0000  31.7500 Du        
   4015 ****       224.5000  47.0000  32.0000 Du        
   4016 ****       224.5000  47.2500  29.2500 Du        
   4017 ****       224.5000  47.2500  29.5000 Du        
   4018 ****       224.5000  47.2500  29.7500 Du        
   4019 ****       224.5000  47.2500  30.0000 Du        
   4020 ****       224.5000  47.2500  30.2500 Du        
   4021 ****       224.5000  47.2500  30.5000 Du        
   4022 ****       224.5000  47.2500  30.7500 Du        
   4023 ****       224.5000  47.2500  31.0000 Du        
   4024 ****       224.5000  47.2500  31.2500 Du        
   4025 ****       224.5000  47.5000  29.2500 Du        
   4026 ****       224.5000  47.5000  29.5000 Du        
   4027 ****       224.5000  47.5000  29.7500 Du        
   4028 ****       224.5000  47.5000  30.0000 Du        
   4029 ****       224.5000  47.5000  30.2500 Du        
   4030 ****       224.5000  47.5000  30.5000 Du        
   4031 ****       224.5000  47.5000  30.7500 Du        
   4032 ****       224.5000  47.5000  31.0000 Du        
   4033 ****       224.5000  47.7500  29.0000 Du        
   4034 ****       224.5000  47.7500  29.2500 Du        
   4035 ****       224.5000  47.7500  29.5000 Du        
   4036 ****       224.5000  47.7500  29.7500 Du        
   4037 ****       224.5000  47.7500  30.0000 Du        
   4038 ****       224.5000  47.7500  30.2500 Du        
   4039 ****       224.5000  47.7500  30.5000 Du        
   4040 ****       224.5000  47.7500  30.7500 Du        
   4041 ****       224.5000  47.7500  31.0000 Du        
   4042 ****       224.5000  48.0000  29.0000 Du        
   4043 ****       224.5000  48.0000  29.2500 Du        
   4044 ****       224.5000  48.0000  29.5000 Du        
   4045 ****       224.5000  48.0000  29.7500 Du        
   4046 ****       224.5000  48.0000  30.0000 Du        
   4047 ****       224.5000  48.0000  30.2500 Du        
   4048 ****       224.5000  48.0000  30.5000 Du        
   4049 ****       224.5000  48.0000  30.7500 Du        
   4050 ****       224.5000  48.0000  31.0000 Du        
   4051 ****       224.5000  48.2500  29.0000 Du        
   4052 ****       224.5000  48.2500  29.2500 Du        
   4053 ****       224.5000  48.2500  29.5000 Du        
   4054 ****       224.5000  48.2500  29.7500 Du        
   4055 ****       224.5000  48.2500  30.0000 Du        
   4056 ****       224.5000  48.2500  30.2500 Du        
   4057 ****       224.5000  48.2500  30.5000 Du        
   4058 ****       224.5000  48.2500  30.7500 Du        
   4059 ****       224.5000  48.5000  29.0000 Du        
   4060 ****       224.5000  48.5000  29.2500 Du        
   4061 ****       224.5000  48.5000  29.5000 Du        
   4062 ****       224.5000  48.5000  29.7500 Du        
   4063 ****       224.5000  48.5000  30.0000 Du        
   4064 ****       224.5000  48.5000  30.2500 Du        
   4065 ****       224.5000  48.5000  30.5000 Du        
   4066 ****       224.5000  48.5000  30.7500 Du        
   4067 ****       224.5000  48.7500  30.2500 Du        
   4068 ****       224.5000  48.7500  30.5000 Du        
   4069 ****       224.7500  45.5000  32.7500 Du        
   4070 ****       224.7500  45.5000  33.0000 Du        
   4071 ****       224.7500  45.7500  32.2500 Du        
   4072 ****       224.7500  45.7500  32.5000 Du        
   4073 ****       224.7500  45.7500  32.7500 Du        
   4074 ****       224.7500  45.7500  33.0000 Du        
   4075 ****       224.7500  46.0000  32.0000 Du        
   4076 ****       224.7500  46.0000  32.2500 Du        
   4077 ****       224.7500  46.0000  32.5000 Du        
   4078 ****       224.7500  46.0000  32.7500 Du        
   4079 ****       224.7500  46.0000  33.0000 Du        
   4080 ****       224.7500  46.2500  32.0000 Du        
   4081 ****       224.7500  46.2500  32.2500 Du        
   4082 ****       224.7500  46.2500  32.5000 Du        
   4083 ****       224.7500  46.2500  32.7500 Du        
   4084 ****       224.7500  46.5000  31.7500 Du        
   4085 ****       224.7500  46.5000  32.0000 Du        
   4086 ****       224.7500  46.5000  32.2500 Du        
   4087 ****       224.7500  46.7500  29.5000 Du        
   4088 ****       224.7500  46.7500  29.7500 Du        
   4089 ****       224.7500  46.7500  30.0000 Du        
   4090 ****       224.7500  46.7500  30.2500 Du        
   4091 ****       224.7500  46.7500  30.5000 Du        
   4092 ****       224.7500  46.7500  30.7500 Du        
   4093 ****       224.7500  46.7500  31.0000 Du        
   4094 ****       224.7500  46.7500  31.2500 Du        
   4095 ****       224.7500  46.7500  31.7500 Du        
   4096 ****       224.7500  46.7500  32.0000 Du        
   4097 ****       224.7500  46.7500  32.2500 Du        
   4098 ****       224.7500  47.0000  29.2500 Du        
   4099 ****       224.7500  47.0000  29.5000 Du        
   4100 ****       224.7500  47.0000  29.7500 Du        
   4101 ****       224.7500  47.0000  30.0000 Du        
   4102 ****       224.7500  47.0000  30.2500 Du        
   4103 ****       224.7500  47.0000  30.5000 Du        
   4104 ****       224.7500  47.0000  30.7500 Du        
   4105 ****       224.7500  47.0000  31.0000 Du        
   4106 ****       224.7500  47.0000  31.2500 Du        
   4107 ****       224.7500  47.0000  31.5000 Du        
   4108 ****       224.7500  47.0000  31.7500 Du        
   4109 ****       224.7500  47.0000  32.0000 Du        
   4110 ****       224.7500  47.2500  29.2500 Du        
   4111 ****       224.7500  47.2500  29.5000 Du        
   4112 ****       224.7500  47.2500  29.7500 Du        
   4113 ****       224.7500  47.2500  30.0000 Du        
   4114 ****       224.7500  47.2500  30.2500 Du        
   4115 ****       224.7500  47.2500  30.5000 Du        
   4116 ****       224.7500  47.2500  30.7500 Du        
   4117 ****       224.7500  47.2500  31.0000 Du        
   4118 ****       224.7500  47.2500  31.2500 Du        
   4119 ****       224.7500  47.2500  32.0000 Du        
   4120 ****       224.7500  47.5000  29.2500 Du        
   4121 ****       224.7500  47.5000  29.5000 Du        
   4122 ****       224.7500  47.5000  29.7500 Du        
   4123 ****       224.7500  47.5000  30.0000 Du        
   4124 ****       224.7500  47.5000  30.2500 Du        
   4125 ****       224.7500  47.5000  30.5000 Du        
   4126 ****       224.7500  47.5000  30.7500 Du        
   4127 ****       224.7500  47.5000  31.0000 Du        
   4128 ****       224.7500  47.7500  29.0000 Du        
   4129 ****       224.7500  47.7500  29.2500 Du        
   4130 ****       224.7500  47.7500  29.5000 Du        
   4131 ****       224.7500  47.7500  29.7500 Du        
   4132 ****       224.7500  47.7500  30.0000 Du        
   4133 ****       224.7500  47.7500  30.2500 Du        
   4134 ****       224.7500  47.7500  30.5000 Du        
   4135 ****       224.7500  47.7500  30.7500 Du        
   4136 ****       224.7500  47.7500  31.0000 Du        
   4137 ****       224.7500  48.0000  29.0000 Du        
   4138 ****       224.7500  48.0000  29.2500 Du        
   4139 ****       224.7500  48.0000  29.5000 Du        
   4140 ****       224.7500  48.0000  29.7500 Du        
   4141 ****       224.7500  48.0000  30.0000 Du        
   4142 ****       224.7500  48.0000  30.2500 Du        
   4143 ****       224.7500  48.0000  30.5000 Du        
   4144 ****       224.7500  48.0000  30.7500 Du        
   4145 ****       224.7500  48.0000  31.0000 Du        
   4146 ****       224.7500  48.2500  28.7500 Du        
   4147 ****       224.7500  48.2500  29.0000 Du        
   4148 ****       224.7500  48.2500  29.2500 Du        
   4149 ****       224.7500  48.2500  29.5000 Du        
   4150 ****       224.7500  48.2500  29.7500 Du        
   4151 ****       224.7500  48.2500  30.0000 Du        
   4152 ****       224.7500  48.2500  30.2500 Du        
   4153 ****       224.7500  48.2500  30.5000 Du        
   4154 ****       224.7500  48.2500  30.7500 Du        
   4155 ****       224.7500  48.2500  31.0000 Du        
   4156 ****       224.7500  48.5000  28.7500 Du        
   4157 ****       224.7500  48.5000  29.0000 Du        
   4158 ****       224.7500  48.5000  29.2500 Du        
   4159 ****       224.7500  48.5000  29.5000 Du        
   4160 ****       224.7500  48.5000  29.7500 Du        
   4161 ****       224.7500  48.5000  30.0000 Du        
   4162 ****       224.7500  48.5000  30.2500 Du        
   4163 ****       224.7500  48.5000  30.5000 Du        
   4164 ****       224.7500  48.5000  30.7500 Du        
   4165 ****       224.7500  48.7500  29.0000 Du        
   4166 ****       224.7500  48.7500  29.2500 Du        
   4167 ****       224.7500  48.7500  29.7500 Du        
   4168 ****       224.7500  48.7500  30.0000 Du        
   4169 ****       224.7500  48.7500  30.2500 Du        
   4170 ****       224.7500  48.7500  30.5000 Du        
   4171 ****       225.0000  45.7500  32.7500 Du        
   4172 ****       225.0000  45.7500  33.0000 Du        
   4173 ****       225.0000  46.0000  32.7500 Du        
   4174 ****       225.0000  46.0000  33.0000 Du        
   4175 ****       225.0000  46.2500  32.2500 Du        
   4176 ****       225.0000  46.2500  32.7500 Du        
   4177 ****       225.0000  46.2500  33.0000 Du        
   4178 ****       225.0000  46.5000  32.2500 Du        
   4179 ****       225.0000  46.7500  29.7500 Du        
   4180 ****       225.0000  46.7500  30.0000 Du        
   4181 ****       225.0000  46.7500  30.2500 Du        
   4182 ****       225.0000  46.7500  31.7500 Du        
   4183 ****       225.0000  46.7500  32.0000 Du        
   4184 ****       225.0000  47.0000  29.2500 Du        
   4185 ****       225.0000  47.0000  29.5000 Du        
   4186 ****       225.0000  47.0000  29.7500 Du        
   4187 ****       225.0000  47.0000  30.0000 Du        
   4188 ****       225.0000  47.0000  30.2500 Du        
   4189 ****       225.0000  47.0000  30.5000 Du        
   4190 ****       225.0000  47.0000  30.7500 Du        
   4191 ****       225.0000  47.0000  31.0000 Du        
   4192 ****       225.0000  47.0000  31.2500 Du        
   4193 ****       225.0000  47.0000  31.7500 Du        
   4194 ****       225.0000  47.0000  32.0000 Du        
   4195 ****       225.0000  47.2500  29.2500 Du        
   4196 ****       225.0000  47.2500  29.5000 Du        
   4197 ****       225.0000  47.2500  29.7500 Du        
   4198 ****       225.0000  47.2500  30.0000 Du        
   4199 ****       225.0000  47.2500  30.2500 Du        
   4200 ****       225.0000  47.2500  30.5000 Du        
   4201 ****       225.0000  47.2500  30.7500 Du        
   4202 ****       225.0000  47.2500  31.0000 Du        
   4203 ****       225.0000  47.2500  31.2500 Du        
   4204 ****       225.0000  47.2500  31.7500 Du        
   4205 ****       225.0000  47.2500  32.0000 Du        
   4206 ****       225.0000  47.5000  29.2500 Du        
   4207 ****       225.0000  47.5000  29.5000 Du        
   4208 ****       225.0000  47.5000  29.7500 Du        
   4209 ****       225.0000  47.5000  30.0000 Du        
   4210 ****       225.0000  47.5000  30.2500 Du        
   4211 ****       225.0000  47.5000  30.5000 Du        
   4212 ****       225.0000  47.5000  30.7500 Du        
   4213 ****       225.0000  47.5000  31.0000 Du        
   4214 ****       225.0000  47.7500  29.2500 Du        
   4215 ****       225.0000  47.7500  29.5000 Du        
   4216 ****       225.0000  47.7500  29.7500 Du        
   4217 ****       225.0000  47.7500  30.0000 Du        
   4218 ****       225.0000  47.7500  30.2500 Du        
   4219 ****       225.0000  47.7500  30.5000 Du        
   4220 ****       225.0000  47.7500  30.7500 Du        
   4221 ****       225.0000  47.7500  31.0000 Du        
   4222 ****       225.0000  48.0000  29.0000 Du        
   4223 ****       225.0000  48.0000  29.2500 Du        
   4224 ****       225.0000  48.0000  29.5000 Du        
   4225 ****       225.0000  48.0000  29.7500 Du        
   4226 ****       225.0000  48.0000  30.0000 Du        
   4227 ****       225.0000  48.0000  30.2500 Du        
   4228 ****       225.0000  48.0000  30.5000 Du        
   4229 ****       225.0000  48.0000  30.7500 Du        
   4230 ****       225.0000  48.0000  31.0000 Du        
   4231 ****       225.0000  48.2500  29.0000 Du        
   4232 ****       225.0000  48.2500  29.2500 Du        
   4233 ****       225.0000  48.2500  29.5000 Du        
   4234 ****       225.0000  48.2500  29.7500 Du        
   4235 ****       225.0000  48.2500  30.0000 Du        
   4236 ****       225.0000  48.2500  30.2500 Du        
   4237 ****       225.0000  48.2500  30.5000 Du        
   4238 ****       225.0000  48.2500  30.7500 Du        
   4239 ****       225.0000  48.2500  31.0000 Du        
   4240 ****       225.0000  48.5000  29.0000 Du        
   4241 ****       225.0000  48.5000  29.2500 Du        
   4242 ****       225.0000  48.5000  29.5000 Du        
   4243 ****       225.0000  48.5000  29.7500 Du        
   4244 ****       225.0000  48.5000  30.0000 Du        
   4245 ****       225.0000  48.5000  30.2500 Du        
   4246 ****       225.0000  48.7500  29.0000 Du        
   4247 ****       225.0000  48.7500  29.2500 Du        
   4248 ****       225.0000  48.7500  29.5000 Du        
   4249 ****       225.0000  48.7500  29.7500 Du        
   4250 ****       225.0000  48.7500  30.0000 Du        
   4251 ****       225.0000  48.7500  30.2500 Du        
   4252 ****       225.0000  49.0000  30.2500 Du        
   4253 ****       225.2500  46.0000  32.7500 Du        
   4254 ****       225.2500  46.0000  33.0000 Du        
   4255 ****       225.2500  46.2500  32.7500 Du        
   4256 ****       225.2500  46.2500  33.0000 Du        
   4257 ****       225.2500  47.0000  29.7500 Du        
   4258 ****       225.2500  47.0000  30.0000 Du        
   4259 ****       225.2500  47.0000  30.2500 Du        
   4260 ****       225.2500  47.2500  29.5000 Du        
   4261 ****       225.2500  47.2500  29.7500 Du        
   4262 ****       225.2500  47.2500  30.0000 Du        
   4263 ****       225.2500  47.2500  30.2500 Du        
   4264 ****       225.2500  47.2500  30.5000 Du        
   4265 ****       225.2500  47.2500  30.7500 Du        
   4266 ****       225.2500  47.2500  31.0000 Du        
   4267 ****       225.2500  47.2500  32.0000 Du        
   4268 ****       225.2500  47.5000  29.5000 Du        
   4269 ****       225.2500  47.5000  29.7500 Du        
   4270 ****       225.2500  47.5000  30.0000 Du        
   4271 ****       225.2500  47.5000  30.2500 Du        
   4272 ****       225.2500  47.5000  30.5000 Du        
   4273 ****       225.2500  47.5000  30.7500 Du        
   4274 ****       225.2500  47.5000  31.0000 Du        
   4275 ****       225.2500  47.7500  29.5000 Du        
   4276 ****       225.2500  47.7500  29.7500 Du        
   4277 ****       225.2500  47.7500  30.0000 Du        
   4278 ****       225.2500  47.7500  30.2500 Du        
   4279 ****       225.2500  47.7500  30.5000 Du        
   4280 ****       225.2500  47.7500  30.7500 Du        
   4281 ****       225.2500  47.7500  31.0000 Du        
   4282 ****       225.2500  48.0000  29.2500 Du        
   4283 ****       225.2500  48.0000  29.5000 Du        
   4284 ****       225.2500  48.0000  29.7500 Du        
   4285 ****       225.2500  48.0000  30.0000 Du        
   4286 ****       225.2500  48.0000  30.2500 Du        
   4287 ****       225.2500  48.0000  30.5000 Du        
   4288 ****       225.2500  48.0000  30.7500 Du        
   4289 ****       225.2500  48.0000  31.0000 Du        
   4290 ****       225.2500  48.2500  29.2500 Du        
   4291 ****       225.2500  48.2500  29.5000 Du        
   4292 ****       225.2500  48.2500  29.7500 Du        
   4293 ****       225.2500  48.2500  30.0000 Du        
   4294 ****       225.2500  48.2500  30.2500 Du        
   4295 ****       225.2500  48.2500  30.5000 Du        
   4296 ****       225.2500  48.2500  30.7500 Du        
   4297 ****       225.2500  48.5000  29.2500 Du        
   4298 ****       225.2500  48.5000  29.5000 Du        
   4299 ****       225.2500  48.5000  29.7500 Du        
   4300 ****       225.2500  48.5000  30.0000 Du        
   4301 ****       225.2500  48.5000  30.2500 Du        
   4302 ****       225.2500  48.7500  29.0000 Du        
   4303 ****       225.2500  48.7500  29.2500 Du        
   4304 ****       225.2500  48.7500  29.5000 Du        
   4305 ****       225.2500  48.7500  29.7500 Du        
   4306 ****       225.2500  48.7500  30.0000 Du        
   4307 ****       225.2500  48.7500  30.2500 Du        
   4308 ****       225.2500  49.0000  29.0000 Du        
   4309 ****       225.2500  49.0000  29.2500 Du        
   4310 ****       225.2500  49.0000  30.0000 Du        
   4311 ****       225.2500  49.0000  30.2500 Du        
   4312 ****       225.5000  46.7500  33.0000 Du        
   4313 ****       225.5000  47.2500  30.0000 Du        
   4314 ****       225.5000  47.2500  30.2500 Du        
   4315 ****       225.5000  47.5000  29.7500 Du        
   4316 ****       225.5000  47.5000  30.0000 Du        
   4317 ****       225.5000  47.5000  30.2500 Du        
   4318 ****       225.5000  47.5000  30.5000 Du        
   4319 ****       225.5000  47.7500  29.7500 Du        
   4320 ****       225.5000  47.7500  30.0000 Du        
   4321 ****       225.5000  47.7500  30.2500 Du        
   4322 ****       225.5000  47.7500  30.5000 Du        
   4323 ****       225.5000  47.7500  30.7500 Du        
   4324 ****       225.5000  48.0000  29.7500 Du        
   4325 ****       225.5000  48.0000  30.0000 Du        
   4326 ****       225.5000  48.0000  30.2500 Du        
   4327 ****       225.5000  48.2500  29.7500 Du        
   4328 ****       225.5000  48.2500  30.0000 Du        
   4329 ****       225.5000  48.2500  30.2500 Du        
   4330 ****       225.5000  48.5000  29.7500 Du        
   4331 ****       225.5000  48.5000  30.0000 Du        
   4332 ****       225.5000  48.5000  30.2500 Du        
   4333 ****       225.5000  48.7500  29.2500 Du        
   4334 ****       225.5000  48.7500  29.5000 Du        
   4335 ****       225.5000  48.7500  29.7500 Du        
   4336 ****       225.5000  48.7500  30.0000 Du        
   4337 ****       225.5000  48.7500  30.2500 Du        
   4338 ****       225.7500  47.5000  30.2500 Du        
   4339 ****       225.7500  47.7500  30.0000 Du        
   4340 ****       225.7500  47.7500  30.2500 Du        
   4341 ****       225.7500  47.7500  30.7500 Du        
   4342 ****       225.7500  47.7500  31.0000 Du        
   4343 ****       225.7500  48.0000  30.0000 Du        
   4344 ****       225.7500  48.0000  30.2500 Du        
   4345 ****       225.7500  48.2500  30.0000 Du        
   4346 ****       225.7500  48.2500  30.2500 Du        
   4347 ****       225.7500  48.5000  30.0000 Du        
   4348 ****       225.7500  48.5000  30.2500 Du        
   4349 ****       225.7500  48.7500  30.0000 Du        
   4350 ****       225.7500  48.7500  30.2500 Du        
   4351 ****       225.7500  49.0000  29.7500 Du        
   4352 ****       225.7500  50.0000  26.5000 Du        
   4353 ****       225.7500  50.0000  26.7500 Du        
   4354 ****       225.7500  50.0000  27.0000 Du        
   4355 ****       225.7500  50.2500  26.5000 Du        
   4356 ****       225.7500  50.2500  26.7500 Du        
   4357 ****       226.0000  48.0000  31.0000 Du        
   4358 ****       226.0000  48.7500  30.0000 Du        
   4359 ****       226.0000  50.0000  26.5000 Du        
   4360 ****       226.0000  50.0000  26.7500 Du        
   4361 ****       226.0000  50.0000  27.0000 Du        
   4362 ****       226.0000  50.2500  26.5000 Du        
   4363 ****       226.0000  50.2500  26.7500 Du        
   4364 ****       226.0000  50.2500  27.0000 Du        
   4365 ****       226.2500  50.2500  26.5000 Du        
   4366 ****       226.2500  50.2500  26.7500 Du        
   4367 ****       228.0000  49.0000  30.7500 Du        
   4368 ****       228.0000  49.0000  31.0000 Du        
   4369 ****       228.2500  49.0000  30.5000 Du        
   4370 ****       228.2500  49.0000  30.7500 Du        
   4371 ****       228.2500  49.0000  31.0000 Du        
   4372 ****       228.2500  49.2500  30.5000 Du        
   4373 ****       228.2500  49.2500  30.7500 Du        
   4374 ****       228.2500  49.2500  31.0000 Du        
   4375 ****       228.5000  49.0000  30.5000 Du        
   4376 ****       228.5000  49.0000  30.7500 Du        
   4377 ****       228.5000  49.2500  30.5000 Du        
   4378 ****       228.5000  49.2500  30.7500 Du        
   4379 ****       228.7500  46.7500  36.7500 Du        
   4380 ****       228.7500  46.7500  37.0000 Du        
   4381 ****       228.7500  46.7500  37.2500 Du        
   4382 ****       228.7500  47.0000  36.7500 Du        
   4383 ****       228.7500  47.0000  37.0000 Du        
   4384 ****       228.7500  47.0000  37.2500 Du        
   4385 ****       228.7500  49.2500  30.5000 Du        
   4386 ****       229.0000  46.2500  37.0000 Du        
   4387 ****       229.0000  46.2500  37.2500 Du        
   4388 ****       229.0000  46.5000  37.0000 Du        
   4389 ****       229.0000  46.5000  37.2500 Du        
   4390 ****       229.0000  46.7500  36.7500 Du        
   4391 ****       229.0000  46.7500  37.0000 Du        
   4392 ****       229.0000  46.7500  37.2500 Du        
   4393 ****       229.0000  47.0000  36.7500 Du        
   4394 ****       229.0000  47.0000  37.0000 Du        
   4395 ****       229.0000  47.0000  37.2500 Du        
   4396 ****       229.2500  46.2500  37.2500 Du        
   4397 ****       229.2500  46.5000  37.2500 Du        
   4398 ****       229.2500  46.7500  37.0000 Du        
   4399 ****       229.2500  46.7500  37.2500 Du        
   4400 ****       229.2500  47.0000  36.7500 Du        
   4401 ****       229.2500  47.0000  37.0000 Du        
   4402 ****       229.2500  47.0000  37.2500 Du        
   4403 ****       229.5000  46.7500  37.2500 Du        
   4404 ****       229.5000  47.0000  37.2500 Du        
   4405 ****       229.7500  47.0000  37.2500 Du        
