#       Name:                CT1002167954
#       Creating user name   hitesit
#       Creation time:       Sun Apr 16 23:03:03 2023


#       File generated by GOLD software.
#

@<TRIPOS>MOLECULE
CT1002167954|ligand_prepared|mol2|1|dock6
    29    30     1
SMALL
NO_CHARGES


@<TRIPOS>ATOM
      1 C1         223.4278  46.5572  31.7353 C.3            1 RES1               0.0000
      2 C2         223.0520  45.0641  31.8271 C.ar           1 RES1               0.0000
      3 C3         224.2871  46.8588  32.9595 C.2            1 RES1               0.0000
      4 C4         224.1544  46.7333  30.4065 C.2            1 RES1               0.0000
      5 C5         222.2095  47.5097  31.7435 C.3            1 RES1               0.0000
      6 C6         223.6807  44.2305  32.7471 C.ar           1 RES1               0.0000
      7 C7         222.0785  44.5076  31.0017 C.ar           1 RES1               0.0000
      8 N8         225.6264  47.0280  32.7652 N.am           1 RES1               0.0000
      9 O9         223.8031  46.9081  34.0836 O.2            1 RES1               0.0000
     10 N10        225.4792  47.0816  30.4403 N.am           1 RES1               0.0000
     11 O11        223.5958  46.5573  29.3306 O.2            1 RES1               0.0000
     12 C12        222.5826  48.9827  31.6869 C.3            1 RES1               0.0000
     13 C13        223.3463  42.8897  32.8408 C.ar           1 RES1               0.0000
     14 C14        221.7458  43.1664  31.0969 C.ar           1 RES1               0.0000
     15 C15        226.2560  47.2070  31.5597 C.2            1 RES1               0.0000
     16 C16        222.3785  42.3569  32.0162 C.ar           1 RES1               0.0000
     17 O17        227.4541  47.4696  31.5069 O.2            1 RES1               0.0000
     18 H18        221.5710  47.2738  30.8833 H              1 RES1               0.0000
     19 H19        221.6256  47.3282  32.6543 H              1 RES1               0.0000
     20 H20        224.4466  44.6314  33.4027 H              1 RES1               0.0000
     21 H21        221.5684  45.1253  30.2704 H              1 RES1               0.0000
     22 H22        226.2141  47.0208  33.5928 H              1 RES1               0.0000
     23 H23        225.9279  47.2646  29.5484 H              1 RES1               0.0000
     24 H24        221.6915  49.6069  31.6952 H              1 RES1               0.0000
     25 H25        223.1972  49.2582  32.5414 H              1 RES1               0.0000
     26 H26        223.1429  49.2041  30.7809 H              1 RES1               0.0000
     27 H27        223.8482  42.2565  33.5650 H              1 RES1               0.0000
     28 H28        220.9839  42.7512  30.4455 H              1 RES1               0.0000
     29 H29        222.1164  41.3066  32.0901 H              1 RES1               0.0000
@<TRIPOS>BOND
    1    1    2 1     
    2    1    3 1     
    3    1    4 1     
    4    1    5 1     
    5    2    6 ar    
    6    2    7 ar    
    7    3    8 1     
    8    3    9 2     
    9    4   10 1     
   10    4   11 2     
   11    5   12 1     
   12    5   18 1     
   13    5   19 1     
   14    6   13 ar    
   15    6   20 1     
   16    7   14 ar    
   17    7   21 1     
   18    8   15 1     
   19    8   22 1     
   20   10   15 1     
   21   10   23 1     
   22   12   24 1     
   23   12   25 1     
   24   12   26 1     
   25   13   16 ar    
   26   13   27 1     
   27   14   16 ar    
   28   14   28 1     
   29   15   17 2     
   30   16   29 1     
@<TRIPOS>SUBSTRUCTURE
      1 RES1           1
@<TRIPOS>SET
DONOR_HYDROGENS      STATIC     ATOMS    <user>   **** ""
2 22 23
ATOM$RED        STATIC     ATOMS    COLORGROUP SYSTEM
2 22 23
@<TRIPOS>COMMENT
> <Gold.Version>
2022.3.0

> <Gold.Id.Protein>
unknown|4d1n_clean|pdb

> <Gold.Protein.RotatedTorsions>
[ 1580 1535 1534 1533 ] final -139.04 input   60.00 | X-H torsion
[ 4298 4278 4277 4274 ] final -117.92 input   59.99 | X-H torsion
[ 4334 4317 4318 4319 ] final   16.47 input  114.03 | X-H torsion
[ 4338 4322 4321 4318 ] final  -15.16 input   59.99 | X-H torsion
[ 6681 6660 6659 6657 ] final  -99.36 input   60.02 | X-H torsion
[ 23749 23701 23702 23703 ] final  -55.17 input   59.44 | X-H torsion
[ 23797 23783 23784 23785 ] final  156.03 input  -92.48 | X-H torsion
[ 4159 4117 4118 4119 ] final  -16.59 input  119.10 | X-H torsion
[ 6905 6885 6886 6887 ] final  -41.73 input  108.16 | X-H torsion
[ 1343 1305 1306 1307 ] final -163.18 input  118.39 | X-H torsion
[ 1570 1527 1528 1529 ] final   -6.72 input   90.05 | X-H torsion
[ 4077 4043 4044 4045 ] final   68.89 input  116.01 | X-H torsion
[ 25737 25709 25710 25711 ] final -133.65 input   60.94 | X-H torsion
[ 1631 1609 1610 1611 ] final  -61.08 input  112.52 | X-H torsion
[ 1281 1253 1251 1248 ] final   82.21 input   60.01 | X-H torsion
[ 23825 23811 23812 23813 ] final  -97.98 input  -23.57 | X-H torsion
[ 27193 4046 4045 4044 ] final    9.00 input   -0.00 | X-H torsion
[ 27207 23650 23649 23648 ] final    5.95 input    0.00 | X-H torsion
[ 27210 23704 23703 23702 ] final  -86.55 input    0.00 | X-H torsion
[ 27213 25712 25711 25710 ] final  -14.81 input    0.00 | X-H torsion
[ 27217 6888 6887 6886 ] final   85.10 input    0.00 | X-H torsion
[ 27219 1308 1307 1306 ] final   64.55 input    0.00 | X-H torsion
[ 27223 1530 1529 1528 ] final   12.36 input   -0.00 | X-H torsion
[ 27225 3782 3781 3780 ] final  -51.28 input    0.00 | X-H torsion
[ 27227 3996 3995 3994 ] final  145.89 input   -0.00 | X-H torsion

> <Gold.Protein.ActiveResidues>
 THR320  LEU321  LYS324  SER325  GLU365  PHE366  ASP368  GLN369  TYR370  SER372 
 SER373  TYR408  HIS412  ARG415  ASN416  TRP426  GLU670  CYS673  ARG674  GLY675 
 GLY676  TYR703  LEU705  THR706  PRO707 

> <Gold.Protein.RotatedAtoms>
  229.2070   43.5758   38.5458 H   0  0  0  0  0  0  0  0  0  0  0  0  # atno 1281 bound_to 1253
  229.3703   41.8716   37.6509 H   0  0  0  0  0  0  0  0  0  0  0  0  # atno 1343 bound_to 1305
  223.4459   38.6966   38.2447 H   0  0  0  0  0  0  0  0  0  0  0  0  # atno 1570 bound_to 1527
  226.0054   45.5316   37.7761 H   0  0  0  0  0  0  0  0  0  0  0  0  # atno 1580 bound_to 1535
  225.8308   44.6781   36.3662 H   0  0  0  0  0  0  0  0  0  0  0  0  # atno 1581 bound_to 1535
  225.2248   46.2163   36.4837 H   0  0  0  0  0  0  0  0  0  0  0  0  # atno 1582 bound_to 1535
  221.4223   38.8127   36.8033 H   0  0  0  0  0  0  0  0  0  0  0  0  # atno 1631 bound_to 1609
  216.1499   48.1946   31.4761 H   0  0  0  0  0  0  0  0  0  0  0  0  # atno 4077 bound_to 4043
  217.9078   49.7617   30.4337 H   0  0  0  0  0  0  0  0  0  0  0  0  # atno 4159 bound_to 4117
  221.7991   50.8087   33.9933 H   0  0  0  0  0  0  0  0  0  0  0  0  # atno 4298 bound_to 4278
  220.5826   53.0402   30.5279 H   0  0  0  0  0  0  0  0  0  0  0  0  # atno 4334 bound_to 4317
  221.0064   52.5700   27.7751 H   0  0  0  0  0  0  0  0  0  0  0  0  # atno 4338 bound_to 4322
  220.7317   48.3719   28.6074 H   0  0  0  0  0  0  0  0  0  0  0  0  # atno 6681 bound_to 6660
  223.1938   43.3658   21.5124 H   0  0  0  0  0  0  0  0  0  0  0  0  # atno 6905 bound_to 6885
  232.3474   47.0381   33.2421 H   0  0  0  0  0  0  0  0  0  0  0  0  # atno 23749 bound_to 23701
  231.2628   45.5845   34.7406 H   0  0  0  0  0  0  0  0  0  0  0  0  # atno 23797 bound_to 23783
  232.7905   42.4785   34.2464 H   0  0  0  0  0  0  0  0  0  0  0  0  # atno 23825 bound_to 23811
  220.4099   37.7474   29.5440 H   0  0  0  0  0  0  0  0  0  0  0  0  # atno 25737 bound_to 25709
  220.4015   49.7062   31.0499 LP  0  0  0  0  0  0  0  0  0  0  0  0  # atno 27193 bound_to 4046
  219.8355   50.6487   29.7115 LP  0  0  0  0  0  0  0  0  0  0  0  0  # atno 27194 bound_to 4046
  221.0537   51.5694   35.2233 LP  0  0  0  0  0  0  0  0  0  0  0  0  # atno 27195 bound_to 4278
  221.8140   52.4340   34.0653 LP  0  0  0  0  0  0  0  0  0  0  0  0  # atno 27196 bound_to 4278
  221.1852   51.5643   31.2468 LP  0  0  0  0  0  0  0  0  0  0  0  0  # atno 27197 bound_to 4317
  220.8055   51.0596   27.2052 LP  0  0  0  0  0  0  0  0  0  0  0  0  # atno 27198 bound_to 4322
  222.0728   51.9614   26.7081 LP  0  0  0  0  0  0  0  0  0  0  0  0  # atno 27199 bound_to 4322
  222.1075   47.7308   28.0200 LP  0  0  0  0  0  0  0  0  0  0  0  0  # atno 27200 bound_to 6660
  220.7803   46.7968   28.2010 LP  0  0  0  0  0  0  0  0  0  0  0  0  # atno 27201 bound_to 6660
  231.2888   49.5706   32.6606 LP  0  0  0  0  0  0  0  0  0  0  0  0  # atno 27207 bound_to 23650
  230.2927   48.2366   33.1382 LP  0  0  0  0  0  0  0  0  0  0  0  0  # atno 27208 bound_to 23650
  232.3362   46.3403   31.6407 LP  0  0  0  0  0  0  0  0  0  0  0  0  # atno 27209 bound_to 23701
  228.8378   45.1826   35.0565 LP  0  0  0  0  0  0  0  0  0  0  0  0  # atno 27210 bound_to 23704
  229.0490   43.7207   34.1518 LP  0  0  0  0  0  0  0  0  0  0  0  0  # atno 27211 bound_to 23704
  232.0039   44.3632   33.7325 LP  0  0  0  0  0  0  0  0  0  0  0  0  # atno 27212 bound_to 23783
  219.3445   40.8846   30.0872 LP  0  0  0  0  0  0  0  0  0  0  0  0  # atno 27213 bound_to 25712
  219.7245   42.0853   28.8982 LP  0  0  0  0  0  0  0  0  0  0  0  0  # atno 27214 bound_to 25712
  217.3057   48.5842   29.2927 LP  0  0  0  0  0  0  0  0  0  0  0  0  # atno 27215 bound_to 4117
  222.3234   44.6613   22.2870 LP  0  0  0  0  0  0  0  0  0  0  0  0  # atno 27216 bound_to 6885
  223.3311   40.8884   25.3728 LP  0  0  0  0  0  0  0  0  0  0  0  0  # atno 27217 bound_to 6888
  224.4421   40.6168   24.0721 LP  0  0  0  0  0  0  0  0  0  0  0  0  # atno 27218 bound_to 6888
  225.3336   40.0390   35.5176 LP  0  0  0  0  0  0  0  0  0  0  0  0  # atno 27219 bound_to 1308
  224.9497   39.7134   37.1749 LP  0  0  0  0  0  0  0  0  0  0  0  0  # atno 27220 bound_to 1308
  229.1498   40.1653   37.9802 LP  0  0  0  0  0  0  0  0  0  0  0  0  # atno 27221 bound_to 1305
  223.9268   40.3198   38.6778 LP  0  0  0  0  0  0  0  0  0  0  0  0  # atno 27222 bound_to 1527
  220.0046   40.3352   36.1094 LP  0  0  0  0  0  0  0  0  0  0  0  0  # atno 27223 bound_to 1530
  219.7296   38.6405   35.8800 LP  0  0  0  0  0  0  0  0  0  0  0  0  # atno 27224 bound_to 1530
  215.4248   46.7336   32.8948 LP  0  0  0  0  0  0  0  0  0  0  0  0  # atno 27225 bound_to 3782
  216.2847   45.6892   31.8132 LP  0  0  0  0  0  0  0  0  0  0  0  0  # atno 27226 bound_to 3782
  218.2640   50.4385   32.8920 LP  0  0  0  0  0  0  0  0  0  0  0  0  # atno 27227 bound_to 3996
  216.9495   51.5280   32.6008 LP  0  0  0  0  0  0  0  0  0  0  0  0  # atno 27228 bound_to 3996
  216.7401   48.8931   32.9597 LP  0  0  0  0  0  0  0  0  0  0  0  0  # atno 27229 bound_to 4043
  219.9134   39.1749   30.4219 LP  0  0  0  0  0  0  0  0  0  0  0  0  # atno 27230 bound_to 25709
  222.8017   37.8130   37.1962 LP  0  0  0  0  0  0  0  0  0  0  0  0  # atno 27232 bound_to 1609

> <Gold.Score>
     Fitness  S(hb_ext) S(vdw_ext)  S(hb_int)    S(int)      intcor
     28.84       0.00      22.46       0.00      -2.04      -0.76

> <Gold.Goldscore.Fitness>
28.8390

> <Gold.Goldscore.Internal.Vdw>
-2.4293

> <Gold.Goldscore.Internal.Torsion>
-0.3703

> <Gold.Goldscore.External.Vdw>
22.4582

> <Gold.Goldscore.Internal.HBond>
0.0000

> <Gold.Goldscore.External.HBond>
0.0000

> <Gold.Goldscore.Internal.Correction>
-0.7585

> <Gold.Goldscore.Internal.Vdw.Weighted>
-2.4293

> <Gold.Goldscore.Internal.Torsion.Weighted>
-0.3703

> <Gold.Goldscore.External.Vdw.Weighted>
30.8801

> <Gold.Goldscore.Internal.HBond.Weighted>
0.0000

> <Gold.Goldscore.External.HBond.Weighted>
0.0000

> <Gold.Goldscore.Internal.Correction.Weighted>
-0.7585

> <Gold.Rescore>
     Score     S(PLP)   S(hbond)     S(cho)   S(metal)  DE(clash)   DE(tors)     intcor
     34.96     -34.43       1.00       0.00       0.00       0.00       1.24       ----

> <Gold.PLP.Fitness>
34.9561

> <Gold.PLP.PLP>
-34.4317

> <Gold.PLP.part.hbond>
-4.0000

> <Gold.PLP.part.metal>
0.0000

> <Gold.PLP.part.buried>
-6.0847

> <Gold.PLP.part.nonpolar>
-26.9276

> <Gold.PLP.part.repulsive>
0.3263

> <Gold.PLP.ligand.clash>
0.0000

> <Gold.PLP.ligand.torsion>
1.2378

> <Gold.PLP.Chemscore.Hbond>
1.0000

> <Gold.PLP.Chemscore.CHOScore>
0.0000

> <Gold.PLP.Chemscore.Metal>
0.0000

> <Gold.PLP.Chemscore.Internal.Correction>
   9.000000E+99

