#       Name:                CT1002167954
#       Creating user name   hitesit
#       Creation time:       Sun Apr 16 23:03:01 2023


#       File generated by GOLD software.
#

@<TRIPOS>MOLECULE
CT1002167954|ligand_prepared|mol2|1|dock1
    29    30     1
SMALL
NO_CHARGES


@<TRIPOS>ATOM
      1 C1         223.4538  45.6936  32.6789 C.3            1 RES1               0.0000
      2 C2         222.5710  44.4452  32.4765 C.ar           1 RES1               0.0000
      3 C3         223.6766  46.2902  31.2924 C.2            1 RES1               0.0000
      4 C4         222.6908  46.6054  33.6334 C.2            1 RES1               0.0000
      5 C5         224.8325  45.3883  33.3096 C.3            1 RES1               0.0000
      6 C6         221.2285  44.4597  32.8428 C.ar           1 RES1               0.0000
      7 C7         223.0833  43.2747  31.9232 C.ar           1 RES1               0.0000
      8 N8         223.0046  47.4356  30.9820 N.am           1 RES1               0.0000
      9 O9         224.4003  45.7426  30.4698 O.2            1 RES1               0.0000
     10 N10        222.2471  47.8099  33.1536 N.am           1 RES1               0.0000
     11 O11        222.4553  46.2846  34.7918 O.2            1 RES1               0.0000
     12 C12        225.6689  46.6280  33.5848 C.3            1 RES1               0.0000
     13 C13        220.4264  43.3455  32.6599 C.ar           1 RES1               0.0000
     14 C14        222.2795  42.1615  31.7413 C.ar           1 RES1               0.0000
     15 C15        222.3427  48.2530  31.8626 C.2            1 RES1               0.0000
     16 C16        220.9511  42.1959  32.1087 C.ar           1 RES1               0.0000
     17 O17        221.8707  49.3251  31.4951 O.2            1 RES1               0.0000
     18 H18        224.6779  44.8501  34.2529 H              1 RES1               0.0000
     19 H19        225.3912  44.7282  32.6346 H              1 RES1               0.0000
     20 H20        220.7986  45.3546  33.2803 H              1 RES1               0.0000
     21 H21        224.1258  43.2244  31.6277 H              1 RES1               0.0000
     22 H22        222.9930  47.7097  30.0047 H              1 RES1               0.0000
     23 H23        221.8047  48.4340  33.8208 H              1 RES1               0.0000
     24 H24        226.6255  46.3575  34.0268 H              1 RES1               0.0000
     25 H25        225.8633  47.1743  32.6642 H              1 RES1               0.0000
     26 H26        225.1542  47.2955  34.2729 H              1 RES1               0.0000
     27 H27        219.3819  43.3773  32.9519 H              1 RES1               0.0000
     28 H28        222.6968  41.2587  31.3077 H              1 RES1               0.0000
     29 H29        220.3224  41.3234  31.9651 H              1 RES1               0.0000
@<TRIPOS>BOND
    1    1    2 1     
    2    1    3 1     
    3    1    4 1     
    4    1    5 1     
    5    2    6 ar    
    6    2    7 ar    
    7    3    8 1     
    8    3    9 2     
    9    4   10 1     
   10    4   11 2     
   11    5   12 1     
   12    5   18 1     
   13    5   19 1     
   14    6   13 ar    
   15    6   20 1     
   16    7   14 ar    
   17    7   21 1     
   18    8   15 1     
   19    8   22 1     
   20   10   15 1     
   21   10   23 1     
   22   12   24 1     
   23   12   25 1     
   24   12   26 1     
   25   13   16 ar    
   26   13   27 1     
   27   14   16 ar    
   28   14   28 1     
   29   15   17 2     
   30   16   29 1     
@<TRIPOS>SUBSTRUCTURE
      1 RES1           1
@<TRIPOS>SET
DONOR_HYDROGENS      STATIC     ATOMS    <user>   **** ""
2 22 23
ATOM$RED        STATIC     ATOMS    COLORGROUP SYSTEM
2 22 23
@<TRIPOS>COMMENT
> <Gold.Version>
2022.3.0

> <Gold.Id.Protein>
unknown|4d1n_clean|pdb

> <Gold.Protein.RotatedTorsions>
[ 1580 1535 1534 1533 ] final   -5.23 input   60.00 | X-H torsion
[ 4298 4278 4277 4274 ] final -168.79 input   59.99 | X-H torsion
[ 4334 4317 4318 4319 ] final  -29.66 input  114.03 | X-H torsion
[ 4338 4322 4321 4318 ] final  135.57 input   59.99 | X-H torsion
[ 6681 6660 6659 6657 ] final  -11.18 input   60.02 | X-H torsion
[ 23749 23701 23702 23703 ] final   40.61 input   59.44 | X-H torsion
[ 23797 23783 23784 23785 ] final   18.54 input  -92.48 | X-H torsion
[ 4159 4117 4118 4119 ] final -109.09 input  119.10 | X-H torsion
[ 6905 6885 6886 6887 ] final  156.26 input  108.16 | X-H torsion
[ 1343 1305 1306 1307 ] final -161.95 input  118.39 | X-H torsion
[ 1570 1527 1528 1529 ] final   26.21 input   90.05 | X-H torsion
[ 4077 4043 4044 4045 ] final  153.54 input  116.01 | X-H torsion
[ 25737 25709 25710 25711 ] final  -35.41 input   60.94 | X-H torsion
[ 1631 1609 1610 1611 ] final   -3.59 input  112.52 | X-H torsion
[ 1281 1253 1251 1248 ] final  -80.18 input   60.01 | X-H torsion
[ 23825 23811 23812 23813 ] final  -73.58 input  -23.57 | X-H torsion
[ 27193 4046 4045 4044 ] final  106.96 input   -0.00 | X-H torsion
[ 27207 23650 23649 23648 ] final  102.23 input    0.00 | X-H torsion
[ 27210 23704 23703 23702 ] final    1.68 input    0.00 | X-H torsion
[ 27213 25712 25711 25710 ] final  114.42 input    0.00 | X-H torsion
[ 27217 6888 6887 6886 ] final   35.32 input    0.00 | X-H torsion
[ 27219 1308 1307 1306 ] final -149.16 input    0.00 | X-H torsion
[ 27223 1530 1529 1528 ] final   66.93 input   -0.00 | X-H torsion
[ 27225 3782 3781 3780 ] final -147.53 input    0.00 | X-H torsion
[ 27227 3996 3995 3994 ] final  -57.56 input   -0.00 | X-H torsion

> <Gold.Protein.ActiveResidues>
 THR320  LEU321  LYS324  SER325  GLU365  PHE366  ASP368  GLN369  TYR370  SER372 
 SER373  TYR408  HIS412  ARG415  ASN416  TRP426  GLU670  CYS673  ARG674  GLY675 
 GLY676  TYR703  LEU705  THR706  PRO707 

> <Gold.Protein.RotatedAtoms>
  231.0362   43.3592   38.3643 H   0  0  0  0  0  0  0  0  0  0  0  0  # atno 1281 bound_to 1253
  229.3583   41.8757   37.6652 H   0  0  0  0  0  0  0  0  0  0  0  0  # atno 1343 bound_to 1305
  223.7429   38.8600   37.8756 H   0  0  0  0  0  0  0  0  0  0  0  0  # atno 1570 bound_to 1527
  225.7191   44.7954   36.2025 H   0  0  0  0  0  0  0  0  0  0  0  0  # atno 1580 bound_to 1535
  225.2624   46.3124   36.6895 H   0  0  0  0  0  0  0  0  0  0  0  0  # atno 1581 bound_to 1535
  226.0795   45.3182   37.7340 H   0  0  0  0  0  0  0  0  0  0  0  0  # atno 1582 bound_to 1535
  221.3869   38.3202   37.4975 H   0  0  0  0  0  0  0  0  0  0  0  0  # atno 1631 bound_to 1609
  216.4542   47.7199   32.5100 H   0  0  0  0  0  0  0  0  0  0  0  0  # atno 4077 bound_to 4043
  218.4103   48.8407   29.7091 H   0  0  0  0  0  0  0  0  0  0  0  0  # atno 4159 bound_to 4117
  221.3711   50.7170   34.6676 H   0  0  0  0  0  0  0  0  0  0  0  0  # atno 4298 bound_to 4278
  221.0193   53.1534   31.0562 H   0  0  0  0  0  0  0  0  0  0  0  0  # atno 4334 bound_to 4317
  221.9020   51.5023   26.6193 H   0  0  0  0  0  0  0  0  0  0  0  0  # atno 4338 bound_to 4322
  220.4294   47.1233   28.3900 H   0  0  0  0  0  0  0  0  0  0  0  0  # atno 6681 bound_to 6660
  222.5684   44.7819   22.2740 H   0  0  0  0  0  0  0  0  0  0  0  0  # atno 6905 bound_to 6885
  232.7217   45.9237   32.6654 H   0  0  0  0  0  0  0  0  0  0  0  0  # atno 23749 bound_to 23701
  231.3732   44.2997   33.7100 H   0  0  0  0  0  0  0  0  0  0  0  0  # atno 23797 bound_to 23783
  232.6743   42.5660   33.9041 H   0  0  0  0  0  0  0  0  0  0  0  0  # atno 23825 bound_to 23811
  220.7391   39.0396   29.6417 H   0  0  0  0  0  0  0  0  0  0  0  0  # atno 25737 bound_to 25709
  220.3940   49.6591   29.7440 LP  0  0  0  0  0  0  0  0  0  0  0  0  # atno 27193 bound_to 4046
  219.8429   50.6957   31.0174 LP  0  0  0  0  0  0  0  0  0  0  0  0  # atno 27194 bound_to 4046
  221.2444   52.3120   34.9624 LP  0  0  0  0  0  0  0  0  0  0  0  0  # atno 27195 bound_to 4278
  222.0546   51.7837   33.6468 LP  0  0  0  0  0  0  0  0  0  0  0  0  # atno 27196 bound_to 4278
  220.7607   51.4543   30.7332 LP  0  0  0  0  0  0  0  0  0  0  0  0  # atno 27197 bound_to 4317
  221.4175   52.7426   27.5537 LP  0  0  0  0  0  0  0  0  0  0  0  0  # atno 27198 bound_to 4322
  220.5583   51.3543   27.5242 LP  0  0  0  0  0  0  0  0  0  0  0  0  # atno 27199 bound_to 4322
  221.2047   48.5495   28.5060 LP  0  0  0  0  0  0  0  0  0  0  0  0  # atno 27200 bound_to 6660
  221.9875   47.2355   27.9338 LP  0  0  0  0  0  0  0  0  0  0  0  0  # atno 27201 bound_to 6660
  230.4192   48.7814   32.1268 LP  0  0  0  0  0  0  0  0  0  0  0  0  # atno 27207 bound_to 23650
  231.1623   49.0258   33.6721 LP  0  0  0  0  0  0  0  0  0  0  0  0  # atno 27208 bound_to 23650
  231.9695   47.4319   32.2056 LP  0  0  0  0  0  0  0  0  0  0  0  0  # atno 27209 bound_to 23701
  228.5585   44.8424   33.9339 LP  0  0  0  0  0  0  0  0  0  0  0  0  # atno 27210 bound_to 23704
  229.3283   44.0609   35.2743 LP  0  0  0  0  0  0  0  0  0  0  0  0  # atno 27211 bound_to 23704
  231.8964   45.6148   34.7365 LP  0  0  0  0  0  0  0  0  0  0  0  0  # atno 27212 bound_to 23783
  220.2830   41.6323   29.0827 LP  0  0  0  0  0  0  0  0  0  0  0  0  # atno 27213 bound_to 25712
  218.7860   41.3377   29.9026 LP  0  0  0  0  0  0  0  0  0  0  0  0  # atno 27214 bound_to 25712
  216.8137   49.4858   30.0021 LP  0  0  0  0  0  0  0  0  0  0  0  0  # atno 27215 bound_to 4117
  222.9456   43.2524   21.5294 LP  0  0  0  0  0  0  0  0  0  0  0  0  # atno 27216 bound_to 6885
  223.8651   41.3814   25.3175 LP  0  0  0  0  0  0  0  0  0  0  0  0  # atno 27217 bound_to 6888
  223.9081   40.1238   24.1274 LP  0  0  0  0  0  0  0  0  0  0  0  0  # atno 27218 bound_to 6888
  224.9678   39.2700   36.9398 LP  0  0  0  0  0  0  0  0  0  0  0  0  # atno 27219 bound_to 1308
  225.3155   40.4824   35.7527 LP  0  0  0  0  0  0  0  0  0  0  0  0  # atno 27220 bound_to 1308
  229.1614   40.1613   37.9664 LP  0  0  0  0  0  0  0  0  0  0  0  0  # atno 27221 bound_to 1305
  223.6367   40.1602   39.0383 LP  0  0  0  0  0  0  0  0  0  0  0  0  # atno 27222 bound_to 1527
  220.2712   40.0111   35.4354 LP  0  0  0  0  0  0  0  0  0  0  0  0  # atno 27223 bound_to 1530
  219.4630   38.9646   36.5540 LP  0  0  0  0  0  0  0  0  0  0  0  0  # atno 27224 bound_to 1530
  215.6550   46.6413   31.6292 LP  0  0  0  0  0  0  0  0  0  0  0  0  # atno 27225 bound_to 3782
  216.0545   45.7815   33.0788 LP  0  0  0  0  0  0  0  0  0  0  0  0  # atno 27226 bound_to 3782
  217.0685   51.4707   32.2745 LP  0  0  0  0  0  0  0  0  0  0  0  0  # atno 27227 bound_to 3996
  218.1450   50.4959   33.2183 LP  0  0  0  0  0  0  0  0  0  0  0  0  # atno 27228 bound_to 3996
  216.4379   49.3644   31.9332 LP  0  0  0  0  0  0  0  0  0  0  0  0  # atno 27229 bound_to 4043
  219.5918   37.9128   30.3264 LP  0  0  0  0  0  0  0  0  0  0  0  0  # atno 27230 bound_to 25709
  222.8362   38.2927   36.5202 LP  0  0  0  0  0  0  0  0  0  0  0  0  # atno 27232 bound_to 1609

> <Gold.Score>
     Fitness  S(hb_ext) S(vdw_ext)  S(hb_int)    S(int)      intcor
     35.82       4.47      24.16       0.00      -1.87      -0.79

> <Gold.Goldscore.Fitness>
35.8245

> <Gold.Goldscore.Internal.Vdw>
-2.2717

> <Gold.Goldscore.Internal.Torsion>
-0.3855

> <Gold.Goldscore.External.Vdw>
24.1627

> <Gold.Goldscore.Internal.HBond>
0.0000

> <Gold.Goldscore.External.HBond>
4.4668

> <Gold.Goldscore.Internal.Correction>
-0.7912

> <Gold.Goldscore.Hbonds>
donor molecule, donor type, donor heavy atom, donor atom, acceptor molecule, acceptor atom, score
      P1  H 23708 23757       L1     9  0.44
      P1  H 23711 23761       L1     9  0.30

> <Gold.Goldscore.Internal.Vdw.Weighted>
-2.2717

> <Gold.Goldscore.Internal.Torsion.Weighted>
-0.3855

> <Gold.Goldscore.External.Vdw.Weighted>
33.2236

> <Gold.Goldscore.Internal.HBond.Weighted>
0.0000

> <Gold.Goldscore.External.HBond.Weighted>
4.4668

> <Gold.Goldscore.Internal.Correction.Weighted>
-0.7912

> <Gold.Rescore>
     Score     S(PLP)   S(hbond)     S(cho)   S(metal)  DE(clash)   DE(tors)     intcor
     35.03     -31.85       1.81       0.00       0.00       1.78       0.23       ----

> <Gold.PLP.Fitness>
35.0327

> <Gold.PLP.PLP>
-31.8493

> <Gold.PLP.part.hbond>
-2.5471

> <Gold.PLP.part.metal>
0.0000

> <Gold.PLP.part.buried>
-4.7132

> <Gold.PLP.part.nonpolar>
-28.0034

> <Gold.PLP.part.repulsive>
3.0988

> <Gold.PLP.ligand.clash>
1.7751

> <Gold.PLP.ligand.torsion>
0.2328

> <Gold.PLP.Chemscore.Hbond>
1.8080

> <Gold.PLP.Chemscore.CHOScore>
0.0000

> <Gold.PLP.Chemscore.Metal>
0.0000

> <Gold.Chemscore.Hbonds>
donor molecule, donor type, donor heavy atom, donor atom, acceptor molecule, acceptor atom, score
      P1  H 23708 23757       L1     9  0.39
      P1  H 23711 23761       L1     9  0.31

> <Gold.PLP.Chemscore.Internal.Correction>
   9.000000E+99

