#       Name:                CT1002167954
#       Creating user name   hitesit
#       Creation time:       Sun Apr 16 23:03:05 2023


#       File generated by GOLD software.
#

@<TRIPOS>MOLECULE
CT1002167954|ligand_prepared|mol2|1|dock9
    29    30     1
SMALL
NO_CHARGES


@<TRIPOS>ATOM
      1 C1         223.7431  46.3848  31.9129 C.3            1 RES1               0.0000
      2 C2         223.2017  44.9407  31.9340 C.ar           1 RES1               0.0000
      3 C3         224.7769  46.4385  30.7920 C.2            1 RES1               0.0000
      4 C4         222.5363  47.2896  31.6901 C.2            1 RES1               0.0000
      5 C5         224.4260  46.8153  33.2320 C.3            1 RES1               0.0000
      6 C6         223.4976  44.0884  32.9936 C.ar           1 RES1               0.0000
      7 C7         222.4045  44.4483  30.9041 C.ar           1 RES1               0.0000
      8 N8         224.4306  47.0874  29.6436 N.am           1 RES1               0.0000
      9 O9         225.8648  45.8858  30.8990 O.2            1 RES1               0.0000
     10 N10        222.4731  47.9990  30.5194 N.am           1 RES1               0.0000
     11 O11        221.6314  47.3818  32.5105 O.2            1 RES1               0.0000
     12 C12        224.9693  48.2353  33.2061 C.3            1 RES1               0.0000
     13 C13        223.0116  42.7918  33.0241 C.ar           1 RES1               0.0000
     14 C14        221.9198  43.1512  30.9365 C.ar           1 RES1               0.0000
     15 C15        223.3503  47.9154  29.4727 C.2            1 RES1               0.0000
     16 C16        222.2221  42.3225  31.9960 C.ar           1 RES1               0.0000
     17 O17        223.1967  48.5445  28.4297 O.2            1 RES1               0.0000
     18 H18        223.6998  46.7300  34.0498 H              1 RES1               0.0000
     19 H19        225.2519  46.1251  33.4436 H              1 RES1               0.0000
     20 H20        224.1194  44.4393  33.8105 H              1 RES1               0.0000
     21 H21        222.1547  45.0821  30.0600 H              1 RES1               0.0000
     22 H22        225.0302  46.9437  28.8373 H              1 RES1               0.0000
     23 H23        221.7006  48.6497  30.4190 H              1 RES1               0.0000
     24 H24        225.4378  48.4864  34.1553 H              1 RES1               0.0000
     25 H25        225.7131  48.3494  32.4203 H              1 RES1               0.0000
     26 H26        224.1702  48.9507  33.0228 H              1 RES1               0.0000
     27 H27        223.2536  42.1431  33.8595 H              1 RES1               0.0000
     28 H28        221.2993  42.7859  30.1249 H              1 RES1               0.0000
     29 H29        221.8413  41.3068  32.0203 H              1 RES1               0.0000
@<TRIPOS>BOND
    1    1    2 1     
    2    1    3 1     
    3    1    4 1     
    4    1    5 1     
    5    2    6 ar    
    6    2    7 ar    
    7    3    8 1     
    8    3    9 2     
    9    4   10 1     
   10    4   11 2     
   11    5   12 1     
   12    5   18 1     
   13    5   19 1     
   14    6   13 ar    
   15    6   20 1     
   16    7   14 ar    
   17    7   21 1     
   18    8   15 1     
   19    8   22 1     
   20   10   15 1     
   21   10   23 1     
   22   12   24 1     
   23   12   25 1     
   24   12   26 1     
   25   13   16 ar    
   26   13   27 1     
   27   14   16 ar    
   28   14   28 1     
   29   15   17 2     
   30   16   29 1     
@<TRIPOS>SUBSTRUCTURE
      1 RES1           1
@<TRIPOS>SET
DONOR_HYDROGENS      STATIC     ATOMS    <user>   **** ""
2 22 23
ATOM$RED        STATIC     ATOMS    COLORGROUP SYSTEM
2 22 23
@<TRIPOS>COMMENT
> <Gold.Version>
2022.3.0

> <Gold.Id.Protein>
unknown|4d1n_clean|pdb

> <Gold.Protein.RotatedTorsions>
[ 1580 1535 1534 1533 ] final -100.06 input   60.00 | X-H torsion
[ 4298 4278 4277 4274 ] final  109.31 input   59.99 | X-H torsion
[ 4334 4317 4318 4319 ] final -142.38 input  114.03 | X-H torsion
[ 4338 4322 4321 4318 ] final  -40.78 input   59.99 | X-H torsion
[ 6681 6660 6659 6657 ] final   70.36 input   60.02 | X-H torsion
[ 23749 23701 23702 23703 ] final -159.94 input   59.44 | X-H torsion
[ 23797 23783 23784 23785 ] final  -82.62 input  -92.48 | X-H torsion
[ 4159 4117 4118 4119 ] final  -46.87 input  119.10 | X-H torsion
[ 6905 6885 6886 6887 ] final  130.84 input  108.16 | X-H torsion
[ 1343 1305 1306 1307 ] final -114.10 input  118.39 | X-H torsion
[ 1570 1527 1528 1529 ] final  -55.30 input   90.05 | X-H torsion
[ 4077 4043 4044 4045 ] final   65.83 input  116.01 | X-H torsion
[ 25737 25709 25710 25711 ] final   50.34 input   60.94 | X-H torsion
[ 1631 1609 1610 1611 ] final -131.98 input  112.52 | X-H torsion
[ 1281 1253 1251 1248 ] final  148.86 input   60.01 | X-H torsion
[ 23825 23811 23812 23813 ] final   98.27 input  -23.57 | X-H torsion
[ 27193 4046 4045 4044 ] final -106.36 input   -0.00 | X-H torsion
[ 27207 23650 23649 23648 ] final  -30.38 input    0.00 | X-H torsion
[ 27210 23704 23703 23702 ] final   37.94 input    0.00 | X-H torsion
[ 27213 25712 25711 25710 ] final   -2.29 input    0.00 | X-H torsion
[ 27217 6888 6887 6886 ] final  -74.93 input    0.00 | X-H torsion
[ 27219 1308 1307 1306 ] final -143.96 input    0.00 | X-H torsion
[ 27223 1530 1529 1528 ] final  130.02 input   -0.00 | X-H torsion
[ 27225 3782 3781 3780 ] final -112.75 input    0.00 | X-H torsion
[ 27227 3996 3995 3994 ] final  -56.74 input   -0.00 | X-H torsion

> <Gold.Protein.ActiveResidues>
 THR320  LEU321  LYS324  SER325  GLU365  PHE366  ASP368  GLN369  TYR370  SER372 
 SER373  TYR408  HIS412  ARG415  ASN416  TRP426  GLU670  CYS673  ARG674  GLY675 
 GLY676  TYR703  LEU705  THR706  PRO707 

> <Gold.Protein.RotatedAtoms>
  229.7707   44.3086   38.9975 H   0  0  0  0  0  0  0  0  0  0  0  0  # atno 1281 bound_to 1253
  228.9054   41.7234   38.2086 H   0  0  0  0  0  0  0  0  0  0  0  0  # atno 1343 bound_to 1305
  223.1712   38.9317   38.8757 H   0  0  0  0  0  0  0  0  0  0  0  0  # atno 1570 bound_to 1527
  226.1546   44.9603   37.5327 H   0  0  0  0  0  0  0  0  0  0  0  0  # atno 1580 bound_to 1535
  225.5154   45.1042   36.0103 H   0  0  0  0  0  0  0  0  0  0  0  0  # atno 1581 bound_to 1535
  225.3910   46.3615   37.0830 H   0  0  0  0  0  0  0  0  0  0  0  0  # atno 1582 bound_to 1535
  222.2918   38.7565   36.2590 H   0  0  0  0  0  0  0  0  0  0  0  0  # atno 1631 bound_to 1609
  216.1479   48.2375   31.4582 H   0  0  0  0  0  0  0  0  0  0  0  0  # atno 4077 bound_to 4043
  218.2800   49.5288   30.2934 H   0  0  0  0  0  0  0  0  0  0  0  0  # atno 4159 bound_to 4117
  221.0694   51.7772   35.2060 H   0  0  0  0  0  0  0  0  0  0  0  0  # atno 4298 bound_to 4278
  221.3542   51.7657   31.4330 H   0  0  0  0  0  0  0  0  0  0  0  0  # atno 4334 bound_to 4317
  220.7209   52.2774   27.8449 H   0  0  0  0  0  0  0  0  0  0  0  0  # atno 4338 bound_to 4322
  221.5350   46.8147   27.9680 H   0  0  0  0  0  0  0  0  0  0  0  0  # atno 6681 bound_to 6660
  222.2252   44.6102   22.2550 H   0  0  0  0  0  0  0  0  0  0  0  0  # atno 6905 bound_to 6885
  231.9698   47.3014   31.9220 H   0  0  0  0  0  0  0  0  0  0  0  0  # atno 23749 bound_to 23701
  232.5185   44.8982   34.1600 H   0  0  0  0  0  0  0  0  0  0  0  0  # atno 23797 bound_to 23783
  231.1049   42.2589   34.6278 H   0  0  0  0  0  0  0  0  0  0  0  0  # atno 23825 bound_to 23811
  219.8613   39.1583   30.4561 H   0  0  0  0  0  0  0  0  0  0  0  0  # atno 25737 bound_to 25709
  219.7101   50.9117   30.5905 LP  0  0  0  0  0  0  0  0  0  0  0  0  # atno 27193 bound_to 4046
  220.5269   49.4431   30.1708 LP  0  0  0  0  0  0  0  0  0  0  0  0  # atno 27194 bound_to 4046
  221.9033   52.3154   33.9168 LP  0  0  0  0  0  0  0  0  0  0  0  0  # atno 27195 bound_to 4278
  221.6996   50.7121   34.1499 LP  0  0  0  0  0  0  0  0  0  0  0  0  # atno 27196 bound_to 4278
  220.4351   52.8034   30.3669 LP  0  0  0  0  0  0  0  0  0  0  0  0  # atno 27197 bound_to 4317
  221.1205   50.9854   26.9409 LP  0  0  0  0  0  0  0  0  0  0  0  0  # atno 27198 bound_to 4322
  222.0455   52.3306   26.9021 LP  0  0  0  0  0  0  0  0  0  0  0  0  # atno 27199 bound_to 4322
  220.3128   47.7030   28.5730 LP  0  0  0  0  0  0  0  0  0  0  0  0  # atno 27200 bound_to 6660
  221.7660   48.3928   28.2918 LP  0  0  0  0  0  0  0  0  0  0  0  0  # atno 27201 bound_to 6660
  231.3810   49.4703   33.1831 LP  0  0  0  0  0  0  0  0  0  0  0  0  # atno 27207 bound_to 23650
  230.2005   48.3369   32.6157 LP  0  0  0  0  0  0  0  0  0  0  0  0  # atno 27208 bound_to 23650
  232.7060   46.0823   32.9338 LP  0  0  0  0  0  0  0  0  0  0  0  0  # atno 27209 bound_to 23701
  228.6885   44.3413   33.7839 LP  0  0  0  0  0  0  0  0  0  0  0  0  # atno 27210 bound_to 23704
  229.1983   44.5620   35.4244 LP  0  0  0  0  0  0  0  0  0  0  0  0  # atno 27211 bound_to 23704
  230.7807   45.0317   34.2981 LP  0  0  0  0  0  0  0  0  0  0  0  0  # atno 27212 bound_to 23783
  219.5248   40.8338   30.0636 LP  0  0  0  0  0  0  0  0  0  0  0  0  # atno 27213 bound_to 25712
  219.5441   42.1361   28.9218 LP  0  0  0  0  0  0  0  0  0  0  0  0  # atno 27214 bound_to 25712
  216.9413   48.8122   29.4300 LP  0  0  0  0  0  0  0  0  0  0  0  0  # atno 27215 bound_to 4117
  223.2872   43.4232   21.5483 LP  0  0  0  0  0  0  0  0  0  0  0  0  # atno 27216 bound_to 6885
  224.5595   40.8671   24.1895 LP  0  0  0  0  0  0  0  0  0  0  0  0  # atno 27217 bound_to 6888
  223.2136   40.6381   25.2554 LP  0  0  0  0  0  0  0  0  0  0  0  0  # atno 27218 bound_to 6888
  224.9608   39.3283   36.9921 LP  0  0  0  0  0  0  0  0  0  0  0  0  # atno 27219 bound_to 1308
  225.3225   40.4241   35.7004 LP  0  0  0  0  0  0  0  0  0  0  0  0  # atno 27220 bound_to 1308
  229.5976   40.3080   37.4430 LP  0  0  0  0  0  0  0  0  0  0  0  0  # atno 27221 bound_to 1305
  224.1952   40.0902   38.0614 LP  0  0  0  0  0  0  0  0  0  0  0  0  # atno 27222 bound_to 1527
  220.1559   39.1293   35.2612 LP  0  0  0  0  0  0  0  0  0  0  0  0  # atno 27223 bound_to 1530
  219.5783   39.8464   36.7282 LP  0  0  0  0  0  0  0  0  0  0  0  0  # atno 27224 bound_to 1530
  215.4315   46.8910   32.0238 LP  0  0  0  0  0  0  0  0  0  0  0  0  # atno 27225 bound_to 3782
  216.2780   45.5318   32.6842 LP  0  0  0  0  0  0  0  0  0  0  0  0  # atno 27226 bound_to 3782
  217.0627   51.4741   32.2849 LP  0  0  0  0  0  0  0  0  0  0  0  0  # atno 27227 bound_to 3996
  218.1509   50.4924   33.2079 LP  0  0  0  0  0  0  0  0  0  0  0  0  # atno 27228 bound_to 3996
  216.7420   48.8504   32.9776 LP  0  0  0  0  0  0  0  0  0  0  0  0  # atno 27229 bound_to 4043
  220.4492   37.7969   29.5311 LP  0  0  0  0  0  0  0  0  0  0  0  0  # atno 27230 bound_to 25709
  221.9548   37.8678   37.7263 LP  0  0  0  0  0  0  0  0  0  0  0  0  # atno 27232 bound_to 1609

> <Gold.Score>
     Fitness  S(hb_ext) S(vdw_ext)  S(hb_int)    S(int)      intcor
     37.35       5.30      24.39       0.00      -1.49      -0.76

> <Gold.Goldscore.Fitness>
37.3466

> <Gold.Goldscore.Internal.Vdw>
-1.8845

> <Gold.Goldscore.Internal.Torsion>
-0.3672

> <Gold.Goldscore.External.Vdw>
24.3932

> <Gold.Goldscore.Internal.HBond>
0.0000

> <Gold.Goldscore.External.HBond>
5.2992

> <Gold.Goldscore.Internal.Correction>
-0.7585

> <Gold.Goldscore.Hbonds>
donor molecule, donor type, donor heavy atom, donor atom, acceptor molecule, acceptor atom, score
      P1  H 23708 23757       L1     9  0.61
      L1  H    10    23       P1  4046  0.83

> <Gold.Goldscore.Internal.Vdw.Weighted>
-1.8845

> <Gold.Goldscore.Internal.Torsion.Weighted>
-0.3672

> <Gold.Goldscore.External.Vdw.Weighted>
33.5406

> <Gold.Goldscore.Internal.HBond.Weighted>
0.0000

> <Gold.Goldscore.External.HBond.Weighted>
5.2992

> <Gold.Goldscore.Internal.Correction.Weighted>
-0.7585

> <Gold.Rescore>
     Score     S(PLP)   S(hbond)     S(cho)   S(metal)  DE(clash)   DE(tors)     intcor
     25.77     -23.62       0.93       0.00       0.00       0.00       0.32       ----

> <Gold.PLP.Fitness>
25.7704

> <Gold.PLP.PLP>
-23.6218

> <Gold.PLP.part.hbond>
-2.3535

> <Gold.PLP.part.metal>
0.0000

> <Gold.PLP.part.buried>
0.2988

> <Gold.PLP.part.nonpolar>
-23.3692

> <Gold.PLP.part.repulsive>
0.3929

> <Gold.PLP.ligand.clash>
0.0000

> <Gold.PLP.ligand.torsion>
0.3177

> <Gold.PLP.Chemscore.Hbond>
0.9280

> <Gold.PLP.Chemscore.CHOScore>
0.0000

> <Gold.PLP.Chemscore.Metal>
0.0000

> <Gold.Chemscore.Hbonds>
donor molecule, donor type, donor heavy atom, donor atom, acceptor molecule, acceptor atom, score
      L1  H    10    23       P1  4046  0.28
      P1  H 23708 23757       L1     9  0.94

> <Gold.PLP.Chemscore.Internal.Correction>
   9.000000E+99

