#       Name:                CT1002167954
#       Creating user name   hitesit
#       Creation time:       Sun Apr 16 23:03:06 2023


#       File generated by GOLD software.
#

@<TRIPOS>MOLECULE
CT1002167954|ligand_prepared|mol2|1|dock10
    29    30     1
SMALL
NO_CHARGES


@<TRIPOS>ATOM
      1 C1         222.6986  46.4552  32.6173 C.3            1 RES1               0.0000
      2 C2         221.5990  45.5772  33.2489 C.ar           1 RES1               0.0000
      3 C3         223.2828  47.2920  33.7517 C.2            1 RES1               0.0000
      4 C4         223.6945  45.4956  31.9754 C.2            1 RES1               0.0000
      5 C5         222.1801  47.4115  31.5182 C.3            1 RES1               0.0000
      6 C6         220.4320  46.1506  33.7448 C.ar           1 RES1               0.0000
      7 C7         221.7359  44.1946  33.3400 C.ar           1 RES1               0.0000
      8 N8         224.5210  46.9543  34.2129 N.am           1 RES1               0.0000
      9 O9         222.6503  48.2093  34.2603 O.2            1 RES1               0.0000
     10 N10        224.9606  45.4407  32.4967 N.am           1 RES1               0.0000
     11 O11        223.3894  44.7745  31.0335 O.2            1 RES1               0.0000
     12 C12        223.2841  48.1446  30.7726 C.3            1 RES1               0.0000
     13 C13        219.4366  45.3700  34.3087 C.ar           1 RES1               0.0000
     14 C14        220.7393  43.4158  33.9046 C.ar           1 RES1               0.0000
     15 C15        225.4100  46.1042  33.6058 C.2            1 RES1               0.0000
     16 C16        219.5893  44.0022  34.3886 C.ar           1 RES1               0.0000
     17 O17        226.5472  45.9615  34.0458 O.2            1 RES1               0.0000
     18 H18        221.5904  46.8331  30.7963 H              1 RES1               0.0000
     19 H19        221.5140  48.1512  31.9792 H              1 RES1               0.0000
     20 H20        220.2951  47.2256  33.6928 H              1 RES1               0.0000
     21 H21        222.6326  43.7116  32.9668 H              1 RES1               0.0000
     22 H22        224.8130  47.3726  35.0905 H              1 RES1               0.0000
     23 H23        225.6302  44.8507  32.0130 H              1 RES1               0.0000
     24 H24        222.8660  48.8019  30.0131 H              1 RES1               0.0000
     25 H25        223.8753  48.7500  31.4565 H              1 RES1               0.0000
     26 H26        223.9512  47.4397  30.2807 H              1 RES1               0.0000
     27 H27        218.5340  45.8365  34.6894 H              1 RES1               0.0000
     28 H28        220.8640  42.3397  33.9660 H              1 RES1               0.0000
     29 H29        218.8092  43.3909  34.8301 H              1 RES1               0.0000
@<TRIPOS>BOND
    1    1    2 1     
    2    1    3 1     
    3    1    4 1     
    4    1    5 1     
    5    2    6 ar    
    6    2    7 ar    
    7    3    8 1     
    8    3    9 2     
    9    4   10 1     
   10    4   11 2     
   11    5   12 1     
   12    5   18 1     
   13    5   19 1     
   14    6   13 ar    
   15    6   20 1     
   16    7   14 ar    
   17    7   21 1     
   18    8   15 1     
   19    8   22 1     
   20   10   15 1     
   21   10   23 1     
   22   12   24 1     
   23   12   25 1     
   24   12   26 1     
   25   13   16 ar    
   26   13   27 1     
   27   14   16 ar    
   28   14   28 1     
   29   15   17 2     
   30   16   29 1     
@<TRIPOS>SUBSTRUCTURE
      1 RES1           1
@<TRIPOS>SET
DONOR_HYDROGENS      STATIC     ATOMS    <user>   **** ""
2 22 23
ATOM$RED        STATIC     ATOMS    COLORGROUP SYSTEM
2 22 23
@<TRIPOS>COMMENT
> <Gold.Version>
2022.3.0

> <Gold.Id.Protein>
unknown|4d1n_clean|pdb

> <Gold.Protein.RotatedTorsions>
[ 1580 1535 1534 1533 ] final  126.32 input   60.00 | X-H torsion
[ 4298 4278 4277 4274 ] final -135.86 input   59.99 | X-H torsion
[ 4334 4317 4318 4319 ] final  148.32 input  114.03 | X-H torsion
[ 4338 4322 4321 4318 ] final  103.84 input   59.99 | X-H torsion
[ 6681 6660 6659 6657 ] final   52.84 input   60.02 | X-H torsion
[ 23749 23701 23702 23703 ] final -136.70 input   59.44 | X-H torsion
[ 23797 23783 23784 23785 ] final  157.62 input  -92.48 | X-H torsion
[ 4159 4117 4118 4119 ] final   50.13 input  119.10 | X-H torsion
[ 6905 6885 6886 6887 ] final  178.06 input  108.16 | X-H torsion
[ 1343 1305 1306 1307 ] final  -21.31 input  118.39 | X-H torsion
[ 1570 1527 1528 1529 ] final   93.20 input   90.05 | X-H torsion
[ 4077 4043 4044 4045 ] final -104.97 input  116.01 | X-H torsion
[ 25737 25709 25710 25711 ] final   73.63 input   60.94 | X-H torsion
[ 1631 1609 1610 1611 ] final -140.14 input  112.52 | X-H torsion
[ 1281 1253 1251 1248 ] final   20.08 input   60.01 | X-H torsion
[ 23825 23811 23812 23813 ] final  120.43 input  -23.57 | X-H torsion
[ 27193 4046 4045 4044 ] final   97.75 input   -0.00 | X-H torsion
[ 27207 23650 23649 23648 ] final  -86.33 input    0.00 | X-H torsion
[ 27210 23704 23703 23702 ] final -144.26 input    0.00 | X-H torsion
[ 27213 25712 25711 25710 ] final -146.67 input    0.00 | X-H torsion
[ 27217 6888 6887 6886 ] final   40.70 input    0.00 | X-H torsion
[ 27219 1308 1307 1306 ] final   60.66 input    0.00 | X-H torsion
[ 27223 1530 1529 1528 ] final   76.45 input   -0.00 | X-H torsion
[ 27225 3782 3781 3780 ] final  169.07 input    0.00 | X-H torsion
[ 27227 3996 3995 3994 ] final  111.62 input   -0.00 | X-H torsion

> <Gold.Protein.ActiveResidues>
 THR320  LEU321  LYS324  SER325  GLU365  PHE366  ASP368  GLN369  TYR370  SER372 
 SER373  TYR408  HIS412  ARG415  ASN416  TRP426  GLU670  CYS673  ARG674  GLY675 
 GLY676  TYR703  LEU705  THR706  PRO707 

> <Gold.Protein.RotatedAtoms>
  229.7069   42.8832   38.0940 H   0  0  0  0  0  0  0  0  0  0  0  0  # atno 1281 bound_to 1253
  228.8056   40.4425   38.3458 H   0  0  0  0  0  0  0  0  0  0  0  0  # atno 1343 bound_to 1305
  224.1963   39.7173   37.7678 H   0  0  0  0  0  0  0  0  0  0  0  0  # atno 1570 bound_to 1527
  225.3127   46.3562   36.8704 H   0  0  0  0  0  0  0  0  0  0  0  0  # atno 1580 bound_to 1535
  226.1243   45.1459   37.6600 H   0  0  0  0  0  0  0  0  0  0  0  0  # atno 1581 bound_to 1535
  225.6240   44.9239   36.0955 H   0  0  0  0  0  0  0  0  0  0  0  0  # atno 1582 bound_to 1535
  222.4032   38.6975   36.2596 H   0  0  0  0  0  0  0  0  0  0  0  0  # atno 1631 bound_to 1609
  216.7177   48.9806   32.9285 H   0  0  0  0  0  0  0  0  0  0  0  0  # atno 4077 bound_to 4043
  216.9701   49.6792   30.1964 H   0  0  0  0  0  0  0  0  0  0  0  0  # atno 4159 bound_to 4117
  221.6530   50.6946   34.2188 H   0  0  0  0  0  0  0  0  0  0  0  0  # atno 4298 bound_to 4278
  220.7481   51.4385   30.6966 H   0  0  0  0  0  0  0  0  0  0  0  0  # atno 4334 bound_to 4317
  222.0702   51.9749   26.7199 H   0  0  0  0  0  0  0  0  0  0  0  0  # atno 4338 bound_to 4322
  221.2687   46.7337   28.0309 H   0  0  0  0  0  0  0  0  0  0  0  0  # atno 6681 bound_to 6660
  222.8946   44.8121   22.2308 H   0  0  0  0  0  0  0  0  0  0  0  0  # atno 6905 bound_to 6885
  231.9637   47.4594   32.2404 H   0  0  0  0  0  0  0  0  0  0  0  0  # atno 23749 bound_to 23701
  231.2851   45.5926   34.7466 H   0  0  0  0  0  0  0  0  0  0  0  0  # atno 23797 bound_to 23783
  231.2905   42.1947   34.9031 H   0  0  0  0  0  0  0  0  0  0  0  0  # atno 23825 bound_to 23811
  219.6460   38.8967   30.5682 H   0  0  0  0  0  0  0  0  0  0  0  0  # atno 25737 bound_to 25709
  220.4424   49.5780   29.8461 LP  0  0  0  0  0  0  0  0  0  0  0  0  # atno 27193 bound_to 4046
  219.7945   50.7768   30.9153 LP  0  0  0  0  0  0  0  0  0  0  0  0  # atno 27194 bound_to 4046
  221.0802   51.8612   35.1977 LP  0  0  0  0  0  0  0  0  0  0  0  0  # atno 27195 bound_to 4278
  221.9348   52.2572   33.8637 LP  0  0  0  0  0  0  0  0  0  0  0  0  # atno 27196 bound_to 4278
  221.0243   53.1215   31.0829 LP  0  0  0  0  0  0  0  0  0  0  0  0  # atno 27197 bound_to 4317
  220.9900   52.5672   27.7822 LP  0  0  0  0  0  0  0  0  0  0  0  0  # atno 27198 bound_to 4322
  220.8164   51.0535   27.1945 LP  0  0  0  0  0  0  0  0  0  0  0  0  # atno 27199 bound_to 4322
  220.3940   47.9752   28.6157 LP  0  0  0  0  0  0  0  0  0  0  0  0  # atno 27200 bound_to 6660
  221.9530   48.2021   28.1859 LP  0  0  0  0  0  0  0  0  0  0  0  0  # atno 27201 bound_to 6660
  231.0897   48.9266   33.7119 LP  0  0  0  0  0  0  0  0  0  0  0  0  # atno 27207 bound_to 23650
  230.4918   48.8806   32.0869 LP  0  0  0  0  0  0  0  0  0  0  0  0  # atno 27208 bound_to 23650
  232.7120   45.9276   32.6219 LP  0  0  0  0  0  0  0  0  0  0  0  0  # atno 27209 bound_to 23701
  229.2098   44.5308   35.4244 LP  0  0  0  0  0  0  0  0  0  0  0  0  # atno 27210 bound_to 23704
  228.6770   44.3725   33.7839 LP  0  0  0  0  0  0  0  0  0  0  0  0  # atno 27211 bound_to 23704
  231.9821   44.3553   33.7267 LP  0  0  0  0  0  0  0  0  0  0  0  0  # atno 27212 bound_to 23783
  219.0571   42.1091   29.1286 LP  0  0  0  0  0  0  0  0  0  0  0  0  # atno 27213 bound_to 25712
  220.0119   40.8608   29.8568 LP  0  0  0  0  0  0  0  0  0  0  0  0  # atno 27214 bound_to 25712
  218.2237   48.6649   29.5250 LP  0  0  0  0  0  0  0  0  0  0  0  0  # atno 27215 bound_to 4117
  222.6211   43.2223   21.5723 LP  0  0  0  0  0  0  0  0  0  0  0  0  # atno 27216 bound_to 6885
  223.7987   41.3455   25.3475 LP  0  0  0  0  0  0  0  0  0  0  0  0  # atno 27217 bound_to 6888
  223.9744   40.1597   24.0974 LP  0  0  0  0  0  0  0  0  0  0  0  0  # atno 27218 bound_to 6888
  225.3348   40.0961   35.5312 LP  0  0  0  0  0  0  0  0  0  0  0  0  # atno 27219 bound_to 1308
  224.9485   39.6562   37.1613 LP  0  0  0  0  0  0  0  0  0  0  0  0  # atno 27220 bound_to 1308
  229.6938   41.5419   37.3109 LP  0  0  0  0  0  0  0  0  0  0  0  0  # atno 27221 bound_to 1305
  223.1938   39.3228   39.1437 LP  0  0  0  0  0  0  0  0  0  0  0  0  # atno 27222 bound_to 1527
  220.2853   39.8934   35.3539 LP  0  0  0  0  0  0  0  0  0  0  0  0  # atno 27223 bound_to 1530
  219.4489   39.0823   36.6355 LP  0  0  0  0  0  0  0  0  0  0  0  0  # atno 27224 bound_to 1530
  216.0218   46.1305   31.5081 LP  0  0  0  0  0  0  0  0  0  0  0  0  # atno 27225 bound_to 3782
  215.6877   46.2923   33.1999 LP  0  0  0  0  0  0  0  0  0  0  0  0  # atno 27226 bound_to 3782
  218.0584   50.5506   33.3454 LP  0  0  0  0  0  0  0  0  0  0  0  0  # atno 27227 bound_to 3996
  217.1551   51.4160   32.1474 LP  0  0  0  0  0  0  0  0  0  0  0  0  # atno 27228 bound_to 3996
  216.1763   48.1126   31.5176 LP  0  0  0  0  0  0  0  0  0  0  0  0  # atno 27229 bound_to 4043
  220.6595   38.0524   29.4216 LP  0  0  0  0  0  0  0  0  0  0  0  0  # atno 27230 bound_to 25709
  221.8464   37.9252   37.7258 LP  0  0  0  0  0  0  0  0  0  0  0  0  # atno 27232 bound_to 1609

> <Gold.Score>
     Fitness  S(hb_ext) S(vdw_ext)  S(hb_int)    S(int)      intcor
     28.30       4.30      18.99       0.00      -2.11      -0.76

> <Gold.Goldscore.Fitness>
28.3034

> <Gold.Goldscore.Internal.Vdw>
-2.4125

> <Gold.Goldscore.Internal.Torsion>
-0.4531

> <Gold.Goldscore.External.Vdw>
18.9912

> <Gold.Goldscore.Internal.HBond>
0.0000

> <Gold.Goldscore.External.HBond>
4.2976

> <Gold.Goldscore.Internal.Correction>
-0.7585

> <Gold.Goldscore.Hbonds>
donor molecule, donor type, donor heavy atom, donor atom, acceptor molecule, acceptor atom, score
      P1  H  4278  4298       L1     9  0.57
      P1  H 23711 23761       L1    11  0.53

> <Gold.Goldscore.Internal.Vdw.Weighted>
-2.4125

> <Gold.Goldscore.Internal.Torsion.Weighted>
-0.4531

> <Gold.Goldscore.External.Vdw.Weighted>
26.1129

> <Gold.Goldscore.Internal.HBond.Weighted>
0.0000

> <Gold.Goldscore.External.HBond.Weighted>
4.2976

> <Gold.Goldscore.Internal.Correction.Weighted>
-0.7585

> <Gold.Rescore>
     Score     S(PLP)   S(hbond)     S(cho)   S(metal)  DE(clash)   DE(tors)     intcor
     30.30     -29.40       0.81       0.00       0.00       1.45       0.04       ----

> <Gold.PLP.Fitness>
30.3028

> <Gold.PLP.PLP>
-29.4004

> <Gold.PLP.part.hbond>
-1.3561

> <Gold.PLP.part.metal>
0.0000

> <Gold.PLP.part.buried>
-5.4196

> <Gold.PLP.part.nonpolar>
-24.1784

> <Gold.PLP.part.repulsive>
0.3511

> <Gold.PLP.ligand.clash>
1.4490

> <Gold.PLP.ligand.torsion>
0.0430

> <Gold.PLP.Chemscore.Hbond>
0.8125

> <Gold.PLP.Chemscore.CHOScore>
0.0000

> <Gold.PLP.Chemscore.Metal>
0.0000

> <Gold.Chemscore.Hbonds>
donor molecule, donor type, donor heavy atom, donor atom, acceptor molecule, acceptor atom, score
      P1  H  1535  1582       L1    17  0.02
      P1  H 23711 23761       L1    11  0.60

> <Gold.PLP.Chemscore.Internal.Correction>
   9.000000E+99

