#       Name:                CT1002167954
#       Creating user name   hitesit
#       Creation time:       Sun Apr 16 23:03:04 2023


#       File generated by GOLD software.
#

@<TRIPOS>MOLECULE
CT1002167954|ligand_prepared|mol2|1|dock7
    29    30     1
SMALL
NO_CHARGES


@<TRIPOS>ATOM
      1 C1         223.7157  46.2336  32.0697 C.3            1 RES1               0.0000
      2 C2         223.1201  44.8133  32.1501 C.ar           1 RES1               0.0000
      3 C3         224.8811  46.1546  31.0879 C.2            1 RES1               0.0000
      4 C4         222.5818  47.1468  31.6171 C.2            1 RES1               0.0000
      5 C5         224.2472  46.7657  33.4210 C.3            1 RES1               0.0000
      6 C6         223.5121  43.9364  33.1572 C.ar           1 RES1               0.0000
      7 C7         222.1774  44.3672  31.2277 C.ar           1 RES1               0.0000
      8 N8         224.7043  46.7035  29.8520 N.am           1 RES1               0.0000
      9 O9         225.9251  45.5845  31.3798 O.2            1 RES1               0.0000
     10 N10        222.6909  47.7460  30.3896 N.am           1 RES1               0.0000
     11 O11        221.5870  47.3397  32.3053 O.2            1 RES1               0.0000
     12 C12        224.5025  48.2647  33.4321 C.3            1 RES1               0.0000
     13 C13        222.9788  42.6609  33.2410 C.ar           1 RES1               0.0000
     14 C14        221.6455  43.0911  31.3131 C.ar           1 RES1               0.0000
     15 C15        223.6864  47.5415  29.4735 C.2            1 RES1               0.0000
     16 C16        222.0450  42.2376  32.3194 C.ar           1 RES1               0.0000
     17 O17        223.6871  48.0751  28.3678 O.2            1 RES1               0.0000
     18 H18        223.5194  46.5257  34.2059 H              1 RES1               0.0000
     19 H19        225.1831  46.2464  33.6615 H              1 RES1               0.0000
     20 H20        224.2476  44.2511  33.8900 H              1 RES1               0.0000
     21 H21        221.8491  45.0211  30.4269 H              1 RES1               0.0000
     22 H22        225.3926  46.4691  29.1437 H              1 RES1               0.0000
     23 H23        221.9626  48.4057  30.1353 H              1 RES1               0.0000
     24 H24        224.8741  48.5855  34.4030 H              1 RES1               0.0000
     25 H25        225.2408  48.5358  32.6802 H              1 RES1               0.0000
     26 H26        223.5869  48.8134  33.2214 H              1 RES1               0.0000
     27 H27        223.2975  41.9925  34.0340 H              1 RES1               0.0000
     28 H28        220.9113  42.7620  30.5852 H              1 RES1               0.0000
     29 H29        221.6271  41.2385  32.3854 H              1 RES1               0.0000
@<TRIPOS>BOND
    1    1    2 1     
    2    1    3 1     
    3    1    4 1     
    4    1    5 1     
    5    2    6 ar    
    6    2    7 ar    
    7    3    8 1     
    8    3    9 2     
    9    4   10 1     
   10    4   11 2     
   11    5   12 1     
   12    5   18 1     
   13    5   19 1     
   14    6   13 ar    
   15    6   20 1     
   16    7   14 ar    
   17    7   21 1     
   18    8   15 1     
   19    8   22 1     
   20   10   15 1     
   21   10   23 1     
   22   12   24 1     
   23   12   25 1     
   24   12   26 1     
   25   13   16 ar    
   26   13   27 1     
   27   14   16 ar    
   28   14   28 1     
   29   15   17 2     
   30   16   29 1     
@<TRIPOS>SUBSTRUCTURE
      1 RES1           1
@<TRIPOS>SET
DONOR_HYDROGENS      STATIC     ATOMS    <user>   **** ""
2 22 23
ATOM$RED        STATIC     ATOMS    COLORGROUP SYSTEM
2 22 23
@<TRIPOS>COMMENT
> <Gold.Version>
2022.3.0

> <Gold.Id.Protein>
unknown|4d1n_clean|pdb

> <Gold.Protein.RotatedTorsions>
[ 1580 1535 1534 1533 ] final -152.57 input   60.00 | X-H torsion
[ 4298 4278 4277 4274 ] final   58.10 input   59.99 | X-H torsion
[ 4334 4317 4318 4319 ] final  160.84 input  114.03 | X-H torsion
[ 4338 4322 4321 4318 ] final  -90.49 input   59.99 | X-H torsion
[ 6681 6660 6659 6657 ] final  135.17 input   60.02 | X-H torsion
[ 23749 23701 23702 23703 ] final -142.83 input   59.44 | X-H torsion
[ 23797 23783 23784 23785 ] final  109.96 input  -92.48 | X-H torsion
[ 4159 4117 4118 4119 ] final   11.12 input  119.10 | X-H torsion
[ 6905 6885 6886 6887 ] final   72.12 input  108.16 | X-H torsion
[ 1343 1305 1306 1307 ] final  -20.46 input  118.39 | X-H torsion
[ 1570 1527 1528 1529 ] final  143.93 input   90.05 | X-H torsion
[ 4077 4043 4044 4045 ] final  -59.38 input  116.01 | X-H torsion
[ 25737 25709 25710 25711 ] final  156.62 input   60.94 | X-H torsion
[ 1631 1609 1610 1611 ] final   -6.89 input  112.52 | X-H torsion
[ 1281 1253 1251 1248 ] final -166.34 input   60.01 | X-H torsion
[ 23825 23811 23812 23813 ] final    0.26 input  -23.57 | X-H torsion
[ 27193 4046 4045 4044 ] final -139.48 input   -0.00 | X-H torsion
[ 27207 23650 23649 23648 ] final  -97.30 input    0.00 | X-H torsion
[ 27210 23704 23703 23702 ] final   85.55 input    0.00 | X-H torsion
[ 27213 25712 25711 25710 ] final   23.62 input    0.00 | X-H torsion
[ 27217 6888 6887 6886 ] final -129.64 input    0.00 | X-H torsion
[ 27219 1308 1307 1306 ] final  -15.58 input    0.00 | X-H torsion
[ 27223 1530 1529 1528 ] final   54.61 input   -0.00 | X-H torsion
[ 27225 3782 3781 3780 ] final   96.27 input    0.00 | X-H torsion
[ 27227 3996 3995 3994 ] final   57.26 input   -0.00 | X-H torsion

> <Gold.Protein.ActiveResidues>
 THR320  LEU321  LYS324  SER325  GLU365  PHE366  ASP368  GLN369  TYR370  SER372 
 SER373  TYR408  HIS412  ARG415  ASN416  TRP426  GLU670  CYS673  ARG674  GLY675 
 GLY676  TYR703  LEU705  THR706  PRO707 

> <Gold.Protein.RotatedAtoms>
  230.4842   44.3274   38.9923 H   0  0  0  0  0  0  0  0  0  0  0  0  # atno 1281 bound_to 1253
  228.8110   40.4323   38.3394 H   0  0  0  0  0  0  0  0  0  0  0  0  # atno 1343 bound_to 1305
  224.1296   40.2637   38.2878 H   0  0  0  0  0  0  0  0  0  0  0  0  # atno 1570 bound_to 1527
  225.9147   45.7379   37.7671 H   0  0  0  0  0  0  0  0  0  0  0  0  # atno 1580 bound_to 1535
  225.9322   44.6078   36.5549 H   0  0  0  0  0  0  0  0  0  0  0  0  # atno 1581 bound_to 1535
  225.2141   46.0804   36.3041 H   0  0  0  0  0  0  0  0  0  0  0  0  # atno 1582 bound_to 1535
  221.3674   38.3544   37.4649 H   0  0  0  0  0  0  0  0  0  0  0  0  # atno 1631 bound_to 1609
  216.5801   49.3891   32.4058 H   0  0  0  0  0  0  0  0  0  0  0  0  # atno 4077 bound_to 4043
  217.4913   49.8337   30.4242 H   0  0  0  0  0  0  0  0  0  0  0  0  # atno 4159 bound_to 4117
  221.3418   52.4279   34.8104 H   0  0  0  0  0  0  0  0  0  0  0  0  # atno 4298 bound_to 4278
  220.8703   51.4067   30.8432 H   0  0  0  0  0  0  0  0  0  0  0  0  # atno 4334 bound_to 4317
  220.5196   51.5437   27.6453 H   0  0  0  0  0  0  0  0  0  0  0  0  # atno 4338 bound_to 4322
  222.0995   47.6437   27.9989 H   0  0  0  0  0  0  0  0  0  0  0  0  # atno 6681 bound_to 6660
  221.8990   43.8708   21.9716 H   0  0  0  0  0  0  0  0  0  0  0  0  # atno 6905 bound_to 6885
  231.9593   47.4292   32.1512 H   0  0  0  0  0  0  0  0  0  0  0  0  # atno 23749 bound_to 23701
  230.8003   45.1758   34.4253 H   0  0  0  0  0  0  0  0  0  0  0  0  # atno 23797 bound_to 23783
  231.7007   42.6144   33.4951 H   0  0  0  0  0  0  0  0  0  0  0  0  # atno 23825 bound_to 23811
  219.6585   37.7782   30.2197 H   0  0  0  0  0  0  0  0  0  0  0  0  # atno 25737 bound_to 25709
  219.7111   50.8872   30.0974 LP  0  0  0  0  0  0  0  0  0  0  0  0  # atno 27193 bound_to 4046
  220.5259   49.4677   30.6640 LP  0  0  0  0  0  0  0  0  0  0  0  0  # atno 27194 bound_to 4046
  222.0583   51.5692   33.6288 LP  0  0  0  0  0  0  0  0  0  0  0  0  # atno 27195 bound_to 4278
  221.2703   50.8027   34.8364 LP  0  0  0  0  0  0  0  0  0  0  0  0  # atno 27196 bound_to 4278
  220.9056   53.1524   30.9404 LP  0  0  0  0  0  0  0  0  0  0  0  0  # atno 27197 bound_to 4317
  221.7677   51.3181   26.6267 LP  0  0  0  0  0  0  0  0  0  0  0  0  # atno 27198 bound_to 4322
  221.6012   52.7371   27.4174 LP  0  0  0  0  0  0  0  0  0  0  0  0  # atno 27199 bound_to 4322
  220.7062   46.8362   28.2340 LP  0  0  0  0  0  0  0  0  0  0  0  0  # atno 27200 bound_to 6660
  220.8042   48.4247   28.5998 LP  0  0  0  0  0  0  0  0  0  0  0  0  # atno 27201 bound_to 6660
  230.9871   48.7989   33.7364 LP  0  0  0  0  0  0  0  0  0  0  0  0  # atno 27207 bound_to 23650
  230.5944   49.0083   32.0625 LP  0  0  0  0  0  0  0  0  0  0  0  0  # atno 27208 bound_to 23650
  232.7163   45.9571   32.7093 LP  0  0  0  0  0  0  0  0  0  0  0  0  # atno 27209 bound_to 23701
  228.9956   43.7782   34.0621 LP  0  0  0  0  0  0  0  0  0  0  0  0  # atno 27210 bound_to 23704
  228.8912   45.1251   35.1462 LP  0  0  0  0  0  0  0  0  0  0  0  0  # atno 27211 bound_to 23704
  232.4544   44.7613   34.0397 LP  0  0  0  0  0  0  0  0  0  0  0  0  # atno 27212 bound_to 23783
  219.8898   40.8281   29.9312 LP  0  0  0  0  0  0  0  0  0  0  0  0  # atno 27213 bound_to 25712
  219.1791   42.1418   29.0542 LP  0  0  0  0  0  0  0  0  0  0  0  0  # atno 27214 bound_to 25712
  217.7135   48.5137   29.3020 LP  0  0  0  0  0  0  0  0  0  0  0  0  # atno 27215 bound_to 4117
  223.6117   44.1588   21.8302 LP  0  0  0  0  0  0  0  0  0  0  0  0  # atno 27216 bound_to 6885
  224.0914   40.2372   24.0573 LP  0  0  0  0  0  0  0  0  0  0  0  0  # atno 27217 bound_to 6888
  223.6818   41.2680   25.3876 LP  0  0  0  0  0  0  0  0  0  0  0  0  # atno 27218 bound_to 6888
  225.1997   40.7398   36.3742 LP  0  0  0  0  0  0  0  0  0  0  0  0  # atno 27219 bound_to 1308
  225.0836   39.0126   36.3183 LP  0  0  0  0  0  0  0  0  0  0  0  0  # atno 27220 bound_to 1308
  229.6885   41.5518   37.3170 LP  0  0  0  0  0  0  0  0  0  0  0  0  # atno 27221 bound_to 1305
  223.2590   38.7891   38.6357 LP  0  0  0  0  0  0  0  0  0  0  0  0  # atno 27222 bound_to 1527
  220.2366   40.1415   35.5632 LP  0  0  0  0  0  0  0  0  0  0  0  0  # atno 27223 bound_to 1530
  219.4977   38.8341   36.4262 LP  0  0  0  0  0  0  0  0  0  0  0  0  # atno 27224 bound_to 1530
  216.3506   45.5081   32.2571 LP  0  0  0  0  0  0  0  0  0  0  0  0  # atno 27225 bound_to 3782
  215.3589   46.9148   32.4509 LP  0  0  0  0  0  0  0  0  0  0  0  0  # atno 27226 bound_to 3782
  217.4599   51.0013   33.5997 LP  0  0  0  0  0  0  0  0  0  0  0  0  # atno 27227 bound_to 3996
  217.7536   50.9652   31.8931 LP  0  0  0  0  0  0  0  0  0  0  0  0  # atno 27228 bound_to 3996
  216.3129   47.7070   32.0366 LP  0  0  0  0  0  0  0  0  0  0  0  0  # atno 27229 bound_to 4043
  220.6473   39.1448   29.7619 LP  0  0  0  0  0  0  0  0  0  0  0  0  # atno 27230 bound_to 25709
  222.8552   38.2594   36.5519 LP  0  0  0  0  0  0  0  0  0  0  0  0  # atno 27232 bound_to 1609

> <Gold.Score>
     Fitness  S(hb_ext) S(vdw_ext)  S(hb_int)    S(int)      intcor
     34.99       3.97      23.02       0.00      -0.63      -0.76

> <Gold.Goldscore.Fitness>
34.9911

> <Gold.Goldscore.Internal.Vdw>
-0.6936

> <Gold.Goldscore.Internal.Torsion>
-0.6959

> <Gold.Goldscore.External.Vdw>
23.0188

> <Gold.Goldscore.Internal.HBond>
0.0000

> <Gold.Goldscore.External.HBond>
3.9713

> <Gold.Goldscore.Internal.Correction>
-0.7585

> <Gold.Goldscore.Hbonds>
donor molecule, donor type, donor heavy atom, donor atom, acceptor molecule, acceptor atom, score
      P1  H  6660  6681       L1    17  0.45
      P1  H 23708 23757       L1     9  0.39
      L1  H    10    23       P1  4046  0.36

> <Gold.Goldscore.Internal.Vdw.Weighted>
-0.6936

> <Gold.Goldscore.Internal.Torsion.Weighted>
-0.6959

> <Gold.Goldscore.External.Vdw.Weighted>
31.6508

> <Gold.Goldscore.Internal.HBond.Weighted>
0.0000

> <Gold.Goldscore.External.HBond.Weighted>
3.9713

> <Gold.Goldscore.Internal.Correction.Weighted>
-0.7585

> <Gold.Rescore>
     Score     S(PLP)   S(hbond)     S(cho)   S(metal)  DE(clash)   DE(tors)     intcor
     27.42     -24.34       1.75       0.00       0.00       0.00       1.08       ----

> <Gold.PLP.Fitness>
27.4223

> <Gold.PLP.PLP>
-24.3438

> <Gold.PLP.part.hbond>
-2.6936

> <Gold.PLP.part.metal>
0.0000

> <Gold.PLP.part.buried>
-0.0362

> <Gold.PLP.part.nonpolar>
-23.6127

> <Gold.PLP.part.repulsive>
0.6997

> <Gold.PLP.ligand.clash>
0.0000

> <Gold.PLP.ligand.torsion>
1.0804

> <Gold.PLP.Chemscore.Hbond>
1.7464

> <Gold.PLP.Chemscore.CHOScore>
0.0000

> <Gold.PLP.Chemscore.Metal>
0.0000

> <Gold.Chemscore.Hbonds>
donor molecule, donor type, donor heavy atom, donor atom, acceptor molecule, acceptor atom, score
      P1  H  6660  6681       L1    17  0.75
      P1  H 23708 23757       L1     9  0.93

> <Gold.PLP.Chemscore.Internal.Correction>
   9.000000E+99

