#       Name:                CT1002167954
#       Creating user name   hitesit
#       Creation time:       Sun Apr 16 23:03:01 2023


#       File generated by GOLD software.
#

@<TRIPOS>MOLECULE
CT1002167954|ligand_prepared|mol2|1|dock2
    29    30     1
SMALL
NO_CHARGES


@<TRIPOS>ATOM
      1 C1         222.7223  45.2289  32.4336 C.3            1 RES1               0.0000
      2 C2         221.5754  44.2024  32.5323 C.ar           1 RES1               0.0000
      3 C3         222.6832  45.7794  31.0110 C.2            1 RES1               0.0000
      4 C4         222.4546  46.2728  33.5122 C.2            1 RES1               0.0000
      5 C5         224.1236  44.6266  32.6889 C.3            1 RES1               0.0000
      6 C6         221.6849  42.9566  31.9218 C.ar           1 RES1               0.0000
      7 C7         220.4050  44.4853  33.2315 C.ar           1 RES1               0.0000
      8 N8         222.2091  47.0462  30.8365 N.am           1 RES1               0.0000
      9 O9         223.0261  45.0982  30.0526 O.2            1 RES1               0.0000
     10 N10        222.1618  47.5499  33.1111 N.am           1 RES1               0.0000
     11 O11        222.4783  45.9970  34.7053 O.2            1 RES1               0.0000
     12 C12        225.2377  45.6608  32.7276 C.3            1 RES1               0.0000
     13 C13        220.6627  42.0262  32.0095 C.ar           1 RES1               0.0000
     14 C14        219.3839  43.5535  33.3177 C.ar           1 RES1               0.0000
     15 C15        221.9967  47.9768  31.8216 C.2            1 RES1               0.0000
     16 C16        219.5118  42.3237  32.7078 C.ar           1 RES1               0.0000
     17 O17        221.6797  49.1295  31.5424 O.2            1 RES1               0.0000
     18 H18        224.1079  44.0886  33.6447 H              1 RES1               0.0000
     19 H19        224.3446  43.8990  31.8981 H              1 RES1               0.0000
     20 H20        222.5821  42.7056  31.3659 H              1 RES1               0.0000
     21 H21        220.2820  45.4468  33.7184 H              1 RES1               0.0000
     22 H22        221.9923  47.3275  29.8856 H              1 RES1               0.0000
     23 H23        222.0574  48.2471  33.8415 H              1 RES1               0.0000
     24 H24        226.1992  45.1853  32.9095 H              1 RES1               0.0000
     25 H25        225.2985  46.1978  31.7833 H              1 RES1               0.0000
     26 H26        225.0631  46.3862  33.5195 H              1 RES1               0.0000
     27 H27        220.7677  41.0603  31.5265 H              1 RES1               0.0000
     28 H28        218.4797  43.7922  33.8678 H              1 RES1               0.0000
     29 H29        218.7114  41.5945  32.7766 H              1 RES1               0.0000
@<TRIPOS>BOND
    1    1    2 1     
    2    1    3 1     
    3    1    4 1     
    4    1    5 1     
    5    2    6 ar    
    6    2    7 ar    
    7    3    8 1     
    8    3    9 2     
    9    4   10 1     
   10    4   11 2     
   11    5   12 1     
   12    5   18 1     
   13    5   19 1     
   14    6   13 ar    
   15    6   20 1     
   16    7   14 ar    
   17    7   21 1     
   18    8   15 1     
   19    8   22 1     
   20   10   15 1     
   21   10   23 1     
   22   12   24 1     
   23   12   25 1     
   24   12   26 1     
   25   13   16 ar    
   26   13   27 1     
   27   14   16 ar    
   28   14   28 1     
   29   15   17 2     
   30   16   29 1     
@<TRIPOS>SUBSTRUCTURE
      1 RES1           1
@<TRIPOS>SET
DONOR_HYDROGENS      STATIC     ATOMS    <user>   **** ""
2 22 23
ATOM$RED        STATIC     ATOMS    COLORGROUP SYSTEM
2 22 23
@<TRIPOS>COMMENT
> <Gold.Version>
2022.3.0

> <Gold.Id.Protein>
unknown|4d1n_clean|pdb

> <Gold.Protein.RotatedTorsions>
[ 1580 1535 1534 1533 ] final   -8.16 input   60.00 | X-H torsion
[ 4298 4278 4277 4274 ] final -172.33 input   59.99 | X-H torsion
[ 4334 4317 4318 4319 ] final -177.86 input  114.03 | X-H torsion
[ 4338 4322 4321 4318 ] final   23.54 input   59.99 | X-H torsion
[ 6681 6660 6659 6657 ] final  166.38 input   60.02 | X-H torsion
[ 23749 23701 23702 23703 ] final   69.23 input   59.44 | X-H torsion
[ 23797 23783 23784 23785 ] final  172.99 input  -92.48 | X-H torsion
[ 4159 4117 4118 4119 ] final  -13.88 input  119.10 | X-H torsion
[ 6905 6885 6886 6887 ] final   82.82 input  108.16 | X-H torsion
[ 1343 1305 1306 1307 ] final  -76.46 input  118.39 | X-H torsion
[ 1570 1527 1528 1529 ] final -117.43 input   90.05 | X-H torsion
[ 4077 4043 4044 4045 ] final  -91.84 input  116.01 | X-H torsion
[ 25737 25709 25710 25711 ] final  155.70 input   60.94 | X-H torsion
[ 1631 1609 1610 1611 ] final  142.60 input  112.52 | X-H torsion
[ 1281 1253 1251 1248 ] final  154.71 input   60.01 | X-H torsion
[ 23825 23811 23812 23813 ] final   51.81 input  -23.57 | X-H torsion
[ 27193 4046 4045 4044 ] final   35.66 input   -0.00 | X-H torsion
[ 27207 23650 23649 23648 ] final -116.38 input    0.00 | X-H torsion
[ 27210 23704 23703 23702 ] final  152.06 input    0.00 | X-H torsion
[ 27213 25712 25711 25710 ] final -137.54 input    0.00 | X-H torsion
[ 27217 6888 6887 6886 ] final   59.42 input    0.00 | X-H torsion
[ 27219 1308 1307 1306 ] final   -2.21 input    0.00 | X-H torsion
[ 27223 1530 1529 1528 ] final   35.07 input   -0.00 | X-H torsion
[ 27225 3782 3781 3780 ] final  -22.13 input    0.00 | X-H torsion
[ 27227 3996 3995 3994 ] final   27.81 input   -0.00 | X-H torsion

> <Gold.Protein.ActiveResidues>
 THR320  LEU321  LYS324  SER325  GLU365  PHE366  ASP368  GLN369  TYR370  SER372 
 SER373  TYR408  HIS412  ARG415  ASN416  TRP426  GLU670  CYS673  ARG674  GLY675 
 GLY676  TYR703  LEU705  THR706  PRO707 

> <Gold.Protein.RotatedAtoms>
  229.8603   44.3379   39.0140 H   0  0  0  0  0  0  0  0  0  0  0  0  # atno 1281 bound_to 1253
  228.6962   41.2524   38.4652 H   0  0  0  0  0  0  0  0  0  0  0  0  # atno 1343 bound_to 1305
  223.3276   39.7556   39.2345 H   0  0  0  0  0  0  0  0  0  0  0  0  # atno 1570 bound_to 1527
  225.7432   44.7670   36.2342 H   0  0  0  0  0  0  0  0  0  0  0  0  # atno 1580 bound_to 1535
  225.2523   46.2959   36.6446 H   0  0  0  0  0  0  0  0  0  0  0  0  # atno 1581 bound_to 1535
  226.0655   45.3632   37.7472 H   0  0  0  0  0  0  0  0  0  0  0  0  # atno 1582 bound_to 1535
  222.9273   37.9568   36.8916 H   0  0  0  0  0  0  0  0  0  0  0  0  # atno 1631 bound_to 1609
  216.6934   49.1406   32.8112 H   0  0  0  0  0  0  0  0  0  0  0  0  # atno 4077 bound_to 4043
  217.8686   49.7753   30.4388 H   0  0  0  0  0  0  0  0  0  0  0  0  # atno 4159 bound_to 4117
  221.3428   50.7374   34.7136 H   0  0  0  0  0  0  0  0  0  0  0  0  # atno 4298 bound_to 4278
  221.0774   51.4493   31.0935 H   0  0  0  0  0  0  0  0  0  0  0  0  # atno 4334 bound_to 4317
  221.5238   52.7382   27.4778 H   0  0  0  0  0  0  0  0  0  0  0  0  # atno 4338 bound_to 4322
  221.9991   48.1146   28.1477 H   0  0  0  0  0  0  0  0  0  0  0  0  # atno 6681 bound_to 6660
  221.8953   44.0184   22.0402 H   0  0  0  0  0  0  0  0  0  0  0  0  # atno 6905 bound_to 6885
  232.6539   45.8840   32.2363 H   0  0  0  0  0  0  0  0  0  0  0  0  # atno 23749 bound_to 23701
  231.5130   45.6458   34.7834 H   0  0  0  0  0  0  0  0  0  0  0  0  # atno 23797 bound_to 23783
  231.1162   42.4457   33.9594 H   0  0  0  0  0  0  0  0  0  0  0  0  # atno 23825 bound_to 23811
  219.6513   37.7866   30.2286 H   0  0  0  0  0  0  0  0  0  0  0  0  # atno 25737 bound_to 25709
  220.5140   49.4919   30.7322 LP  0  0  0  0  0  0  0  0  0  0  0  0  # atno 27193 bound_to 4046
  219.7229   50.8630   30.0292 LP  0  0  0  0  0  0  0  0  0  0  0  0  # atno 27194 bound_to 4046
  221.2693   52.3489   34.9249 LP  0  0  0  0  0  0  0  0  0  0  0  0  # atno 27195 bound_to 4278
  222.0582   51.7263   33.6378 LP  0  0  0  0  0  0  0  0  0  0  0  0  # atno 27196 bound_to 4278
  220.7042   53.1111   30.6969 LP  0  0  0  0  0  0  0  0  0  0  0  0  # atno 27197 bound_to 4317
  220.5264   51.4587   27.5967 LP  0  0  0  0  0  0  0  0  0  0  0  0  # atno 27198 bound_to 4322
  221.8305   51.3928   26.6162 LP  0  0  0  0  0  0  0  0  0  0  0  0  # atno 27199 bound_to 4322
  221.1681   46.7180   28.0603 LP  0  0  0  0  0  0  0  0  0  0  0  0  # atno 27200 bound_to 6660
  220.4434   48.0687   28.6236 LP  0  0  0  0  0  0  0  0  0  0  0  0  # atno 27201 bound_to 6660
  230.7940   48.5887   33.7062 LP  0  0  0  0  0  0  0  0  0  0  0  0  # atno 27207 bound_to 23650
  230.7875   49.2185   32.0927 LP  0  0  0  0  0  0  0  0  0  0  0  0  # atno 27208 bound_to 23650
  232.0359   47.4708   32.6260 LP  0  0  0  0  0  0  0  0  0  0  0  0  # atno 27209 bound_to 23701
  229.3244   43.7565   34.9529 LP  0  0  0  0  0  0  0  0  0  0  0  0  # atno 27210 bound_to 23704
  228.5624   45.1468   34.2554 LP  0  0  0  0  0  0  0  0  0  0  0  0  # atno 27211 bound_to 23704
  231.7601   44.3034   33.6908 LP  0  0  0  0  0  0  0  0  0  0  0  0  # atno 27212 bound_to 23783
  218.9548   42.0620   29.2081 LP  0  0  0  0  0  0  0  0  0  0  0  0  # atno 27213 bound_to 25712
  220.1141   40.9079   29.7773 LP  0  0  0  0  0  0  0  0  0  0  0  0  # atno 27214 bound_to 25712
  217.3440   48.5709   29.2877 LP  0  0  0  0  0  0  0  0  0  0  0  0  # atno 27215 bound_to 4117
  223.6154   44.0120   21.7619 LP  0  0  0  0  0  0  0  0  0  0  0  0  # atno 27216 bound_to 6885
  223.5773   41.1821   25.4080 LP  0  0  0  0  0  0  0  0  0  0  0  0  # atno 27217 bound_to 6888
  224.1958   40.3231   24.0369 LP  0  0  0  0  0  0  0  0  0  0  0  0  # atno 27218 bound_to 6888
  225.2409   40.7199   36.1778 LP  0  0  0  0  0  0  0  0  0  0  0  0  # atno 27219 bound_to 1308
  225.0424   39.0325   36.5147 LP  0  0  0  0  0  0  0  0  0  0  0  0  # atno 27220 bound_to 1308
  229.7992   40.7617   37.1958 LP  0  0  0  0  0  0  0  0  0  0  0  0  # atno 27221 bound_to 1305
  224.0425   39.2854   37.7109 LP  0  0  0  0  0  0  0  0  0  0  0  0  # atno 27222 bound_to 1527
  220.1477   40.2846   35.8039 LP  0  0  0  0  0  0  0  0  0  0  0  0  # atno 27223 bound_to 1530
  219.5866   38.6911   36.1855 LP  0  0  0  0  0  0  0  0  0  0  0  0  # atno 27224 bound_to 1530
  215.6000   46.4290   33.1526 LP  0  0  0  0  0  0  0  0  0  0  0  0  # atno 27225 bound_to 3782
  216.1095   45.9938   31.5554 LP  0  0  0  0  0  0  0  0  0  0  0  0  # atno 27226 bound_to 3782
  217.1539   51.2671   33.4279 LP  0  0  0  0  0  0  0  0  0  0  0  0  # atno 27227 bound_to 3996
  218.0596   50.6994   32.0650 LP  0  0  0  0  0  0  0  0  0  0  0  0  # atno 27228 bound_to 3996
  216.2004   47.9538   31.6341 LP  0  0  0  0  0  0  0  0  0  0  0  0  # atno 27229 bound_to 4043
  220.6543   39.1366   29.7532 LP  0  0  0  0  0  0  0  0  0  0  0  0  # atno 27230 bound_to 25709
  221.3359   38.6466   37.1103 LP  0  0  0  0  0  0  0  0  0  0  0  0  # atno 27232 bound_to 1609

> <Gold.Score>
     Fitness  S(hb_ext) S(vdw_ext)  S(hb_int)    S(int)      intcor
     40.68       6.89      25.56       0.00      -1.36      -0.78

> <Gold.Goldscore.Fitness>
40.6752

> <Gold.Goldscore.Internal.Vdw>
-1.7242

> <Gold.Goldscore.Internal.Torsion>
-0.4164

> <Gold.Goldscore.External.Vdw>
25.5579

> <Gold.Goldscore.Internal.HBond>
0.0000

> <Gold.Goldscore.External.HBond>
6.8918

> <Gold.Goldscore.Internal.Correction>
-0.7819

> <Gold.Goldscore.Hbonds>
donor molecule, donor type, donor heavy atom, donor atom, acceptor molecule, acceptor atom, score
      P1  H  4317  4334       L1    17  0.17
      P1  H 23711 23761       L1     9  0.99
      L1  H     8    22       P1  6660  0.32

> <Gold.Goldscore.Internal.Vdw.Weighted>
-1.7242

> <Gold.Goldscore.Internal.Torsion.Weighted>
-0.4164

> <Gold.Goldscore.External.Vdw.Weighted>
35.1421

> <Gold.Goldscore.Internal.HBond.Weighted>
0.0000

> <Gold.Goldscore.External.HBond.Weighted>
6.8918

> <Gold.Goldscore.Internal.Correction.Weighted>
-0.7819

> <Gold.Rescore>
     Score     S(PLP)   S(hbond)     S(cho)   S(metal)  DE(clash)   DE(tors)     intcor
     33.50     -31.73       1.17       0.00       0.00       0.22       0.77       ----

> <Gold.PLP.Fitness>
33.4961

> <Gold.PLP.PLP>
-31.7267

> <Gold.PLP.part.hbond>
-2.4664

> <Gold.PLP.part.metal>
0.0000

> <Gold.PLP.part.buried>
-6.6567

> <Gold.PLP.part.nonpolar>
-28.0997

> <Gold.PLP.part.repulsive>
4.3285

> <Gold.PLP.ligand.clash>
0.2184

> <Gold.PLP.ligand.torsion>
0.7682

> <Gold.PLP.Chemscore.Hbond>
1.1747

> <Gold.PLP.Chemscore.CHOScore>
0.0000

> <Gold.PLP.Chemscore.Metal>
0.0000

> <Gold.Chemscore.Hbonds>
donor molecule, donor type, donor heavy atom, donor atom, acceptor molecule, acceptor atom, score
      P1  H  4317  4334       L1    17  0.14
      P1  H 23711 23761       L1     9  0.70

> <Gold.PLP.Chemscore.Internal.Correction>
   9.000000E+99

