#       Name:                CT1002167954
#       Creating user name   hitesit
#       Creation time:       Sun Apr 16 23:03:05 2023


#       File generated by GOLD software.
#

@<TRIPOS>MOLECULE
CT1002167954|ligand_prepared|mol2|1|dock8
    29    30     1
SMALL
NO_CHARGES


@<TRIPOS>ATOM
      1 C1         222.6257  43.6678  31.6864 C.3            1 RES1               0.0000
      2 C2         221.2064  43.6968  32.2892 C.ar           1 RES1               0.0000
      3 C3         222.4482  43.6912  30.1711 C.2            1 RES1               0.0000
      4 C4         223.3521  44.8857  32.2465 C.2            1 RES1               0.0000
      5 C5         223.4402  42.4093  32.0661 C.3            1 RES1               0.0000
      6 C6         220.6980  44.8652  32.8489 C.ar           1 RES1               0.0000
      7 C7         220.3941  42.5660  32.2906 C.ar           1 RES1               0.0000
      8 N8         222.7399  44.8527  29.5186 N.am           1 RES1               0.0000
      9 O9         222.0209  42.7177  29.5627 O.2            1 RES1               0.0000
     10 N10        223.7155  45.8754  31.3711 N.am           1 RES1               0.0000
     11 O11        223.5982  45.0049  33.4404 O.2            1 RES1               0.0000
     12 C12        223.4318  42.0996  33.5548 C.3            1 RES1               0.0000
     13 C13        219.4226  44.9026  33.3877 C.ar           1 RES1               0.0000
     14 C14        219.1190  42.6055  32.8302 C.ar           1 RES1               0.0000
     15 C15        223.4151  45.9282  30.0373 C.2            1 RES1               0.0000
     16 C16        218.6322  43.7731  33.3784 C.ar           1 RES1               0.0000
     17 O17        223.7294  46.8782  29.3261 O.2            1 RES1               0.0000
     18 H18        223.0319  41.5475  31.5239 H              1 RES1               0.0000
     19 H19        224.4784  42.5490  31.7405 H              1 RES1               0.0000
     20 H20        221.3063  45.7633  32.8675 H              1 RES1               0.0000
     21 H21        220.7566  41.6362  31.8657 H              1 RES1               0.0000
     22 H22        222.4271  44.9286  28.5559 H              1 RES1               0.0000
     23 H23        224.2606  46.6439  31.7488 H              1 RES1               0.0000
     24 H24        224.0177  41.2077  33.7666 H              1 RES1               0.0000
     25 H25        223.8546  42.9256  34.1230 H              1 RES1               0.0000
     26 H26        222.4167  41.9300  33.9078 H              1 RES1               0.0000
     27 H27        219.0446  45.8236  33.8192 H              1 RES1               0.0000
     28 H28        218.5007  41.7140  32.8212 H              1 RES1               0.0000
     29 H29        217.6330  43.8028  33.8002 H              1 RES1               0.0000
@<TRIPOS>BOND
    1    1    2 1     
    2    1    3 1     
    3    1    4 1     
    4    1    5 1     
    5    2    6 ar    
    6    2    7 ar    
    7    3    8 1     
    8    3    9 2     
    9    4   10 1     
   10    4   11 2     
   11    5   12 1     
   12    5   18 1     
   13    5   19 1     
   14    6   13 ar    
   15    6   20 1     
   16    7   14 ar    
   17    7   21 1     
   18    8   15 1     
   19    8   22 1     
   20   10   15 1     
   21   10   23 1     
   22   12   24 1     
   23   12   25 1     
   24   12   26 1     
   25   13   16 ar    
   26   13   27 1     
   27   14   16 ar    
   28   14   28 1     
   29   15   17 2     
   30   16   29 1     
@<TRIPOS>SUBSTRUCTURE
      1 RES1           1
@<TRIPOS>SET
DONOR_HYDROGENS      STATIC     ATOMS    <user>   **** ""
2 22 23
ATOM$RED        STATIC     ATOMS    COLORGROUP SYSTEM
2 22 23
@<TRIPOS>COMMENT
> <Gold.Version>
2022.3.0

> <Gold.Id.Protein>
unknown|4d1n_clean|pdb

> <Gold.Protein.RotatedTorsions>
[ 1580 1535 1534 1533 ] final -174.93 input   60.00 | X-H torsion
[ 4298 4278 4277 4274 ] final  -87.33 input   59.99 | X-H torsion
[ 4334 4317 4318 4319 ] final   -6.43 input  114.03 | X-H torsion
[ 4338 4322 4321 4318 ] final  -18.03 input   59.99 | X-H torsion
[ 6681 6660 6659 6657 ] final  126.44 input   60.02 | X-H torsion
[ 23749 23701 23702 23703 ] final  -31.02 input   59.44 | X-H torsion
[ 23797 23783 23784 23785 ] final -169.22 input  -92.48 | X-H torsion
[ 4159 4117 4118 4119 ] final -154.71 input  119.10 | X-H torsion
[ 6905 6885 6886 6887 ] final   -7.61 input  108.16 | X-H torsion
[ 1343 1305 1306 1307 ] final  156.74 input  118.39 | X-H torsion
[ 1570 1527 1528 1529 ] final  -16.89 input   90.05 | X-H torsion
[ 4077 4043 4044 4045 ] final  168.31 input  116.01 | X-H torsion
[ 25737 25709 25710 25711 ] final  -26.91 input   60.94 | X-H torsion
[ 1631 1609 1610 1611 ] final -162.48 input  112.52 | X-H torsion
[ 1281 1253 1251 1248 ] final  -36.59 input   60.01 | X-H torsion
[ 23825 23811 23812 23813 ] final   17.36 input  -23.57 | X-H torsion
[ 27193 4046 4045 4044 ] final   87.73 input   -0.00 | X-H torsion
[ 27207 23650 23649 23648 ] final   66.85 input    0.00 | X-H torsion
[ 27210 23704 23703 23702 ] final  -72.17 input    0.00 | X-H torsion
[ 27213 25712 25711 25710 ] final -134.50 input    0.00 | X-H torsion
[ 27217 6888 6887 6886 ] final   34.91 input    0.00 | X-H torsion
[ 27219 1308 1307 1306 ] final   84.88 input    0.00 | X-H torsion
[ 27223 1530 1529 1528 ] final -150.11 input   -0.00 | X-H torsion
[ 27225 3782 3781 3780 ] final  -25.44 input    0.00 | X-H torsion
[ 27227 3996 3995 3994 ] final  -21.46 input   -0.00 | X-H torsion

> <Gold.Protein.ActiveResidues>
 THR320  LEU321  LYS324  SER325  GLU365  PHE366  ASP368  GLN369  TYR370  SER372 
 SER373  TYR408  HIS412  ARG415  ASN416  TRP426  GLU670  CYS673  ARG674  GLY675 
 GLY676  TYR703  LEU705  THR706  PRO707 

> <Gold.Protein.RotatedAtoms>
  230.5957   42.9001   38.0834 H   0  0  0  0  0  0  0  0  0  0  0  0  # atno 1281 bound_to 1253
  229.7015   41.5383   37.2598 H   0  0  0  0  0  0  0  0  0  0  0  0  # atno 1343 bound_to 1305
  223.3659   38.6994   38.3793 H   0  0  0  0  0  0  0  0  0  0  0  0  # atno 1570 bound_to 1527
  225.7400   46.0416   37.6451 H   0  0  0  0  0  0  0  0  0  0  0  0  # atno 1580 bound_to 1535
  226.0675   44.5978   36.9000 H   0  0  0  0  0  0  0  0  0  0  0  0  # atno 1581 bound_to 1535
  225.2535   45.7866   36.0808 H   0  0  0  0  0  0  0  0  0  0  0  0  # atno 1582 bound_to 1535
  222.6725   38.4993   36.3367 H   0  0  0  0  0  0  0  0  0  0  0  0  # atno 1631 bound_to 1609
  216.5276   47.8175   32.6988 H   0  0  0  0  0  0  0  0  0  0  0  0  # atno 4077 bound_to 4043
  217.9252   48.5242   29.3447 H   0  0  0  0  0  0  0  0  0  0  0  0  # atno 4159 bound_to 4117
  221.9869   51.1712   33.7158 H   0  0  0  0  0  0  0  0  0  0  0  0  # atno 4298 bound_to 4278
  220.7914   53.1663   30.7819 H   0  0  0  0  0  0  0  0  0  0  0  0  # atno 4334 bound_to 4317
  220.9705   52.5433   27.7887 H   0  0  0  0  0  0  0  0  0  0  0  0  # atno 4338 bound_to 4322
  222.0806   47.5054   27.9702 H   0  0  0  0  0  0  0  0  0  0  0  0  # atno 6681 bound_to 6660
  222.7016   43.2246   21.5336 H   0  0  0  0  0  0  0  0  0  0  0  0  # atno 6905 bound_to 6885
  232.5035   46.7085   33.3004 H   0  0  0  0  0  0  0  0  0  0  0  0  # atno 23749 bound_to 23701
  231.7868   45.6463   34.7769 H   0  0  0  0  0  0  0  0  0  0  0  0  # atno 23797 bound_to 23783
  231.4600   42.5721   33.5888 H   0  0  0  0  0  0  0  0  0  0  0  0  # atno 23825 bound_to 23811
  220.6826   39.1291   29.7189 H   0  0  0  0  0  0  0  0  0  0  0  0  # atno 25737 bound_to 25709
  220.4855   49.5075   29.9727 LP  0  0  0  0  0  0  0  0  0  0  0  0  # atno 27193 bound_to 4046
  219.7515   50.8474   30.7887 LP  0  0  0  0  0  0  0  0  0  0  0  0  # atno 27194 bound_to 4046
  221.1204   51.0947   35.0907 LP  0  0  0  0  0  0  0  0  0  0  0  0  # atno 27195 bound_to 4278
  221.5582   52.5435   34.4775 LP  0  0  0  0  0  0  0  0  0  0  0  0  # atno 27196 bound_to 4278
  220.9823   51.4417   31.0000 LP  0  0  0  0  0  0  0  0  0  0  0  0  # atno 27197 bound_to 4317
  220.8370   51.0429   27.1745 LP  0  0  0  0  0  0  0  0  0  0  0  0  # atno 27198 bound_to 4322
  222.0776   52.0050   26.7252 LP  0  0  0  0  0  0  0  0  0  0  0  0  # atno 27199 bound_to 4322
  220.5979   46.9139   28.2871 LP  0  0  0  0  0  0  0  0  0  0  0  0  # atno 27200 bound_to 6660
  220.9315   48.4862   28.5755 LP  0  0  0  0  0  0  0  0  0  0  0  0  # atno 27201 bound_to 6660
  230.7543   49.1848   32.0811 LP  0  0  0  0  0  0  0  0  0  0  0  0  # atno 27207 bound_to 23650
  230.8272   48.6224   33.7177 LP  0  0  0  0  0  0  0  0  0  0  0  0  # atno 27208 bound_to 23650
  232.1832   46.6631   31.5836 LP  0  0  0  0  0  0  0  0  0  0  0  0  # atno 27209 bound_to 23701
  228.7462   45.2511   34.8723 LP  0  0  0  0  0  0  0  0  0  0  0  0  # atno 27210 bound_to 23704
  229.1406   43.6521   34.3359 LP  0  0  0  0  0  0  0  0  0  0  0  0  # atno 27211 bound_to 23704
  231.4934   44.3029   33.6971 LP  0  0  0  0  0  0  0  0  0  0  0  0  # atno 27212 bound_to 23783
  218.9239   42.0430   29.2362 LP  0  0  0  0  0  0  0  0  0  0  0  0  # atno 27213 bound_to 25712
  220.1450   40.9269   29.7491 LP  0  0  0  0  0  0  0  0  0  0  0  0  # atno 27214 bound_to 25712
  217.2886   49.7958   30.3589 LP  0  0  0  0  0  0  0  0  0  0  0  0  # atno 27215 bound_to 4117
  222.8131   44.8017   22.2660 LP  0  0  0  0  0  0  0  0  0  0  0  0  # atno 27216 bound_to 6885
  223.8701   41.3840   25.3150 LP  0  0  0  0  0  0  0  0  0  0  0  0  # atno 27217 bound_to 6888
  223.9030   40.1212   24.1299 LP  0  0  0  0  0  0  0  0  0  0  0  0  # atno 27218 bound_to 6888
  225.3127   39.7340   35.5093 LP  0  0  0  0  0  0  0  0  0  0  0  0  # atno 27219 bound_to 1308
  224.9706   40.0183   37.1832 LP  0  0  0  0  0  0  0  0  0  0  0  0  # atno 27220 bound_to 1308
  228.8307   40.4863   38.3570 LP  0  0  0  0  0  0  0  0  0  0  0  0  # atno 27221 bound_to 1305
  224.0050   40.3172   38.5463 LP  0  0  0  0  0  0  0  0  0  0  0  0  # atno 27222 bound_to 1527
  219.6161   38.6680   36.1167 LP  0  0  0  0  0  0  0  0  0  0  0  0  # atno 27223 bound_to 1530
  220.1182   40.3077   35.8727 LP  0  0  0  0  0  0  0  0  0  0  0  0  # atno 27224 bound_to 1530
  215.5759   46.4680   33.1327 LP  0  0  0  0  0  0  0  0  0  0  0  0  # atno 27225 bound_to 3782
  216.1336   45.9548   31.5753 LP  0  0  0  0  0  0  0  0  0  0  0  0  # atno 27226 bound_to 3782
  216.9298   51.5216   32.7905 LP  0  0  0  0  0  0  0  0  0  0  0  0  # atno 27227 bound_to 3996
  218.2837   50.4449   32.7023 LP  0  0  0  0  0  0  0  0  0  0  0  0  # atno 27228 bound_to 3996
  216.3651   49.2675   31.7457 LP  0  0  0  0  0  0  0  0  0  0  0  0  # atno 27229 bound_to 4043
  219.6471   37.8255   30.2511 LP  0  0  0  0  0  0  0  0  0  0  0  0  # atno 27230 bound_to 25709
  221.5841   38.1183   37.6507 LP  0  0  0  0  0  0  0  0  0  0  0  0  # atno 27232 bound_to 1609

> <Gold.Score>
     Fitness  S(hb_ext) S(vdw_ext)  S(hb_int)    S(int)      intcor
     27.54       1.12      21.87       0.00      -3.66      -0.76

> <Gold.Goldscore.Fitness>
27.5420

> <Gold.Goldscore.Internal.Vdw>
-3.8713

> <Gold.Goldscore.Internal.Torsion>
-0.5468

> <Gold.Goldscore.External.Vdw>
21.8744

> <Gold.Goldscore.Internal.HBond>
0.0000

> <Gold.Goldscore.External.HBond>
1.1243

> <Gold.Goldscore.Internal.Correction>
-0.7585

> <Gold.Goldscore.Hbonds>
donor molecule, donor type, donor heavy atom, donor atom, acceptor molecule, acceptor atom, score
      P1  H  4050  4083       L1     9  0.07
      P1  H  6660  6681       L1    17  0.01
      P1  H  7187  7201       L1     9  0.48

> <Gold.Goldscore.Internal.Vdw.Weighted>
-3.8713

> <Gold.Goldscore.Internal.Torsion.Weighted>
-0.5468

> <Gold.Goldscore.External.Vdw.Weighted>
30.0772

> <Gold.Goldscore.Internal.HBond.Weighted>
0.0000

> <Gold.Goldscore.External.HBond.Weighted>
1.1243

> <Gold.Goldscore.Internal.Correction.Weighted>
-0.7585

> <Gold.Rescore>
     Score     S(PLP)   S(hbond)     S(cho)   S(metal)  DE(clash)   DE(tors)     intcor
     24.18     -23.06       1.20       0.00       0.00       1.62       0.42       ----

> <Gold.PLP.Fitness>
24.1790

> <Gold.PLP.PLP>
-23.0565

> <Gold.PLP.part.hbond>
-2.8660

> <Gold.PLP.part.metal>
0.0000

> <Gold.PLP.part.buried>
-1.0445

> <Gold.PLP.part.nonpolar>
-25.5283

> <Gold.PLP.part.repulsive>
5.1051

> <Gold.PLP.ligand.clash>
1.6220

> <Gold.PLP.ligand.torsion>
0.4209

> <Gold.PLP.Chemscore.Hbond>
1.1954

> <Gold.PLP.Chemscore.CHOScore>
0.0000

> <Gold.PLP.Chemscore.Metal>
0.0000

> <Gold.Chemscore.Hbonds>
donor molecule, donor type, donor heavy atom, donor atom, acceptor molecule, acceptor atom, score
      P1  H  4050  4083       L1     9  0.24
      P1  H  6660  6681       L1    17  0.57
      P1  H  7187  7201       L1     9  0.41

> <Gold.PLP.Chemscore.Internal.Correction>
   9.000000E+99

