#       Name:                CT1002167954
#       Creating user name   hitesit
#       Creation time:       Sun Apr 16 23:03:03 2023


#       File generated by GOLD software.
#

@<TRIPOS>MOLECULE
CT1002167954|ligand_prepared|mol2|1|dock5
    29    30     1
SMALL
NO_CHARGES


@<TRIPOS>ATOM
      1 C1         222.7060  46.2757  32.5529 C.3            1 RES1               0.0000
      2 C2         221.8657  44.9849  32.6327 C.ar           1 RES1               0.0000
      3 C3         224.0538  45.9496  33.1895 C.2            1 RES1               0.0000
      4 C4         222.7882  46.6407  31.0748 C.2            1 RES1               0.0000
      5 C5         222.0838  47.4740  33.3069 C.3            1 RES1               0.0000
      6 C6         220.7709  44.9038  33.4880 C.ar           1 RES1               0.0000
      7 C7         222.1708  43.8700  31.8565 C.ar           1 RES1               0.0000
      8 N8         225.1252  45.8002  32.3590 N.am           1 RES1               0.0000
      9 O9         224.1670  45.7868  34.3982 O.2            1 RES1               0.0000
     10 N10        224.0159  46.5901  30.4682 N.am           1 RES1               0.0000
     11 O11        221.7982  46.9554  30.4259 O.2            1 RES1               0.0000
     12 C12        222.8299  48.7827  33.1004 C.3            1 RES1               0.0000
     13 C13        220.0069  43.7510  33.5626 C.ar           1 RES1               0.0000
     14 C14        221.4056  42.7179  31.9329 C.ar           1 RES1               0.0000
     15 C15        225.1831  46.1567  31.0357 C.2            1 RES1               0.0000
     16 C16        220.3234  42.6575  32.7849 C.ar           1 RES1               0.0000
     17 O17        226.2369  46.0883  30.4096 O.2            1 RES1               0.0000
     18 H18        221.0470  47.6020  32.9722 H              1 RES1               0.0000
     19 H19        222.0638  47.2444  34.3795 H              1 RES1               0.0000
     20 H20        220.5080  45.7534  34.1095 H              1 RES1               0.0000
     21 H21        223.0182  43.8944  31.1799 H              1 RES1               0.0000
     22 H22        225.9607  45.3848  32.7589 H              1 RES1               0.0000
     23 H23        224.0641  46.9048  29.5044 H              1 RES1               0.0000
     24 H24        222.3519  49.5902  33.6510 H              1 RES1               0.0000
     25 H25        223.8582  48.6992  33.4461 H              1 RES1               0.0000
     26 H26        222.8474  49.0547  32.0471 H              1 RES1               0.0000
     27 H27        219.1571  43.7080  34.2358 H              1 RES1               0.0000
     28 H28        221.6587  41.8595  31.3194 H              1 RES1               0.0000
     29 H29        219.7246  41.7546  32.8433 H              1 RES1               0.0000
@<TRIPOS>BOND
    1    1    2 1     
    2    1    3 1     
    3    1    4 1     
    4    1    5 1     
    5    2    6 ar    
    6    2    7 ar    
    7    3    8 1     
    8    3    9 2     
    9    4   10 1     
   10    4   11 2     
   11    5   12 1     
   12    5   18 1     
   13    5   19 1     
   14    6   13 ar    
   15    6   20 1     
   16    7   14 ar    
   17    7   21 1     
   18    8   15 1     
   19    8   22 1     
   20   10   15 1     
   21   10   23 1     
   22   12   24 1     
   23   12   25 1     
   24   12   26 1     
   25   13   16 ar    
   26   13   27 1     
   27   14   16 ar    
   28   14   28 1     
   29   15   17 2     
   30   16   29 1     
@<TRIPOS>SUBSTRUCTURE
      1 RES1           1
@<TRIPOS>SET
DONOR_HYDROGENS      STATIC     ATOMS    <user>   **** ""
2 22 23
ATOM$RED        STATIC     ATOMS    COLORGROUP SYSTEM
2 22 23
@<TRIPOS>COMMENT
> <Gold.Version>
2022.3.0

> <Gold.Id.Protein>
unknown|4d1n_clean|pdb

> <Gold.Protein.RotatedTorsions>
[ 1580 1535 1534 1533 ] final -159.17 input   60.00 | X-H torsion
[ 4298 4278 4277 4274 ] final  144.40 input   59.99 | X-H torsion
[ 4334 4317 4318 4319 ] final  -22.98 input  114.03 | X-H torsion
[ 4338 4322 4321 4318 ] final  143.13 input   59.99 | X-H torsion
[ 6681 6660 6659 6657 ] final  -63.31 input   60.02 | X-H torsion
[ 23749 23701 23702 23703 ] final  -99.29 input   59.44 | X-H torsion
[ 23797 23783 23784 23785 ] final  169.42 input  -92.48 | X-H torsion
[ 4159 4117 4118 4119 ] final  -19.86 input  119.10 | X-H torsion
[ 6905 6885 6886 6887 ] final   13.78 input  108.16 | X-H torsion
[ 1343 1305 1306 1307 ] final  -23.62 input  118.39 | X-H torsion
[ 1570 1527 1528 1529 ] final   13.50 input   90.05 | X-H torsion
[ 4077 4043 4044 4045 ] final   12.42 input  116.01 | X-H torsion
[ 25737 25709 25710 25711 ] final  -16.67 input   60.94 | X-H torsion
[ 1631 1609 1610 1611 ] final   -0.83 input  112.52 | X-H torsion
[ 1281 1253 1251 1248 ] final -124.24 input   60.01 | X-H torsion
[ 23825 23811 23812 23813 ] final -123.75 input  -23.57 | X-H torsion
[ 27193 4046 4045 4044 ] final  -42.93 input   -0.00 | X-H torsion
[ 27207 23650 23649 23648 ] final  -22.54 input    0.00 | X-H torsion
[ 27210 23704 23703 23702 ] final   67.61 input    0.00 | X-H torsion
[ 27213 25712 25711 25710 ] final  -78.85 input    0.00 | X-H torsion
[ 27217 6888 6887 6886 ] final   -3.13 input    0.00 | X-H torsion
[ 27219 1308 1307 1306 ] final  115.92 input    0.00 | X-H torsion
[ 27223 1530 1529 1528 ] final -146.15 input   -0.00 | X-H torsion
[ 27225 3782 3781 3780 ] final   80.18 input    0.00 | X-H torsion
[ 27227 3996 3995 3994 ] final  -44.06 input   -0.00 | X-H torsion

> <Gold.Protein.ActiveResidues>
 THR320  LEU321  LYS324  SER325  GLU365  PHE366  ASP368  GLN369  TYR370  SER372 
 SER373  TYR408  HIS412  ARG415  ASN416  TRP426  GLU670  CYS673  ARG674  GLY675 
 GLY676  TYR703  LEU705  THR706  PRO707 

> <Gold.Protein.RotatedAtoms>
  230.9809   43.9498   38.7407 H   0  0  0  0  0  0  0  0  0  0  0  0  # atno 1281 bound_to 1253
  228.7913   40.4709   38.3625 H   0  0  0  0  0  0  0  0  0  0  0  0  # atno 1343 bound_to 1305
  223.6250   38.7672   38.0012 H   0  0  0  0  0  0  0  0  0  0  0  0  # atno 1570 bound_to 1527
  225.8656   45.8339   37.7446 H   0  0  0  0  0  0  0  0  0  0  0  0  # atno 1580 bound_to 1535
  225.9770   44.5908   36.6540 H   0  0  0  0  0  0  0  0  0  0  0  0  # atno 1581 bound_to 1535
  225.2184   46.0014   36.2274 H   0  0  0  0  0  0  0  0  0  0  0  0  # atno 1582 bound_to 1535
  221.4050   38.2916   37.5234 H   0  0  0  0  0  0  0  0  0  0  0  0  # atno 1631 bound_to 1609
  216.2416   49.0159   31.5126 H   0  0  0  0  0  0  0  0  0  0  0  0  # atno 4077 bound_to 4043
  217.9541   49.7436   30.4258 H   0  0  0  0  0  0  0  0  0  0  0  0  # atno 4159 bound_to 4117
  221.0906   51.2171   35.1409 H   0  0  0  0  0  0  0  0  0  0  0  0  # atno 4298 bound_to 4278
  220.9542   53.1719   30.9782 H   0  0  0  0  0  0  0  0  0  0  0  0  # atno 4334 bound_to 4317
  221.8320   51.4009   26.6224 H   0  0  0  0  0  0  0  0  0  0  0  0  # atno 4338 bound_to 4322
  220.3745   47.9157   28.6049 H   0  0  0  0  0  0  0  0  0  0  0  0  # atno 6681 bound_to 6660
  222.3914   43.2767   21.6118 H   0  0  0  0  0  0  0  0  0  0  0  0  # atno 6905 bound_to 6885
  232.0793   47.4467   32.7945 H   0  0  0  0  0  0  0  0  0  0  0  0  # atno 23749 bound_to 23701
  231.4587   45.6378   34.7783 H   0  0  0  0  0  0  0  0  0  0  0  0  # atno 23797 bound_to 23783
  232.7438   42.3711   34.6209 H   0  0  0  0  0  0  0  0  0  0  0  0  # atno 23825 bound_to 23811
  220.5992   39.2175   29.8195 H   0  0  0  0  0  0  0  0  0  0  0  0  # atno 25737 bound_to 25709
  220.0427   50.3508   31.2258 LP  0  0  0  0  0  0  0  0  0  0  0  0  # atno 27193 bound_to 4046
  220.1942   50.0041   29.5356 LP  0  0  0  0  0  0  0  0  0  0  0  0  # atno 27194 bound_to 4046
  221.6306   52.5397   34.3623 LP  0  0  0  0  0  0  0  0  0  0  0  0  # atno 27195 bound_to 4278
  221.9511   51.0521   33.7700 LP  0  0  0  0  0  0  0  0  0  0  0  0  # atno 27196 bound_to 4278
  220.8239   51.4363   30.8091 LP  0  0  0  0  0  0  0  0  0  0  0  0  # atno 27197 bound_to 4317
  221.5187   52.7461   27.4817 LP  0  0  0  0  0  0  0  0  0  0  0  0  # atno 27198 bound_to 4322
  220.5277   51.4530   27.5931 LP  0  0  0  0  0  0  0  0  0  0  0  0  # atno 27199 bound_to 4322
  221.9174   48.2492   28.2087 LP  0  0  0  0  0  0  0  0  0  0  0  0  # atno 27200 bound_to 6660
  221.3301   46.7379   28.0147 LP  0  0  0  0  0  0  0  0  0  0  0  0  # atno 27201 bound_to 6660
  231.3806   49.5135   33.0729 LP  0  0  0  0  0  0  0  0  0  0  0  0  # atno 27207 bound_to 23650
  230.2009   48.2937   32.7259 LP  0  0  0  0  0  0  0  0  0  0  0  0  # atno 27208 bound_to 23650
  232.5988   45.9400   32.0792 LP  0  0  0  0  0  0  0  0  0  0  0  0  # atno 27209 bound_to 23701
  228.8721   43.9543   33.8987 LP  0  0  0  0  0  0  0  0  0  0  0  0  # atno 27210 bound_to 23704
  229.0147   44.9490   35.3095 LP  0  0  0  0  0  0  0  0  0  0  0  0  # atno 27211 bound_to 23704
  231.8130   44.3113   33.6958 LP  0  0  0  0  0  0  0  0  0  0  0  0  # atno 27212 bound_to 23783
  218.7220   41.4919   29.7924 LP  0  0  0  0  0  0  0  0  0  0  0  0  # atno 27213 bound_to 25712
  220.3470   41.4780   29.1930 LP  0  0  0  0  0  0  0  0  0  0  0  0  # atno 27214 bound_to 25712
  217.2604   48.6019   29.3004 LP  0  0  0  0  0  0  0  0  0  0  0  0  # atno 27215 bound_to 4117
  223.1217   44.7500   22.1881 LP  0  0  0  0  0  0  0  0  0  0  0  0  # atno 27216 bound_to 6885
  224.3108   41.4652   24.9717 LP  0  0  0  0  0  0  0  0  0  0  0  0  # atno 27217 bound_to 6888
  223.4623   40.0400   24.4732 LP  0  0  0  0  0  0  0  0  0  0  0  0  # atno 27218 bound_to 6888
  225.2415   39.3152   35.6941 LP  0  0  0  0  0  0  0  0  0  0  0  0  # atno 27219 bound_to 1308
  225.0418   40.4372   36.9984 LP  0  0  0  0  0  0  0  0  0  0  0  0  # atno 27220 bound_to 1308
  229.7076   41.5145   37.2947 LP  0  0  0  0  0  0  0  0  0  0  0  0  # atno 27221 bound_to 1305
  223.7519   40.2509   38.9156 LP  0  0  0  0  0  0  0  0  0  0  0  0  # atno 27222 bound_to 1527
  219.5933   38.6850   36.1694 LP  0  0  0  0  0  0  0  0  0  0  0  0  # atno 27223 bound_to 1530
  220.1409   40.2907   35.8200 LP  0  0  0  0  0  0  0  0  0  0  0  0  # atno 27224 bound_to 1530
  216.3252   45.4988   32.4981 LP  0  0  0  0  0  0  0  0  0  0  0  0  # atno 27225 bound_to 3782
  215.3843   46.9241   32.2100 LP  0  0  0  0  0  0  0  0  0  0  0  0  # atno 27226 bound_to 3782
  216.9875   51.5145   32.4561 LP  0  0  0  0  0  0  0  0  0  0  0  0  # atno 27227 bound_to 3996
  218.2260   50.4520   33.0367 LP  0  0  0  0  0  0  0  0  0  0  0  0  # atno 27228 bound_to 3996
  216.6491   48.0775   32.9235 LP  0  0  0  0  0  0  0  0  0  0  0  0  # atno 27229 bound_to 4043
  219.7285   37.7391   30.1528 LP  0  0  0  0  0  0  0  0  0  0  0  0  # atno 27230 bound_to 25709
  222.8185   38.3206   36.4949 LP  0  0  0  0  0  0  0  0  0  0  0  0  # atno 27232 bound_to 1609

> <Gold.Score>
     Fitness  S(hb_ext) S(vdw_ext)  S(hb_int)    S(int)      intcor
     30.60       0.83      22.15       0.00      -0.68      -0.76

> <Gold.Goldscore.Fitness>
30.5978

> <Gold.Goldscore.Internal.Vdw>
-1.0132

> <Gold.Goldscore.Internal.Torsion>
-0.4303

> <Gold.Goldscore.External.Vdw>
22.1468

> <Gold.Goldscore.Internal.HBond>
0.0000

> <Gold.Goldscore.External.HBond>
0.8309

> <Gold.Goldscore.Internal.Correction>
-0.7585

> <Gold.Goldscore.Hbonds>
donor molecule, donor type, donor heavy atom, donor atom, acceptor molecule, acceptor atom, score
      P1  H 23708 23757       L1    17  0.14

> <Gold.Goldscore.Internal.Vdw.Weighted>
-1.0132

> <Gold.Goldscore.Internal.Torsion.Weighted>
-0.4303

> <Gold.Goldscore.External.Vdw.Weighted>
30.4518

> <Gold.Goldscore.Internal.HBond.Weighted>
0.0000

> <Gold.Goldscore.External.HBond.Weighted>
0.8309

> <Gold.Goldscore.Internal.Correction.Weighted>
-0.7585

> <Gold.Rescore>
     Score     S(PLP)   S(hbond)     S(cho)   S(metal)  DE(clash)   DE(tors)     intcor
     34.22     -30.42       1.32       0.00       0.00       0.00       0.08       ----

> <Gold.PLP.Fitness>
34.2213

> <Gold.PLP.PLP>
-30.4159

> <Gold.PLP.part.hbond>
-4.8029

> <Gold.PLP.part.metal>
0.0000

> <Gold.PLP.part.buried>
-1.9037

> <Gold.PLP.part.nonpolar>
-24.8271

> <Gold.PLP.part.repulsive>
0.3929

> <Gold.PLP.ligand.clash>
0.0000

> <Gold.PLP.ligand.torsion>
0.0833

> <Gold.PLP.Chemscore.Hbond>
1.3240

> <Gold.PLP.Chemscore.CHOScore>
0.0000

> <Gold.PLP.Chemscore.Metal>
0.0000

> <Gold.Chemscore.Hbonds>
donor molecule, donor type, donor heavy atom, donor atom, acceptor molecule, acceptor atom, score
      P1  H  1535  1582       L1     9  0.60
      P1  H 23708 23757       L1    17  0.83

> <Gold.PLP.Chemscore.Internal.Correction>
   9.000000E+99

