#       Name:                CT1002167954
#       Creating user name   hitesit
#       Creation time:       Sun Apr 16 23:03:02 2023


#       File generated by GOLD software.
#

@<TRIPOS>MOLECULE
CT1002167954|ligand_prepared|mol2|1|dock4
    29    30     1
SMALL
NO_CHARGES


@<TRIPOS>ATOM
      1 C1         223.2993  46.6564  31.0525 C.3            1 RES1               0.0000
      2 C2         222.4493  45.4491  31.4983 C.ar           1 RES1               0.0000
      3 C3         222.5176  47.9031  31.4561 C.2            1 RES1               0.0000
      4 C4         224.6457  46.5123  31.7533 C.2            1 RES1               0.0000
      5 C5         223.5573  46.7103  29.5286 C.3            1 RES1               0.0000
      6 C6         222.3030  44.3408  30.6695 C.ar           1 RES1               0.0000
      7 C7         221.8089  45.4280  32.7344 C.ar           1 RES1               0.0000
      8 N8         222.9744  48.6170  32.5246 N.am           1 RES1               0.0000
      9 O9         221.4936  48.2327  30.8704 O.2            1 RES1               0.0000
     10 N10        224.9884  47.4560  32.6859 N.am           1 RES1               0.0000
     11 O11        225.4056  45.5809  31.5184 O.2            1 RES1               0.0000
     12 C12        224.2554  47.9807  29.0695 C.3            1 RES1               0.0000
     13 C13        221.5463  43.2496  31.0632 C.ar           1 RES1               0.0000
     14 C14        221.0524  44.3359  33.1261 C.ar           1 RES1               0.0000
     15 C15        224.2004  48.4847  33.1255 C.2            1 RES1               0.0000
     16 C16        220.9209  43.2462  32.2918 C.ar           1 RES1               0.0000
     17 O17        224.5576  49.2606  34.0073 O.2            1 RES1               0.0000
     18 H18        224.1715  45.8472  29.2438 H              1 RES1               0.0000
     19 H19        222.5971  46.6261  29.0048 H              1 RES1               0.0000
     20 H20        222.7858  44.3265  29.6980 H              1 RES1               0.0000
     21 H21        221.8974  46.2746  33.4067 H              1 RES1               0.0000
     22 H22        222.3464  49.3135  32.9128 H              1 RES1               0.0000
     23 H23        225.9169  47.3852  33.0898 H              1 RES1               0.0000
     24 H24        224.4121  47.9672  27.9929 H              1 RES1               0.0000
     25 H25        223.6602  48.8580  29.3143 H              1 RES1               0.0000
     26 H26        225.2252  48.0837  29.5519 H              1 RES1               0.0000
     27 H27        221.4448  42.3951  30.4024 H              1 RES1               0.0000
     28 H28        220.5614  44.3378  34.0937 H              1 RES1               0.0000
     29 H29        220.3285  42.3911  32.6002 H              1 RES1               0.0000
@<TRIPOS>BOND
    1    1    2 1     
    2    1    3 1     
    3    1    4 1     
    4    1    5 1     
    5    2    6 ar    
    6    2    7 ar    
    7    3    8 1     
    8    3    9 2     
    9    4   10 1     
   10    4   11 2     
   11    5   12 1     
   12    5   18 1     
   13    5   19 1     
   14    6   13 ar    
   15    6   20 1     
   16    7   14 ar    
   17    7   21 1     
   18    8   15 1     
   19    8   22 1     
   20   10   15 1     
   21   10   23 1     
   22   12   24 1     
   23   12   25 1     
   24   12   26 1     
   25   13   16 ar    
   26   13   27 1     
   27   14   16 ar    
   28   14   28 1     
   29   15   17 2     
   30   16   29 1     
@<TRIPOS>SUBSTRUCTURE
      1 RES1           1
@<TRIPOS>SET
DONOR_HYDROGENS      STATIC     ATOMS    <user>   **** ""
2 22 23
ATOM$RED        STATIC     ATOMS    COLORGROUP SYSTEM
2 22 23
@<TRIPOS>COMMENT
> <Gold.Version>
2022.3.0

> <Gold.Id.Protein>
unknown|4d1n_clean|pdb

> <Gold.Protein.RotatedTorsions>
[ 1580 1535 1534 1533 ] final   98.77 input   60.00 | X-H torsion
[ 4298 4278 4277 4274 ] final  -50.61 input   59.99 | X-H torsion
[ 4334 4317 4318 4319 ] final -108.85 input  114.03 | X-H torsion
[ 4338 4322 4321 4318 ] final   35.17 input   59.99 | X-H torsion
[ 6681 6660 6659 6657 ] final -168.71 input   60.02 | X-H torsion
[ 23749 23701 23702 23703 ] final  -94.24 input   59.44 | X-H torsion
[ 23797 23783 23784 23785 ] final   32.42 input  -92.48 | X-H torsion
[ 4159 4117 4118 4119 ] final  -83.31 input  119.10 | X-H torsion
[ 6905 6885 6886 6887 ] final  -76.25 input  108.16 | X-H torsion
[ 1343 1305 1306 1307 ] final   23.66 input  118.39 | X-H torsion
[ 1570 1527 1528 1529 ] final  -41.22 input   90.05 | X-H torsion
[ 4077 4043 4044 4045 ] final   32.72 input  116.01 | X-H torsion
[ 25737 25709 25710 25711 ] final   14.08 input   60.94 | X-H torsion
[ 1631 1609 1610 1611 ] final  -59.45 input  112.52 | X-H torsion
[ 1281 1253 1251 1248 ] final -109.09 input   60.01 | X-H torsion
[ 23825 23811 23812 23813 ] final  -21.40 input  -23.57 | X-H torsion
[ 27193 4046 4045 4044 ] final   20.79 input   -0.00 | X-H torsion
[ 27207 23650 23649 23648 ] final   72.52 input    0.00 | X-H torsion
[ 27210 23704 23703 23702 ] final  -44.19 input    0.00 | X-H torsion
[ 27213 25712 25711 25710 ] final   23.43 input    0.00 | X-H torsion
[ 27217 6888 6887 6886 ] final  -39.68 input    0.00 | X-H torsion
[ 27219 1308 1307 1306 ] final  -16.17 input    0.00 | X-H torsion
[ 27223 1530 1529 1528 ] final -166.66 input   -0.00 | X-H torsion
[ 27225 3782 3781 3780 ] final   -6.09 input    0.00 | X-H torsion
[ 27227 3996 3995 3994 ] final  -73.68 input   -0.00 | X-H torsion

> <Gold.Protein.ActiveResidues>
 THR320  LEU321  LYS324  SER325  GLU365  PHE366  ASP368  GLN369  TYR370  SER372 
 SER373  TYR408  HIS412  ARG415  ASN416  TRP426  GLU670  CYS673  ARG674  GLY675 
 GLY676  TYR703  LEU705  THR706  PRO707 

> <Gold.Protein.RotatedAtoms>
  231.0612   43.7535   38.6141 H   0  0  0  0  0  0  0  0  0  0  0  0  # atno 1281 bound_to 1253
  229.1921   40.1154   37.8885 H   0  0  0  0  0  0  0  0  0  0  0  0  # atno 1343 bound_to 1305
  223.2192   38.8086   38.7039 H   0  0  0  0  0  0  0  0  0  0  0  0  # atno 1570 bound_to 1527
  225.2214   46.1972   36.4532 H   0  0  0  0  0  0  0  0  0  0  0  0  # atno 1580 bound_to 1535
  225.9916   45.5655   37.7778 H   0  0  0  0  0  0  0  0  0  0  0  0  # atno 1581 bound_to 1535
  225.8479   44.6633   36.3949 H   0  0  0  0  0  0  0  0  0  0  0  0  # atno 1582 bound_to 1535
  221.4106   38.8039   36.8237 H   0  0  0  0  0  0  0  0  0  0  0  0  # atno 1631 bound_to 1609
  216.1791   48.7324   31.4092 H   0  0  0  0  0  0  0  0  0  0  0  0  # atno 4077 bound_to 4043
  218.4776   49.1257   29.9724 H   0  0  0  0  0  0  0  0  0  0  0  0  # atno 4159 bound_to 4117
  222.0512   51.7530   33.6465 H   0  0  0  0  0  0  0  0  0  0  0  0  # atno 4298 bound_to 4278
  221.4595   52.2474   31.5691 H   0  0  0  0  0  0  0  0  0  0  0  0  # atno 4334 bound_to 4317
  221.6698   52.7127   27.3594 H   0  0  0  0  0  0  0  0  0  0  0  0  # atno 4338 bound_to 4322
  221.7503   48.3961   28.2956 H   0  0  0  0  0  0  0  0  0  0  0  0  # atno 6681 bound_to 6660
  223.5377   43.7372   21.6233 H   0  0  0  0  0  0  0  0  0  0  0  0  # atno 6905 bound_to 6885
  232.1048   47.4192   32.8625 H   0  0  0  0  0  0  0  0  0  0  0  0  # atno 23749 bound_to 23701
  231.1783   44.3662   33.7681 H   0  0  0  0  0  0  0  0  0  0  0  0  # atno 23797 bound_to 23783
  232.0301   42.6403   33.4817 H   0  0  0  0  0  0  0  0  0  0  0  0  # atno 23825 bound_to 23811
  220.2769   39.3326   30.1401 H   0  0  0  0  0  0  0  0  0  0  0  0  # atno 25737 bound_to 25709
  220.4604   49.5957   30.9235 LP  0  0  0  0  0  0  0  0  0  0  0  0  # atno 27193 bound_to 4046
  219.7765   50.7591   29.8378 LP  0  0  0  0  0  0  0  0  0  0  0  0  # atno 27194 bound_to 4046
  221.3567   50.7205   34.6946 LP  0  0  0  0  0  0  0  0  0  0  0  0  # atno 27195 bound_to 4278
  221.2571   52.3314   34.9434 LP  0  0  0  0  0  0  0  0  0  0  0  0  # atno 27196 bound_to 4278
  220.3327   52.3351   30.2346 LP  0  0  0  0  0  0  0  0  0  0  0  0  # atno 27197 bound_to 4317
  220.5065   51.6245   27.6895 LP  0  0  0  0  0  0  0  0  0  0  0  0  # atno 27198 bound_to 4322
  221.7034   51.2527   26.6427 LP  0  0  0  0  0  0  0  0  0  0  0  0  # atno 27199 bound_to 4322
  221.5512   46.8151   27.9650 LP  0  0  0  0  0  0  0  0  0  0  0  0  # atno 27200 bound_to 6660
  220.3108   47.6881   28.5699 LP  0  0  0  0  0  0  0  0  0  0  0  0  # atno 27201 bound_to 6660
  230.6961   49.1234   32.0671 LP  0  0  0  0  0  0  0  0  0  0  0  0  # atno 27207 bound_to 23650
  230.8854   48.6838   33.7317 LP  0  0  0  0  0  0  0  0  0  0  0  0  # atno 27208 bound_to 23650
  232.5738   45.9669   32.0125 LP  0  0  0  0  0  0  0  0  0  0  0  0  # atno 27209 bound_to 23701
  228.6080   45.2399   34.4771 LP  0  0  0  0  0  0  0  0  0  0  0  0  # atno 27210 bound_to 23704
  229.2788   43.6634   34.7312 LP  0  0  0  0  0  0  0  0  0  0  0  0  # atno 27211 bound_to 23704
  232.0862   45.5499   34.6799 LP  0  0  0  0  0  0  0  0  0  0  0  0  # atno 27212 bound_to 23783
  219.8873   40.8277   29.9325 LP  0  0  0  0  0  0  0  0  0  0  0  0  # atno 27213 bound_to 25712
  219.1816   42.1423   29.0528 LP  0  0  0  0  0  0  0  0  0  0  0  0  # atno 27214 bound_to 25712
  216.7478   49.2068   29.7443 LP  0  0  0  0  0  0  0  0  0  0  0  0  # atno 27215 bound_to 4117
  221.9813   44.2918   22.1767 LP  0  0  0  0  0  0  0  0  0  0  0  0  # atno 27216 bound_to 6885
  224.5662   41.2573   24.5398 LP  0  0  0  0  0  0  0  0  0  0  0  0  # atno 27217 bound_to 6888
  223.2070   40.2479   24.9051 LP  0  0  0  0  0  0  0  0  0  0  0  0  # atno 27218 bound_to 6888
  225.1978   40.7396   36.3828 LP  0  0  0  0  0  0  0  0  0  0  0  0  # atno 27219 bound_to 1308
  225.0855   39.0128   36.3096 LP  0  0  0  0  0  0  0  0  0  0  0  0  # atno 27220 bound_to 1308
  229.3214   41.8570   37.7514 LP  0  0  0  0  0  0  0  0  0  0  0  0  # atno 27221 bound_to 1305
  224.1483   40.2104   38.2292 LP  0  0  0  0  0  0  0  0  0  0  0  0  # atno 27222 bound_to 1527
  219.7228   38.6400   35.8932 LP  0  0  0  0  0  0  0  0  0  0  0  0  # atno 27223 bound_to 1530
  220.0114   40.3357   36.0962 LP  0  0  0  0  0  0  0  0  0  0  0  0  # atno 27224 bound_to 1530
  215.7277   46.2321   33.2104 LP  0  0  0  0  0  0  0  0  0  0  0  0  # atno 27225 bound_to 3782
  215.9818   46.1907   31.4976 LP  0  0  0  0  0  0  0  0  0  0  0  0  # atno 27226 bound_to 3782
  217.2036   51.3834   32.0927 LP  0  0  0  0  0  0  0  0  0  0  0  0  # atno 27227 bound_to 3996
  218.0099   50.5831   33.4002 LP  0  0  0  0  0  0  0  0  0  0  0  0  # atno 27228 bound_to 3996
  216.7111   48.3590   33.0262 LP  0  0  0  0  0  0  0  0  0  0  0  0  # atno 27229 bound_to 4043
  220.0433   37.6267   29.8397 LP  0  0  0  0  0  0  0  0  0  0  0  0  # atno 27230 bound_to 25709
  222.8131   37.8216   37.1764 LP  0  0  0  0  0  0  0  0  0  0  0  0  # atno 27232 bound_to 1609

> <Gold.Score>
     Fitness  S(hb_ext) S(vdw_ext)  S(hb_int)    S(int)      intcor
     33.30       5.28      20.99       0.00      -0.84      -0.76

> <Gold.Goldscore.Fitness>
33.2977

> <Gold.Goldscore.Internal.Vdw>
-1.1599

> <Gold.Goldscore.Internal.Torsion>
-0.4427

> <Gold.Goldscore.External.Vdw>
20.9940

> <Gold.Goldscore.Internal.HBond>
0.0000

> <Gold.Goldscore.External.HBond>
5.2751

> <Gold.Goldscore.Internal.Correction>
-0.7585

> <Gold.Goldscore.Hbonds>
donor molecule, donor type, donor heavy atom, donor atom, acceptor molecule, acceptor atom, score
      P1  H 23708 23757       L1    11  0.79
      P1  H  4117  4159       L1     9  0.10
      L1  H     8    22       P1  4278  0.18

> <Gold.Goldscore.Internal.Vdw.Weighted>
-1.1599

> <Gold.Goldscore.Internal.Torsion.Weighted>
-0.4427

> <Gold.Goldscore.External.Vdw.Weighted>
28.8667

> <Gold.Goldscore.Internal.HBond.Weighted>
0.0000

> <Gold.Goldscore.External.HBond.Weighted>
5.2751

> <Gold.Goldscore.Internal.Correction.Weighted>
-0.7585

> <Gold.Rescore>
     Score     S(PLP)   S(hbond)     S(cho)   S(metal)  DE(clash)   DE(tors)     intcor
     26.90     -26.48       0.73       0.00       0.00       0.00       0.89       ----

> <Gold.PLP.Fitness>
26.9039

> <Gold.PLP.PLP>
-26.4764

> <Gold.PLP.part.hbond>
-2.0000

> <Gold.PLP.part.metal>
0.0000

> <Gold.PLP.part.buried>
-2.4657

> <Gold.PLP.part.nonpolar>
-23.4294

> <Gold.PLP.part.repulsive>
0.7948

> <Gold.PLP.ligand.clash>
0.0000

> <Gold.PLP.ligand.torsion>
0.8861

> <Gold.PLP.Chemscore.Hbond>
0.7332

> <Gold.PLP.Chemscore.CHOScore>
0.0000

> <Gold.PLP.Chemscore.Metal>
0.0000

> <Gold.Chemscore.Hbonds>
donor molecule, donor type, donor heavy atom, donor atom, acceptor molecule, acceptor atom, score
      P1  H 23708 23757       L1    11  1.00

> <Gold.PLP.Chemscore.Internal.Correction>
   9.000000E+99

