#       Name:                CT1002167954
#       Creating user name   hitesit
#       Creation time:       Sun Apr 16 23:03:02 2023


#       File generated by GOLD software.
#

@<TRIPOS>MOLECULE
CT1002167954|ligand_prepared|mol2|1|dock3
    29    30     1
SMALL
NO_CHARGES


@<TRIPOS>ATOM
      1 C1         223.1424  46.3478  31.6923 C.3            1 RES1               0.0000
      2 C2         222.4557  44.9752  31.8451 C.ar           1 RES1               0.0000
      3 C3         222.5615  47.2414  32.7842 C.2            1 RES1               0.0000
      4 C4         224.6395  46.0932  31.8278 C.2            1 RES1               0.0000
      5 C5         222.8943  47.0215  30.3226 C.3            1 RES1               0.0000
      6 C6         222.3523  44.1099  30.7601 C.ar           1 RES1               0.0000
      7 C7         221.9242  44.5601  33.0632 C.ar           1 RES1               0.0000
      8 N8         223.3554  47.5272  33.8556 N.am           1 RES1               0.0000
      9 O9         221.4106  47.6565  32.7252 O.2            1 RES1               0.0000
     10 N10        225.2866  46.6294  32.9101 N.am           1 RES1               0.0000
     11 O11        225.2615  45.4193  31.0158 O.2            1 RES1               0.0000
     12 C12        223.3738  48.4628  30.2524 C.3            1 RES1               0.0000
     13 C13        221.7424  42.8731  30.8888 C.ar           1 RES1               0.0000
     14 C14        221.3144  43.3229  33.1896 C.ar           1 RES1               0.0000
     15 C15        224.7066  47.3090  33.9464 C.2            1 RES1               0.0000
     16 C16        221.2234  42.4786  32.1035 C.ar           1 RES1               0.0000
     17 O17        225.3472  47.7133  34.9125 O.2            1 RES1               0.0000
     18 H18        223.4064  46.4407  29.5455 H              1 RES1               0.0000
     19 H19        221.8191  46.9962  30.1062 H              1 RES1               0.0000
     20 H20        222.7527  44.4041  29.7957 H              1 RES1               0.0000
     21 H21        221.9833  45.2082  33.9309 H              1 RES1               0.0000
     22 H22        222.9025  47.9414  34.6641 H              1 RES1               0.0000
     23 H23        226.2941  46.5110  32.9467 H              1 RES1               0.0000
     24 H24        223.1757  48.8878  29.2707 H              1 RES1               0.0000
     25 H25        222.8664  49.0747  30.9953 H              1 RES1               0.0000
     26 H26        224.4442  48.5226  30.4379 H              1 RES1               0.0000
     27 H27        221.6722  42.2129  30.0306 H              1 RES1               0.0000
     28 H28        220.9068  43.0167  34.1474 H              1 RES1               0.0000
     29 H29        220.7460  41.5095  32.2042 H              1 RES1               0.0000
@<TRIPOS>BOND
    1    1    2 1     
    2    1    3 1     
    3    1    4 1     
    4    1    5 1     
    5    2    6 ar    
    6    2    7 ar    
    7    3    8 1     
    8    3    9 2     
    9    4   10 1     
   10    4   11 2     
   11    5   12 1     
   12    5   18 1     
   13    5   19 1     
   14    6   13 ar    
   15    6   20 1     
   16    7   14 ar    
   17    7   21 1     
   18    8   15 1     
   19    8   22 1     
   20   10   15 1     
   21   10   23 1     
   22   12   24 1     
   23   12   25 1     
   24   12   26 1     
   25   13   16 ar    
   26   13   27 1     
   27   14   16 ar    
   28   14   28 1     
   29   15   17 2     
   30   16   29 1     
@<TRIPOS>SUBSTRUCTURE
      1 RES1           1
@<TRIPOS>SET
DONOR_HYDROGENS      STATIC     ATOMS    <user>   **** ""
2 22 23
ATOM$RED        STATIC     ATOMS    COLORGROUP SYSTEM
2 22 23
@<TRIPOS>COMMENT
> <Gold.Version>
2022.3.0

> <Gold.Id.Protein>
unknown|4d1n_clean|pdb

> <Gold.Protein.RotatedTorsions>
[ 1580 1535 1534 1533 ] final   94.23 input   60.00 | X-H torsion
[ 4298 4278 4277 4274 ] final  -71.72 input   59.99 | X-H torsion
[ 4334 4317 4318 4319 ] final -128.71 input  114.03 | X-H torsion
[ 4338 4322 4321 4318 ] final -147.37 input   59.99 | X-H torsion
[ 6681 6660 6659 6657 ] final -130.40 input   60.02 | X-H torsion
[ 23749 23701 23702 23703 ] final  -60.06 input   59.44 | X-H torsion
[ 23797 23783 23784 23785 ] final  -43.14 input  -92.48 | X-H torsion
[ 4159 4117 4118 4119 ] final -170.52 input  119.10 | X-H torsion
[ 6905 6885 6886 6887 ] final -126.21 input  108.16 | X-H torsion
[ 1343 1305 1306 1307 ] final   31.52 input  118.39 | X-H torsion
[ 1570 1527 1528 1529 ] final  110.05 input   90.05 | X-H torsion
[ 4077 4043 4044 4045 ] final  164.96 input  116.01 | X-H torsion
[ 25737 25709 25710 25711 ] final    3.90 input   60.94 | X-H torsion
[ 1631 1609 1610 1611 ] final  120.82 input  112.52 | X-H torsion
[ 1281 1253 1251 1248 ] final   -2.35 input   60.01 | X-H torsion
[ 23825 23811 23812 23813 ] final  110.78 input  -23.57 | X-H torsion
[ 27193 4046 4045 4044 ] final   71.99 input   -0.00 | X-H torsion
[ 27207 23650 23649 23648 ] final  125.27 input    0.00 | X-H torsion
[ 27210 23704 23703 23702 ] final  135.53 input    0.00 | X-H torsion
[ 27213 25712 25711 25710 ] final  -57.73 input    0.00 | X-H torsion
[ 27217 6888 6887 6886 ] final  -57.19 input    0.00 | X-H torsion
[ 27219 1308 1307 1306 ] final  -46.53 input    0.00 | X-H torsion
[ 27223 1530 1529 1528 ] final  -38.33 input   -0.00 | X-H torsion
[ 27225 3782 3781 3780 ] final  -98.06 input    0.00 | X-H torsion
[ 27227 3996 3995 3994 ] final -113.20 input   -0.00 | X-H torsion

> <Gold.Protein.ActiveResidues>
 THR320  LEU321  LYS324  SER325  GLU365  PHE366  ASP368  GLN369  TYR370  SER372 
 SER373  TYR408  HIS412  ARG415  ASN416  TRP426  GLU670  CYS673  ARG674  GLY675 
 GLY676  TYR703  LEU705  THR706  PRO707 

> <Gold.Protein.RotatedAtoms>
  230.0560   42.7993   38.0323 H   0  0  0  0  0  0  0  0  0  0  0  0  # atno 1281 bound_to 1253
  229.2706   40.1106   37.7947 H   0  0  0  0  0  0  0  0  0  0  0  0  # atno 1343 bound_to 1305
  224.2195   39.9406   37.8969 H   0  0  0  0  0  0  0  0  0  0  0  0  # atno 1570 bound_to 1527
  225.2163   46.1537   36.3913 H   0  0  0  0  0  0  0  0  0  0  0  0  # atno 1580 bound_to 1535
  225.9620   45.6353   37.7777 H   0  0  0  0  0  0  0  0  0  0  0  0  # atno 1581 bound_to 1535
  225.8826   44.6370   36.4570 H   0  0  0  0  0  0  0  0  0  0  0  0  # atno 1582 bound_to 1535
  222.8293   37.8021   37.1716 H   0  0  0  0  0  0  0  0  0  0  0  0  # atno 1631 bound_to 1609
  216.5113   47.7908   32.6582 H   0  0  0  0  0  0  0  0  0  0  0  0  # atno 4077 bound_to 4043
  217.6914   48.5016   29.2837 H   0  0  0  0  0  0  0  0  0  0  0  0  # atno 4159 bound_to 4117
  222.0384   51.4104   33.6474 H   0  0  0  0  0  0  0  0  0  0  0  0  # atno 4298 bound_to 4278
  221.4190   51.9492   31.5146 H   0  0  0  0  0  0  0  0  0  0  0  0  # atno 4334 bound_to 4317
  220.9513   51.0084   27.0785 H   0  0  0  0  0  0  0  0  0  0  0  0  # atno 4338 bound_to 4322
  221.1919   48.5426   28.5064 H   0  0  0  0  0  0  0  0  0  0  0  0  # atno 6681 bound_to 6660
  223.5373   44.4073   21.9319 H   0  0  0  0  0  0  0  0  0  0  0  0  # atno 6905 bound_to 6885
  232.3147   47.0989   33.2124 H   0  0  0  0  0  0  0  0  0  0  0  0  # atno 23749 bound_to 23701
  232.2562   44.4750   33.8281 H   0  0  0  0  0  0  0  0  0  0  0  0  # atno 23797 bound_to 23783
  231.1963   42.2194   34.7916 H   0  0  0  0  0  0  0  0  0  0  0  0  # atno 23825 bound_to 23811
  220.3922   39.3211   30.0343 H   0  0  0  0  0  0  0  0  0  0  0  0  # atno 25737 bound_to 25709
  220.5301   49.4384   30.1951 LP  0  0  0  0  0  0  0  0  0  0  0  0  # atno 27193 bound_to 4046
  219.7068   50.9164   30.5662 LP  0  0  0  0  0  0  0  0  0  0  0  0  # atno 27194 bound_to 4046
  221.2039   50.8997   34.9473 LP  0  0  0  0  0  0  0  0  0  0  0  0  # atno 27195 bound_to 4278
  221.4228   52.4974   34.6898 LP  0  0  0  0  0  0  0  0  0  0  0  0  # atno 27196 bound_to 4278
  220.3721   52.6250   30.2876 LP  0  0  0  0  0  0  0  0  0  0  0  0  # atno 27197 bound_to 4317
  222.0793   52.1444   26.7897 LP  0  0  0  0  0  0  0  0  0  0  0  0  # atno 27198 bound_to 4322
  220.8546   52.4502   27.8256 LP  0  0  0  0  0  0  0  0  0  0  0  0  # atno 27199 bound_to 4322
  221.9935   47.2467   27.9347 LP  0  0  0  0  0  0  0  0  0  0  0  0  # atno 27200 bound_to 6660
  220.4308   47.1090   28.3880 LP  0  0  0  0  0  0  0  0  0  0  0  0  # atno 27201 bound_to 6660
  230.2687   48.5338   32.3157 LP  0  0  0  0  0  0  0  0  0  0  0  0  # atno 27207 bound_to 23650
  231.3128   49.2734   33.4831 LP  0  0  0  0  0  0  0  0  0  0  0  0  # atno 27208 bound_to 23650
  232.3681   46.2806   31.6698 LP  0  0  0  0  0  0  0  0  0  0  0  0  # atno 27209 bound_to 23701
  229.2777   43.6623   34.7272 LP  0  0  0  0  0  0  0  0  0  0  0  0  # atno 27210 bound_to 23704
  228.6091   45.2410   34.4811 LP  0  0  0  0  0  0  0  0  0  0  0  0  # atno 27211 bound_to 23704
  231.0361   45.4439   34.6214 LP  0  0  0  0  0  0  0  0  0  0  0  0  # atno 27212 bound_to 23783
  218.8430   41.2496   29.9579 LP  0  0  0  0  0  0  0  0  0  0  0  0  # atno 27213 bound_to 25712
  220.2260   41.7203   29.0275 LP  0  0  0  0  0  0  0  0  0  0  0  0  # atno 27214 bound_to 25712
  217.5176   49.8179   30.4186 LP  0  0  0  0  0  0  0  0  0  0  0  0  # atno 27215 bound_to 4117
  221.9816   43.6250   21.8696 LP  0  0  0  0  0  0  0  0  0  0  0  0  # atno 27216 bound_to 6885
  224.5962   41.0788   24.3482 LP  0  0  0  0  0  0  0  0  0  0  0  0  # atno 27217 bound_to 6888
  223.1770   40.4264   25.0967 LP  0  0  0  0  0  0  0  0  0  0  0  0  # atno 27218 bound_to 6888
  225.0965   40.6092   36.8052 LP  0  0  0  0  0  0  0  0  0  0  0  0  # atno 27219 bound_to 1308
  225.1868   39.1432   35.8873 LP  0  0  0  0  0  0  0  0  0  0  0  0  # atno 27220 bound_to 1308
  229.2458   41.8616   37.8417 LP  0  0  0  0  0  0  0  0  0  0  0  0  # atno 27221 bound_to 1305
  223.1712   39.1047   39.0175 LP  0  0  0  0  0  0  0  0  0  0  0  0  # atno 27222 bound_to 1527
  219.6462   39.9942   36.6617 LP  0  0  0  0  0  0  0  0  0  0  0  0  # atno 27223 bound_to 1530
  220.0881   38.9815   35.3278 LP  0  0  0  0  0  0  0  0  0  0  0  0  # atno 27224 bound_to 1530
  215.3796   46.9258   32.2361 LP  0  0  0  0  0  0  0  0  0  0  0  0  # atno 27225 bound_to 3782
  216.3299   45.4970   32.4719 LP  0  0  0  0  0  0  0  0  0  0  0  0  # atno 27226 bound_to 3782
  217.6420   51.0558   31.8842 LP  0  0  0  0  0  0  0  0  0  0  0  0  # atno 27227 bound_to 3996
  217.5715   50.9107   33.6087 LP  0  0  0  0  0  0  0  0  0  0  0  0  # atno 27228 bound_to 3996
  216.3813   49.2940   31.7859 LP  0  0  0  0  0  0  0  0  0  0  0  0  # atno 27229 bound_to 4043
  219.9306   37.6379   29.9430 LP  0  0  0  0  0  0  0  0  0  0  0  0  # atno 27230 bound_to 25709
  221.4314   38.7973   36.8375 LP  0  0  0  0  0  0  0  0  0  0  0  0  # atno 27232 bound_to 1609

> <Gold.Score>
     Fitness  S(hb_ext) S(vdw_ext)  S(hb_int)    S(int)      intcor
     34.30       6.00      21.28       0.00      -0.96      -0.76

> <Gold.Goldscore.Fitness>
34.3045

> <Gold.Goldscore.Internal.Vdw>
-1.2018

> <Gold.Goldscore.Internal.Torsion>
-0.5155

> <Gold.Goldscore.External.Vdw>
21.2824

> <Gold.Goldscore.Internal.HBond>
0.0000

> <Gold.Goldscore.External.HBond>
6.0000

> <Gold.Goldscore.Internal.Correction>
-0.7585

> <Gold.Goldscore.Hbonds>
donor molecule, donor type, donor heavy atom, donor atom, acceptor molecule, acceptor atom, score
      P1  H 23708 23757       L1    11  1.00

> <Gold.Goldscore.Internal.Vdw.Weighted>
-1.2018

> <Gold.Goldscore.Internal.Torsion.Weighted>
-0.5155

> <Gold.Goldscore.External.Vdw.Weighted>
29.2633

> <Gold.Goldscore.Internal.HBond.Weighted>
0.0000

> <Gold.Goldscore.External.HBond.Weighted>
6.0000

> <Gold.Goldscore.Internal.Correction.Weighted>
-0.7585

> <Gold.Rescore>
     Score     S(PLP)   S(hbond)     S(cho)   S(metal)  DE(clash)   DE(tors)     intcor
     38.91     -33.25       2.51       0.00       0.00       0.45       0.72       ----

> <Gold.PLP.Fitness>
38.9074

> <Gold.PLP.PLP>
-33.2515

> <Gold.PLP.part.hbond>
-3.0000

> <Gold.PLP.part.metal>
0.0000

> <Gold.PLP.part.buried>
-3.2911

> <Gold.PLP.part.nonpolar>
-28.5628

> <Gold.PLP.part.repulsive>
0.2344

> <Gold.PLP.ligand.clash>
0.4461

> <Gold.PLP.ligand.torsion>
0.7198

> <Gold.PLP.Chemscore.Hbond>
2.5139

> <Gold.PLP.Chemscore.CHOScore>
0.0000

> <Gold.PLP.Chemscore.Metal>
0.0000

> <Gold.Chemscore.Hbonds>
donor molecule, donor type, donor heavy atom, donor atom, acceptor molecule, acceptor atom, score
      P1  H  1535  1580       L1    17  0.86
      P1  H 23708 23757       L1    11  1.00
      P1  H 23711 23761       L1    11  0.01

> <Gold.PLP.Chemscore.Internal.Correction>
   9.000000E+99

