#       Name:                CT1002167954
#       Creating user name   hitesit
#       Creation time:       Sun Apr 16 22:53:07 2023


#       File generated by GOLD software.
#

@<TRIPOS>MOLECULE
CT1002167954|ligand_prepared|mol2|1|dock3
    29    30     1
SMALL
NO_CHARGES


@<TRIPOS>ATOM
      1 C1         111.9557 281.1708 314.2570 C.3            1 RES1               0.0000
      2 C2         110.6419 281.9697 314.1359 C.ar           1 RES1               0.0000
      3 C3         111.5724 279.7947 314.7932 C.2            1 RES1               0.0000
      4 C4         112.5700 281.1459 312.8618 C.2            1 RES1               0.0000
      5 C5         112.9855 281.8043 315.2213 C.3            1 RES1               0.0000
      6 C6         110.6636 283.3568 314.0262 C.ar           1 RES1               0.0000
      7 C7         109.4030 281.3344 314.1296 C.ar           1 RES1               0.0000
      8 N8         111.6040 278.7459 313.9220 N.am           1 RES1               0.0000
      9 O9         111.2099 279.6389 315.9528 O.2            1 RES1               0.0000
     10 N10        112.6661 279.9369 312.2240 N.am           1 RES1               0.0000
     11 O11        112.9565 282.1647 312.3023 O.2            1 RES1               0.0000
     12 C12        114.1873 280.9168 315.5042 C.3            1 RES1               0.0000
     13 C13        109.4895 284.0825 313.9115 C.ar           1 RES1               0.0000
     14 C14        108.2300 282.0620 314.0150 C.ar           1 RES1               0.0000
     15 C15        112.1829 278.7401 312.6784 C.2            1 RES1               0.0000
     16 C16        108.2720 283.4356 313.9053 C.ar           1 RES1               0.0000
     17 O17        112.2588 277.7049 312.0229 O.2            1 RES1               0.0000
     18 H18        113.3381 282.7494 314.7900 H              1 RES1               0.0000
     19 H19        112.4855 282.0347 316.1702 H              1 RES1               0.0000
     20 H20        111.6121 283.8834 314.0317 H              1 RES1               0.0000
     21 H21        109.3457 280.2546 314.2158 H              1 RES1               0.0000
     22 H22        111.1557 277.8864 314.2230 H              1 RES1               0.0000
     23 H23        113.1421 279.9282 311.3276 H              1 RES1               0.0000
     24 H24        114.8781 281.4087 316.1858 H              1 RES1               0.0000
     25 H25        113.8753 279.9779 315.9571 H              1 RES1               0.0000
     26 H26        114.7229 280.6883 314.5851 H              1 RES1               0.0000
     27 H27        109.5279 285.1635 313.8268 H              1 RES1               0.0000
     28 H28        107.2740 281.5488 314.0113 H              1 RES1               0.0000
     29 H29        107.3524 284.0043 313.8151 H              1 RES1               0.0000
@<TRIPOS>BOND
    1    1    2 1     
    2    1    3 1     
    3    1    4 1     
    4    1    5 1     
    5    2    6 ar    
    6    2    7 ar    
    7    3    8 1     
    8    3    9 2     
    9    4   10 1     
   10    4   11 2     
   11    5   12 1     
   12    5   18 1     
   13    5   19 1     
   14    6   13 ar    
   15    6   20 1     
   16    7   14 ar    
   17    7   21 1     
   18    8   15 1     
   19    8   22 1     
   20   10   15 1     
   21   10   23 1     
   22   12   24 1     
   23   12   25 1     
   24   12   26 1     
   25   13   16 ar    
   26   13   27 1     
   27   14   16 ar    
   28   14   28 1     
   29   15   17 2     
   30   16   29 1     
@<TRIPOS>SUBSTRUCTURE
      1 RES1           1
@<TRIPOS>SET
DONOR_HYDROGENS      STATIC     ATOMS    <user>   **** ""
2 22 23
ATOM$RED        STATIC     ATOMS    COLORGROUP SYSTEM
2 22 23
@<TRIPOS>COMMENT
> <Gold.Version>
2022.3.0

> <Gold.Id.Protein>
unknown|5adg_clean|pdb

> <Gold.Protein.RotatedTorsions>
[ 1394 1385 1383 1380 ] final  135.72 input   60.03 | X-H torsion
[ 1425 1409 1410 1411 ] final  125.98 input  129.35 | X-H torsion
[ 1462 1452 1453 1454 ] final  148.62 input  108.99 | X-H torsion
[ 1488 1477 1478 1479 ] final  -66.75 input  100.07 | X-H torsion
[ 1521 1510 1511 1512 ] final -153.02 input  113.76 | X-H torsion
[ 1570 1551 1552 1553 ] final  129.80 input  123.58 | X-H torsion
[ 1707 1683 1682 1681 ] final  -59.22 input   60.00 | X-H torsion
[ 2445 2428 2429 2430 ] final  -62.40 input  119.94 | X-H torsion
[ 2478 2467 2468 2469 ] final -168.82 input  117.54 | X-H torsion
[ 2333 2316 2317 2318 ] final  -26.71 input  118.58 | X-H torsion
[ 2366 2351 2352 2353 ] final   57.65 input  116.99 | X-H torsion
[ 2407 2383 2384 2385 ] final   76.68 input  115.65 | X-H torsion
[ 2510 2497 2498 2499 ] final  -16.32 input  121.55 | X-H torsion
[ 2572 2558 2559 2560 ] final  -45.63 input  118.05 | X-H torsion
[ 2541 2525 2526 2527 ] final -125.52 input  116.25 | X-H torsion
[ 2611 2587 2588 2589 ] final  132.15 input  123.81 | X-H torsion
[ 2710 2698 2699 2700 ] final -151.63 input  119.89 | X-H torsion
[ 2679 2660 2661 2662 ] final  -47.53 input  116.13 | X-H torsion
[ 2646 2631 2632 2633 ] final  128.52 input  117.28 | X-H torsion
[ 2736 2721 2722 2723 ] final  -31.29 input   88.34 | X-H torsion
[ 2782 2776 2777 2778 ] final  101.75 input -114.77 | X-H torsion
[ 2619 2595 2594 2593 ] final -167.90 input   60.00 | X-H torsion
[ 1697 1675 1676 1677 ] final -114.96 input  120.12 | X-H torsion
[ 1635 1616 1617 1618 ] final  162.79 input  110.97 | X-H torsion
[ 2757 2749 2750 2751 ] final -121.15 input   47.81 | X-H torsion
[ 13465 1382 1381 1380 ] final  -79.19 input    0.00 | X-H torsion
[ 13470 1412 1411 1410 ] final  -87.58 input    0.00 | X-H torsion
[ 13473 1455 1454 1453 ] final  133.45 input   -0.00 | X-H torsion
[ 13480 1480 1479 1478 ] final  -91.30 input   -0.00 | X-H torsion
[ 13484 1554 1553 1552 ] final -176.11 input    0.00 | X-H torsion
[ 13496 2319 2318 2317 ] final  104.92 input   -0.00 | X-H torsion
[ 13499 2431 2430 2429 ] final -100.31 input    0.00 | X-H torsion
[ 13504 2287 2286 2285 ] final   67.10 input   -0.00 | X-H torsion
[ 13508 2354 2353 2352 ] final    1.87 input    0.00 | X-H torsion
[ 13511 2386 2385 2384 ] final  176.67 input    0.00 | X-H torsion
[ 13513 2470 2469 2468 ] final -107.08 input   -0.00 | X-H torsion
[ 13521 2528 2527 2526 ] final   90.98 input    0.00 | X-H torsion
[ 13523 2561 2560 2559 ] final   40.35 input   -0.00 | X-H torsion
[ 13527 2663 2662 2661 ] final  -39.87 input    0.00 | X-H torsion
[ 13529 2590 2589 2588 ] final   77.96 input   -0.00 | X-H torsion
[ 13532 2701 2700 2699 ] final  -27.07 input    0.00 | X-H torsion
[ 13535 1513 1512 1511 ] final -156.63 input    0.00 | X-H torsion
[ 13537 2634 2633 2632 ] final    5.21 input    0.00 | X-H torsion
[ 13540 2779 2778 2777 ] final -143.66 input    0.00 | X-H torsion

> <Gold.Protein.ActiveResidues>
 THR355  LYS356  ASP357  GLN358  LEU359  PHE360  PRO361  LEU362  ALA363  LYS364 
 ASP368  PHE377  GLY378  HIS382  MET383  GLU384  ARG385  LEU386  GLU387  GLU388 
 VAL389  ASN390  LYS391  GLU392  ILE393  ASP394  THR395  THR396  SER397 

> <Gold.Protein.RotatedAtoms>
  105.5679  276.4884  317.4910 H   0  0  0  0  0  0  0  0  0  0  0  0  # atno 1394 bound_to 1385
  106.1502  275.6332  313.6791 H   0  0  0  0  0  0  0  0  0  0  0  0  # atno 1425 bound_to 1409
  107.3383  277.6523  315.3451 H   0  0  0  0  0  0  0  0  0  0  0  0  # atno 1462 bound_to 1452
  109.2775  276.7243  317.8972 H   0  0  0  0  0  0  0  0  0  0  0  0  # atno 1488 bound_to 1477
  109.5143  273.6037  317.4713 H   0  0  0  0  0  0  0  0  0  0  0  0  # atno 1521 bound_to 1510
  111.9454  275.6155  315.4570 H   0  0  0  0  0  0  0  0  0  0  0  0  # atno 1570 bound_to 1551
  114.2935  273.8831  319.5401 H   0  0  0  0  0  0  0  0  0  0  0  0  # atno 1635 bound_to 1616
  118.3524  273.3461  315.6079 H   0  0  0  0  0  0  0  0  0  0  0  0  # atno 1697 bound_to 1675
  122.1892  278.3072  320.0654 H   0  0  0  0  0  0  0  0  0  0  0  0  # atno 1707 bound_to 1683
  122.8753  277.4307  318.8377 H   0  0  0  0  0  0  0  0  0  0  0  0  # atno 1708 bound_to 1683
  123.4613  278.9362  319.2091 H   0  0  0  0  0  0  0  0  0  0  0  0  # atno 1709 bound_to 1683
  127.2332  276.9454  310.5471 H   0  0  0  0  0  0  0  0  0  0  0  0  # atno 2333 bound_to 2316
  126.7598  277.5299  308.8282 H   0  0  0  0  0  0  0  0  0  0  0  0  # atno 2366 bound_to 2351
  125.3637  276.2743  308.8982 H   0  0  0  0  0  0  0  0  0  0  0  0  # atno 2407 bound_to 2383
  122.6152  275.6061  309.4390 H   0  0  0  0  0  0  0  0  0  0  0  0  # atno 2445 bound_to 2428
  121.8090  278.9948  310.0523 H   0  0  0  0  0  0  0  0  0  0  0  0  # atno 2478 bound_to 2467
  119.9439  277.7276  307.6939 H   0  0  0  0  0  0  0  0  0  0  0  0  # atno 2510 bound_to 2497
  119.1083  274.8958  307.0281 H   0  0  0  0  0  0  0  0  0  0  0  0  # atno 2541 bound_to 2525
  116.6602  276.0917  308.8024 H   0  0  0  0  0  0  0  0  0  0  0  0  # atno 2572 bound_to 2558
  116.6524  278.6493  307.2320 H   0  0  0  0  0  0  0  0  0  0  0  0  # atno 2611 bound_to 2587
  119.8845  282.4492  303.3892 H   0  0  0  0  0  0  0  0  0  0  0  0  # atno 2619 bound_to 2595
  119.7455  280.9858  304.1558 H   0  0  0  0  0  0  0  0  0  0  0  0  # atno 2620 bound_to 2595
  119.8691  281.0477  302.5033 H   0  0  0  0  0  0  0  0  0  0  0  0  # atno 2621 bound_to 2595
  115.5385  276.2852  306.0889 H   0  0  0  0  0  0  0  0  0  0  0  0  # atno 2646 bound_to 2631
  112.5947  275.2596  306.7860 H   0  0  0  0  0  0  0  0  0  0  0  0  # atno 2679 bound_to 2660
  111.3619  277.4106  308.8427 H   0  0  0  0  0  0  0  0  0  0  0  0  # atno 2710 bound_to 2698
  109.4701  277.1158  306.1296 H   0  0  0  0  0  0  0  0  0  0  0  0  # atno 2736 bound_to 2721
  108.4171  275.6674  304.2284 H   0  0  0  0  0  0  0  0  0  0  0  0  # atno 2757 bound_to 2749
  107.2749  273.6420  306.4451 H   0  0  0  0  0  0  0  0  0  0  0  0  # atno 2782 bound_to 2776
  108.1993  274.6227  316.6721 LP  0  0  0  0  0  0  0  0  0  0  0  0  # atno 13465 bound_to 1382
  108.6312  273.5294  315.4001 LP  0  0  0  0  0  0  0  0  0  0  0  0  # atno 13466 bound_to 1382
  106.5874  275.2332  317.3106 LP  0  0  0  0  0  0  0  0  0  0  0  0  # atno 13467 bound_to 1385
  105.2854  275.0975  318.2867 LP  0  0  0  0  0  0  0  0  0  0  0  0  # atno 13468 bound_to 1385
  107.0436  274.7218  314.8758 LP  0  0  0  0  0  0  0  0  0  0  0  0  # atno 13469 bound_to 1409
  110.6813  275.9998  315.4129 LP  0  0  0  0  0  0  0  0  0  0  0  0  # atno 13470 bound_to 1412
  110.7109  277.5375  314.6161 LP  0  0  0  0  0  0  0  0  0  0  0  0  # atno 13471 bound_to 1412
  108.6185  276.4678  315.5094 LP  0  0  0  0  0  0  0  0  0  0  0  0  # atno 13472 bound_to 1452
  110.3307  277.3053  319.6259 LP  0  0  0  0  0  0  0  0  0  0  0  0  # atno 13473 bound_to 1455
  111.0565  277.8940  318.1677 LP  0  0  0  0  0  0  0  0  0  0  0  0  # atno 13474 bound_to 1455
  107.8004  275.7936  317.8154 LP  0  0  0  0  0  0  0  0  0  0  0  0  # atno 13479 bound_to 1477
  112.2525  274.4711  319.0150 LP  0  0  0  0  0  0  0  0  0  0  0  0  # atno 13480 bound_to 1480
  111.4987  272.9460  319.3403 LP  0  0  0  0  0  0  0  0  0  0  0  0  # atno 13481 bound_to 1480
  110.4370  275.0388  317.0877 LP  0  0  0  0  0  0  0  0  0  0  0  0  # atno 13482 bound_to 1510
  112.6551  274.1585  316.1011 LP  0  0  0  0  0  0  0  0  0  0  0  0  # atno 13483 bound_to 1551
  116.8003  274.9712  317.3405 LP  0  0  0  0  0  0  0  0  0  0  0  0  # atno 13484 bound_to 1554
  116.5041  274.7971  315.6428 LP  0  0  0  0  0  0  0  0  0  0  0  0  # atno 13485 bound_to 1554
  124.1762  279.9246  309.0515 LP  0  0  0  0  0  0  0  0  0  0  0  0  # atno 13496 bound_to 2319
  123.8534  278.4968  309.9773 LP  0  0  0  0  0  0  0  0  0  0  0  0  # atno 13497 bound_to 2319
  123.8131  276.5275  310.3186 LP  0  0  0  0  0  0  0  0  0  0  0  0  # atno 13498 bound_to 2428
  119.0989  276.9837  309.5816 LP  0  0  0  0  0  0  0  0  0  0  0  0  # atno 13499 bound_to 2431
  119.1207  277.9858  310.9942 LP  0  0  0  0  0  0  0  0  0  0  0  0  # atno 13500 bound_to 2431
  121.5068  277.5598  309.0997 LP  0  0  0  0  0  0  0  0  0  0  0  0  # atno 13501 bound_to 2467
  125.4424  276.0532  312.0309 LP  0  0  0  0  0  0  0  0  0  0  0  0  # atno 13504 bound_to 2287
  125.2852  276.4153  310.3445 LP  0  0  0  0  0  0  0  0  0  0  0  0  # atno 13505 bound_to 2287
  128.3627  277.9942  311.3734 LP  0  0  0  0  0  0  0  0  0  0  0  0  # atno 13506 bound_to 2316
  126.3264  279.2212  308.7587 LP  0  0  0  0  0  0  0  0  0  0  0  0  # atno 13507 bound_to 2351
  123.1312  277.8945  306.2651 LP  0  0  0  0  0  0  0  0  0  0  0  0  # atno 13508 bound_to 2354
  122.6118  276.4341  307.0380 LP  0  0  0  0  0  0  0  0  0  0  0  0  # atno 13509 bound_to 2354
  124.8188  276.3818  307.2424 LP  0  0  0  0  0  0  0  0  0  0  0  0  # atno 13510 bound_to 2383
  120.6665  275.4109  309.4159 LP  0  0  0  0  0  0  0  0  0  0  0  0  # atno 13511 bound_to 2386
  121.2851  274.5030  308.0768 LP  0  0  0  0  0  0  0  0  0  0  0  0  # atno 13512 bound_to 2386
  117.8821  278.1048  307.4781 LP  0  0  0  0  0  0  0  0  0  0  0  0  # atno 13513 bound_to 2470
  118.3899  279.4474  306.5088 LP  0  0  0  0  0  0  0  0  0  0  0  0  # atno 13514 bound_to 2470
  121.3780  277.7347  306.6922 LP  0  0  0  0  0  0  0  0  0  0  0  0  # atno 13517 bound_to 2497
  117.9190  277.0698  309.5202 LP  0  0  0  0  0  0  0  0  0  0  0  0  # atno 13518 bound_to 2558
  119.2504  276.1688  308.2199 LP  0  0  0  0  0  0  0  0  0  0  0  0  # atno 13519 bound_to 2525
  115.1869  278.1883  308.0698 LP  0  0  0  0  0  0  0  0  0  0  0  0  # atno 13520 bound_to 2587
  114.9505  274.9833  309.6919 LP  0  0  0  0  0  0  0  0  0  0  0  0  # atno 13521 bound_to 2528
  114.9281  275.4099  308.0134 LP  0  0  0  0  0  0  0  0  0  0  0  0  # atno 13522 bound_to 2528
  113.4239  278.6679  309.3637 LP  0  0  0  0  0  0  0  0  0  0  0  0  # atno 13523 bound_to 2561
  113.2372  277.8478  307.8496 LP  0  0  0  0  0  0  0  0  0  0  0  0  # atno 13524 bound_to 2561
  111.3629  276.7780  307.2127 LP  0  0  0  0  0  0  0  0  0  0  0  0  # atno 13525 bound_to 2698
  113.6855  275.2450  308.1491 LP  0  0  0  0  0  0  0  0  0  0  0  0  # atno 13526 bound_to 2660
  109.0429  275.1421  308.0579 LP  0  0  0  0  0  0  0  0  0  0  0  0  # atno 13527 bound_to 2663
  108.7386  276.7336  308.6699 LP  0  0  0  0  0  0  0  0  0  0  0  0  # atno 13528 bound_to 2663
  112.6039  277.9333  304.4506 LP  0  0  0  0  0  0  0  0  0  0  0  0  # atno 13529 bound_to 2590
  112.0746  277.5871  306.0630 LP  0  0  0  0  0  0  0  0  0  0  0  0  # atno 13530 bound_to 2590
  114.0567  277.2029  305.9415 LP  0  0  0  0  0  0  0  0  0  0  0  0  # atno 13531 bound_to 2631
  107.5781  278.4722  307.1724 LP  0  0  0  0  0  0  0  0  0  0  0  0  # atno 13532 bound_to 2701
  107.5670  278.5158  305.4410 LP  0  0  0  0  0  0  0  0  0  0  0  0  # atno 13533 bound_to 2701
  110.6964  278.0697  305.3211 LP  0  0  0  0  0  0  0  0  0  0  0  0  # atno 13534 bound_to 2721
  114.4516  273.5399  316.6831 LP  0  0  0  0  0  0  0  0  0  0  0  0  # atno 13535 bound_to 1513
  113.5139  272.1176  316.3704 LP  0  0  0  0  0  0  0  0  0  0  0  0  # atno 13536 bound_to 1513
  111.4666  274.2791  305.0829 LP  0  0  0  0  0  0  0  0  0  0  0  0  # atno 13537 bound_to 2634
  110.7088  274.5384  306.6186 LP  0  0  0  0  0  0  0  0  0  0  0  0  # atno 13538 bound_to 2634
  108.6888  274.4944  307.0333 LP  0  0  0  0  0  0  0  0  0  0  0  0  # atno 13539 bound_to 2776
  108.6216  271.6902  310.9541 LP  0  0  0  0  0  0  0  0  0  0  0  0  # atno 13540 bound_to 2779
  106.9524  271.9483  310.5703 LP  0  0  0  0  0  0  0  0  0  0  0  0  # atno 13541 bound_to 2779

> <Gold.Score>
     Fitness  S(hb_ext) S(vdw_ext)  S(hb_int)    S(int)      intcor
     23.15       2.31      15.97       0.00      -1.12      -0.78

> <Gold.Goldscore.Fitness>
23.1521

> <Gold.Goldscore.Internal.Vdw>
-1.3976

> <Gold.Goldscore.Internal.Torsion>
-0.4945

> <Gold.Goldscore.External.Vdw>
15.9729

> <Gold.Goldscore.Internal.HBond>
0.0000

> <Gold.Goldscore.External.HBond>
2.3062

> <Gold.Goldscore.Internal.Correction>
-0.7752

> <Gold.Goldscore.Hbonds>
donor molecule, donor type, donor heavy atom, donor atom, acceptor molecule, acceptor atom, score
      P1  H  2698  2710       L1    17  0.06
      L1  H     8    22       P1  1412  0.97
      L1  H    10    23       P1  2565  0.04

> <Gold.Goldscore.Internal.Vdw.Weighted>
-1.3976

> <Gold.Goldscore.Internal.Torsion.Weighted>
-0.4945

> <Gold.Goldscore.External.Vdw.Weighted>
21.9627

> <Gold.Goldscore.Internal.HBond.Weighted>
0.0000

> <Gold.Goldscore.External.HBond.Weighted>
2.3062

> <Gold.Goldscore.Internal.Correction.Weighted>
-0.7752

> <Gold.Rescore>
     Score     S(PLP)   S(hbond)     S(cho)   S(metal)  DE(clash)   DE(tors)     intcor
     18.19     -15.89       1.48       0.00       0.00       0.00       1.07       ----

> <Gold.PLP.Fitness>
18.1904

> <Gold.PLP.PLP>
-15.8870

> <Gold.PLP.part.hbond>
-2.8194

> <Gold.PLP.part.metal>
0.0000

> <Gold.PLP.part.buried>
-0.9933

> <Gold.PLP.part.nonpolar>
-14.5165

> <Gold.PLP.part.repulsive>
1.7107

> <Gold.PLP.ligand.clash>
0.0000

> <Gold.PLP.ligand.torsion>
1.0683

> <Gold.PLP.Chemscore.Hbond>
1.4800

> <Gold.PLP.Chemscore.CHOScore>
0.0000

> <Gold.PLP.Chemscore.Metal>
0.0000

> <Gold.Chemscore.Hbonds>
donor molecule, donor type, donor heavy atom, donor atom, acceptor molecule, acceptor atom, score
      L1  H     8    22       P1  1412  1.00
      L1  H    10    23       P1  2565  0.45

> <Gold.PLP.Chemscore.Internal.Correction>
   9.000000E+99

#       Name:                CT1002167954
#       Creating user name   hitesit
#       Creation time:       Sun Apr 16 22:53:07 2023


#       File generated by GOLD software.
#

@<TRIPOS>MOLECULE
CT1002167954|ligand_prepared|mol2|1|dock2
    29    30     1
SMALL
NO_CHARGES


@<TRIPOS>ATOM
      1 C1         112.3283 281.5032 313.0988 C.3            1 RES1               0.0000
      2 C2         113.7407 281.8334 313.6231 C.ar           1 RES1               0.0000
      3 C3         112.5016 281.0656 311.6473 C.2            1 RES1               0.0000
      4 C4         111.7765 280.4164 314.0147 C.2            1 RES1               0.0000
      5 C5         111.3517 282.7017 313.1372 C.3            1 RES1               0.0000
      6 C6         114.4471 282.9215 313.1194 C.ar           1 RES1               0.0000
      7 C7         114.3482 281.0620 314.6103 C.ar           1 RES1               0.0000
      8 N8         112.3680 279.7375 311.3676 N.am           1 RES1               0.0000
      9 O9         112.7901 281.8680 310.7680 O.2            1 RES1               0.0000
     10 N10        111.5477 279.1775 313.4756 N.am           1 RES1               0.0000
     11 O11        111.5535 280.6170 315.2022 O.2            1 RES1               0.0000
     12 C12        109.9659 282.3808 312.5997 C.3            1 RES1               0.0000
     13 C13        115.7138 283.2292 313.5878 C.ar           1 RES1               0.0000
     14 C14        115.6151 281.3713 315.0770 C.ar           1 RES1               0.0000
     15 C15        111.8474 278.7803 312.2009 C.2            1 RES1               0.0000
     16 C16        116.2984 282.4547 314.5671 C.ar           1 RES1               0.0000
     17 O17        111.6625 277.6329 311.8055 O.2            1 RES1               0.0000
     18 H18        111.2570 283.0469 314.1741 H              1 RES1               0.0000
     19 H19        111.7774 283.5232 312.5479 H              1 RES1               0.0000
     20 H20        114.0043 283.5410 312.3467 H              1 RES1               0.0000
     21 H21        113.8298 280.2043 315.0253 H              1 RES1               0.0000
     22 H22        112.6846 279.4273 310.4545 H              1 RES1               0.0000
     23 H23        111.1137 278.4875 314.0804 H              1 RES1               0.0000
     24 H24        109.3208 283.2555 312.6494 H              1 RES1               0.0000
     25 H25        110.0198 282.0580 311.5621 H              1 RES1               0.0000
     26 H26        109.5025 281.5846 313.1787 H              1 RES1               0.0000
     27 H27        116.2479 284.0821 313.1822 H              1 RES1               0.0000
     28 H28        116.0716 280.7586 315.8474 H              1 RES1               0.0000
     29 H29        117.2904 282.6962 314.9340 H              1 RES1               0.0000
@<TRIPOS>BOND
    1    1    2 1     
    2    1    3 1     
    3    1    4 1     
    4    1    5 1     
    5    2    6 ar    
    6    2    7 ar    
    7    3    8 1     
    8    3    9 2     
    9    4   10 1     
   10    4   11 2     
   11    5   12 1     
   12    5   18 1     
   13    5   19 1     
   14    6   13 ar    
   15    6   20 1     
   16    7   14 ar    
   17    7   21 1     
   18    8   15 1     
   19    8   22 1     
   20   10   15 1     
   21   10   23 1     
   22   12   24 1     
   23   12   25 1     
   24   12   26 1     
   25   13   16 ar    
   26   13   27 1     
   27   14   16 ar    
   28   14   28 1     
   29   15   17 2     
   30   16   29 1     
@<TRIPOS>SUBSTRUCTURE
      1 RES1           1
@<TRIPOS>SET
DONOR_HYDROGENS      STATIC     ATOMS    <user>   **** ""
2 22 23
ATOM$RED        STATIC     ATOMS    COLORGROUP SYSTEM
2 22 23
@<TRIPOS>COMMENT
> <Gold.Version>
2022.3.0

> <Gold.Id.Protein>
unknown|5adg_clean|pdb

> <Gold.Protein.RotatedTorsions>
[ 1394 1385 1383 1380 ] final  149.46 input   60.03 | X-H torsion
[ 1425 1409 1410 1411 ] final   79.82 input  129.35 | X-H torsion
[ 1462 1452 1453 1454 ] final    4.69 input  108.99 | X-H torsion
[ 1488 1477 1478 1479 ] final  146.40 input  100.07 | X-H torsion
[ 1521 1510 1511 1512 ] final  165.44 input  113.76 | X-H torsion
[ 1570 1551 1552 1553 ] final  -42.53 input  123.58 | X-H torsion
[ 1707 1683 1682 1681 ] final  -63.90 input   60.00 | X-H torsion
[ 2445 2428 2429 2430 ] final   90.43 input  119.94 | X-H torsion
[ 2478 2467 2468 2469 ] final   52.96 input  117.54 | X-H torsion
[ 2333 2316 2317 2318 ] final   82.07 input  118.58 | X-H torsion
[ 2366 2351 2352 2353 ] final  163.66 input  116.99 | X-H torsion
[ 2407 2383 2384 2385 ] final   38.17 input  115.65 | X-H torsion
[ 2510 2497 2498 2499 ] final  -17.83 input  121.55 | X-H torsion
[ 2572 2558 2559 2560 ] final  -39.37 input  118.05 | X-H torsion
[ 2541 2525 2526 2527 ] final   75.35 input  116.25 | X-H torsion
[ 2611 2587 2588 2589 ] final -159.27 input  123.81 | X-H torsion
[ 2710 2698 2699 2700 ] final  132.28 input  119.89 | X-H torsion
[ 2679 2660 2661 2662 ] final   56.84 input  116.13 | X-H torsion
[ 2646 2631 2632 2633 ] final   33.94 input  117.28 | X-H torsion
[ 2736 2721 2722 2723 ] final   47.14 input   88.34 | X-H torsion
[ 2782 2776 2777 2778 ] final  178.86 input -114.77 | X-H torsion
[ 2619 2595 2594 2593 ] final -170.88 input   60.00 | X-H torsion
[ 1697 1675 1676 1677 ] final  101.40 input  120.12 | X-H torsion
[ 1635 1616 1617 1618 ] final  -37.03 input  110.97 | X-H torsion
[ 2757 2749 2750 2751 ] final -131.03 input   47.81 | X-H torsion
[ 13465 1382 1381 1380 ] final   57.31 input    0.00 | X-H torsion
[ 13470 1412 1411 1410 ] final  -76.59 input    0.00 | X-H torsion
[ 13473 1455 1454 1453 ] final -143.74 input   -0.00 | X-H torsion
[ 13480 1480 1479 1478 ] final  174.18 input   -0.00 | X-H torsion
[ 13484 1554 1553 1552 ] final  119.32 input    0.00 | X-H torsion
[ 13496 2319 2318 2317 ] final -146.07 input   -0.00 | X-H torsion
[ 13499 2431 2430 2429 ] final   13.93 input    0.00 | X-H torsion
[ 13504 2287 2286 2285 ] final   16.46 input   -0.00 | X-H torsion
[ 13508 2354 2353 2352 ] final  102.59 input    0.00 | X-H torsion
[ 13511 2386 2385 2384 ] final  -15.77 input    0.00 | X-H torsion
[ 13513 2470 2469 2468 ] final -147.81 input   -0.00 | X-H torsion
[ 13521 2528 2527 2526 ] final  171.31 input    0.00 | X-H torsion
[ 13523 2561 2560 2559 ] final    8.40 input   -0.00 | X-H torsion
[ 13527 2663 2662 2661 ] final    8.15 input    0.00 | X-H torsion
[ 13529 2590 2589 2588 ] final   82.81 input   -0.00 | X-H torsion
[ 13532 2701 2700 2699 ] final   25.14 input    0.00 | X-H torsion
[ 13535 1513 1512 1511 ] final  -18.41 input    0.00 | X-H torsion
[ 13537 2634 2633 2632 ] final  116.48 input    0.00 | X-H torsion
[ 13540 2779 2778 2777 ] final   57.54 input    0.00 | X-H torsion

> <Gold.Protein.ActiveResidues>
 THR355  LYS356  ASP357  GLN358  LEU359  PHE360  PRO361  LEU362  ALA363  LYS364 
 ASP368  PHE377  GLY378  HIS382  MET383  GLU384  ARG385  LEU386  GLU387  GLU388 
 VAL389  ASN390  LYS391  GLU392  ILE393  ASP394  THR395  THR396  SER397 

> <Gold.Protein.RotatedAtoms>
  105.3977  276.4448  317.6297 H   0  0  0  0  0  0  0  0  0  0  0  0  # atno 1394 bound_to 1385
  106.1818  275.9520  314.2976 H   0  0  0  0  0  0  0  0  0  0  0  0  # atno 1425 bound_to 1409
  108.2197  276.2853  315.8315 H   0  0  0  0  0  0  0  0  0  0  0  0  # atno 1462 bound_to 1452
  107.7348  276.0954  318.2075 H   0  0  0  0  0  0  0  0  0  0  0  0  # atno 1488 bound_to 1477
  109.2999  273.8725  316.9450 H   0  0  0  0  0  0  0  0  0  0  0  0  # atno 1521 bound_to 1510
  112.6406  274.1985  316.2110 H   0  0  0  0  0  0  0  0  0  0  0  0  # atno 1570 bound_to 1551
  115.8266  274.2051  318.7833 H   0  0  0  0  0  0  0  0  0  0  0  0  # atno 1635 bound_to 1616
  117.6156  274.1191  316.9116 H   0  0  0  0  0  0  0  0  0  0  0  0  # atno 1697 bound_to 1675
  122.2189  278.3777  320.0806 H   0  0  0  0  0  0  0  0  0  0  0  0  # atno 1707 bound_to 1683
  122.8154  277.4037  318.8798 H   0  0  0  0  0  0  0  0  0  0  0  0  # atno 1708 bound_to 1683
  123.4915  278.8925  319.1518 H   0  0  0  0  0  0  0  0  0  0  0  0  # atno 1709 bound_to 1683
  128.3603  277.8267  310.3686 H   0  0  0  0  0  0  0  0  0  0  0  0  # atno 2333 bound_to 2316
  127.1694  278.7782  308.3126 H   0  0  0  0  0  0  0  0  0  0  0  0  # atno 2366 bound_to 2351
  124.9283  276.6582  308.8641 H   0  0  0  0  0  0  0  0  0  0  0  0  # atno 2407 bound_to 2383
  123.7192  276.7941  310.0195 H   0  0  0  0  0  0  0  0  0  0  0  0  # atno 2445 bound_to 2428
  122.0153  277.8459  308.8783 H   0  0  0  0  0  0  0  0  0  0  0  0  # atno 2478 bound_to 2467
  119.9353  277.7452  307.6811 H   0  0  0  0  0  0  0  0  0  0  0  0  # atno 2510 bound_to 2497
  119.4508  275.9672  308.3631 H   0  0  0  0  0  0  0  0  0  0  0  0  # atno 2541 bound_to 2525
  116.6805  276.1363  308.7189 H   0  0  0  0  0  0  0  0  0  0  0  0  # atno 2572 bound_to 2558
  116.0521  279.2902  307.7124 H   0  0  0  0  0  0  0  0  0  0  0  0  # atno 2611 bound_to 2587
  119.8881  282.4498  303.3396 H   0  0  0  0  0  0  0  0  0  0  0  0  # atno 2619 bound_to 2595
  119.7461  281.0286  304.1813 H   0  0  0  0  0  0  0  0  0  0  0  0  # atno 2620 bound_to 2595
  119.8648  281.0044  302.5275 H   0  0  0  0  0  0  0  0  0  0  0  0  # atno 2621 bound_to 2595
  114.5647  276.6638  306.8687 H   0  0  0  0  0  0  0  0  0  0  0  0  # atno 2646 bound_to 2631
  113.2785  276.1038  307.6565 H   0  0  0  0  0  0  0  0  0  0  0  0  # atno 2679 bound_to 2660
  112.0392  277.6612  308.0244 H   0  0  0  0  0  0  0  0  0  0  0  0  # atno 2710 bound_to 2698
  110.4555  276.7865  305.6918 H   0  0  0  0  0  0  0  0  0  0  0  0  # atno 2736 bound_to 2721
  108.5269  275.6248  304.1308 H   0  0  0  0  0  0  0  0  0  0  0  0  # atno 2757 bound_to 2749
  107.3684  274.7131  306.7365 H   0  0  0  0  0  0  0  0  0  0  0  0  # atno 2782 bound_to 2776
  108.2633  273.2456  315.8430 LP  0  0  0  0  0  0  0  0  0  0  0  0  # atno 13465 bound_to 1382
  108.5672  274.9065  316.2293 LP  0  0  0  0  0  0  0  0  0  0  0  0  # atno 13466 bound_to 1382
  106.6040  275.4355  317.2126 LP  0  0  0  0  0  0  0  0  0  0  0  0  # atno 13467 bound_to 1385
  105.4403  274.9391  318.2451 LP  0  0  0  0  0  0  0  0  0  0  0  0  # atno 13468 bound_to 1385
  107.0130  274.4127  314.2761 LP  0  0  0  0  0  0  0  0  0  0  0  0  # atno 13469 bound_to 1409
  110.6911  275.9379  315.2592 LP  0  0  0  0  0  0  0  0  0  0  0  0  # atno 13470 bound_to 1412
  110.7011  277.5994  314.7697 LP  0  0  0  0  0  0  0  0  0  0  0  0  # atno 13471 bound_to 1412
  107.7705  277.7829  315.0414 LP  0  0  0  0  0  0  0  0  0  0  0  0  # atno 13472 bound_to 1452
  111.0086  276.7939  318.8570 LP  0  0  0  0  0  0  0  0  0  0  0  0  # atno 13473 bound_to 1455
  110.3786  278.4054  318.9366 LP  0  0  0  0  0  0  0  0  0  0  0  0  # atno 13474 bound_to 1455
  109.3077  276.4081  317.5123 LP  0  0  0  0  0  0  0  0  0  0  0  0  # atno 13479 bound_to 1477
  112.1758  273.3294  318.4592 LP  0  0  0  0  0  0  0  0  0  0  0  0  # atno 13480 bound_to 1480
  111.5755  274.0877  319.8961 LP  0  0  0  0  0  0  0  0  0  0  0  0  # atno 13481 bound_to 1480
  110.6455  274.7772  317.5998 LP  0  0  0  0  0  0  0  0  0  0  0  0  # atno 13482 bound_to 1510
  111.9673  275.5606  315.3550 LP  0  0  0  0  0  0  0  0  0  0  0  0  # atno 13483 bound_to 1551
  116.9988  275.6402  316.7330 LP  0  0  0  0  0  0  0  0  0  0  0  0  # atno 13484 bound_to 1554
  116.3056  274.1282  316.2502 LP  0  0  0  0  0  0  0  0  0  0  0  0  # atno 13485 bound_to 1554
  123.8366  278.5581  308.9737 LP  0  0  0  0  0  0  0  0  0  0  0  0  # atno 13496 bound_to 2319
  124.1929  279.8633  310.0551 LP  0  0  0  0  0  0  0  0  0  0  0  0  # atno 13497 bound_to 2319
  122.7384  275.3711  309.7536 LP  0  0  0  0  0  0  0  0  0  0  0  0  # atno 13498 bound_to 2428
  119.2340  277.0530  311.0283 LP  0  0  0  0  0  0  0  0  0  0  0  0  # atno 13499 bound_to 2431
  118.9856  277.9166  309.5476 LP  0  0  0  0  0  0  0  0  0  0  0  0  # atno 13500 bound_to 2431
  121.3059  278.6784  310.2427 LP  0  0  0  0  0  0  0  0  0  0  0  0  # atno 13501 bound_to 2467
  125.5575  275.4830  311.5725 LP  0  0  0  0  0  0  0  0  0  0  0  0  # atno 13504 bound_to 2287
  125.1701  276.9855  310.8029 LP  0  0  0  0  0  0  0  0  0  0  0  0  # atno 13505 bound_to 2287
  127.2670  277.1376  311.5469 LP  0  0  0  0  0  0  0  0  0  0  0  0  # atno 13506 bound_to 2316
  125.9260  278.0009  309.2627 LP  0  0  0  0  0  0  0  0  0  0  0  0  # atno 13507 bound_to 2351
  123.0899  276.5784  306.0524 LP  0  0  0  0  0  0  0  0  0  0  0  0  # atno 13508 bound_to 2354
  122.6531  277.7502  307.2507 LP  0  0  0  0  0  0  0  0  0  0  0  0  # atno 13509 bound_to 2354
  125.2460  276.0050  307.2759 LP  0  0  0  0  0  0  0  0  0  0  0  0  # atno 13510 bound_to 2383
  121.2626  274.6643  307.9834 LP  0  0  0  0  0  0  0  0  0  0  0  0  # atno 13511 bound_to 2386
  120.6890  275.2496  309.5093 LP  0  0  0  0  0  0  0  0  0  0  0  0  # atno 13512 bound_to 2386
  117.9796  277.9285  306.9099 LP  0  0  0  0  0  0  0  0  0  0  0  0  # atno 13513 bound_to 2470
  118.2925  279.6238  307.0770 LP  0  0  0  0  0  0  0  0  0  0  0  0  # atno 13514 bound_to 2470
  121.3864  277.7175  306.7046 LP  0  0  0  0  0  0  0  0  0  0  0  0  # atno 13517 bound_to 2497
  117.8992  277.0264  309.6015 LP  0  0  0  0  0  0  0  0  0  0  0  0  # atno 13518 bound_to 2558
  118.9178  275.1282  306.9233 LP  0  0  0  0  0  0  0  0  0  0  0  0  # atno 13519 bound_to 2525
  115.7691  277.5668  307.6040 LP  0  0  0  0  0  0  0  0  0  0  0  0  # atno 13520 bound_to 2587
  114.6894  275.9506  309.1978 LP  0  0  0  0  0  0  0  0  0  0  0  0  # atno 13521 bound_to 2528
  115.1891  274.4426  308.5076 LP  0  0  0  0  0  0  0  0  0  0  0  0  # atno 13522 bound_to 2528
  113.4334  278.2021  309.4648 LP  0  0  0  0  0  0  0  0  0  0  0  0  # atno 13523 bound_to 2561
  113.2278  278.3135  307.7486 LP  0  0  0  0  0  0  0  0  0  0  0  0  # atno 13524 bound_to 2561
  110.7028  276.5337  308.0102 LP  0  0  0  0  0  0  0  0  0  0  0  0  # atno 13525 bound_to 2698
  113.0144  274.4164  307.2946 LP  0  0  0  0  0  0  0  0  0  0  0  0  # atno 13526 bound_to 2660
  109.0621  275.1875  308.7609 LP  0  0  0  0  0  0  0  0  0  0  0  0  # atno 13527 bound_to 2663
  108.7194  276.6882  307.9669 LP  0  0  0  0  0  0  0  0  0  0  0  0  # atno 13528 bound_to 2663
  112.5978  277.8616  304.4365 LP  0  0  0  0  0  0  0  0  0  0  0  0  # atno 13529 bound_to 2590
  112.0807  277.6588  306.0771 LP  0  0  0  0  0  0  0  0  0  0  0  0  # atno 13530 bound_to 2590
  115.0029  276.8351  305.1839 LP  0  0  0  0  0  0  0  0  0  0  0  0  # atno 13531 bound_to 2631
  107.7158  279.1505  306.8531 LP  0  0  0  0  0  0  0  0  0  0  0  0  # atno 13532 bound_to 2701
  107.4293  277.8376  305.7603 LP  0  0  0  0  0  0  0  0  0  0  0  0  # atno 13533 bound_to 2701
  109.7464  278.3872  305.7431 LP  0  0  0  0  0  0  0  0  0  0  0  0  # atno 13534 bound_to 2721
  113.4602  272.2914  316.9607 LP  0  0  0  0  0  0  0  0  0  0  0  0  # atno 13535 bound_to 1513
  114.5053  273.3660  316.0928 LP  0  0  0  0  0  0  0  0  0  0  0  0  # atno 13536 bound_to 1513
  111.1253  273.6977  306.3437 LP  0  0  0  0  0  0  0  0  0  0  0  0  # atno 13537 bound_to 2634
  111.0501  275.1198  305.3578 LP  0  0  0  0  0  0  0  0  0  0  0  0  # atno 13538 bound_to 2634
  108.5990  273.4652  306.7533 LP  0  0  0  0  0  0  0  0  0  0  0  0  # atno 13539 bound_to 2776
  106.9927  271.6522  310.4601 LP  0  0  0  0  0  0  0  0  0  0  0  0  # atno 13540 bound_to 2779
  108.5813  271.9863  311.0642 LP  0  0  0  0  0  0  0  0  0  0  0  0  # atno 13541 bound_to 2779

> <Gold.Score>
     Fitness  S(hb_ext) S(vdw_ext)  S(hb_int)    S(int)      intcor
     22.33       2.93      15.74       0.00      -2.24      -0.86

> <Gold.Goldscore.Fitness>
22.3349

> <Gold.Goldscore.Internal.Vdw>
-2.7341

> <Gold.Goldscore.Internal.Torsion>
-0.3684

> <Gold.Goldscore.External.Vdw>
15.7431

> <Gold.Goldscore.Internal.HBond>
0.0000

> <Gold.Goldscore.External.HBond>
2.9324

> <Gold.Goldscore.Internal.Correction>
-0.8582

> <Gold.Goldscore.Hbonds>
donor molecule, donor type, donor heavy atom, donor atom, acceptor molecule, acceptor atom, score
      L1  H     8    22       P1  2561  0.58
      L1  H    10    23       P1  1412  0.89

> <Gold.Goldscore.Internal.Vdw.Weighted>
-2.7341

> <Gold.Goldscore.Internal.Torsion.Weighted>
-0.3684

> <Gold.Goldscore.External.Vdw.Weighted>
21.6468

> <Gold.Goldscore.Internal.HBond.Weighted>
0.0000

> <Gold.Goldscore.External.HBond.Weighted>
2.9324

> <Gold.Goldscore.Internal.Correction.Weighted>
-0.8582

> <Gold.Rescore>
     Score     S(PLP)   S(hbond)     S(cho)   S(metal)  DE(clash)   DE(tors)     intcor
     27.92     -24.49       1.93       0.00       0.00       0.42       0.97       ----

> <Gold.PLP.Fitness>
27.9216

> <Gold.PLP.PLP>
-24.4921

> <Gold.PLP.part.hbond>
-2.0000

> <Gold.PLP.part.metal>
0.0000

> <Gold.PLP.part.buried>
-4.8942

> <Gold.PLP.part.nonpolar>
-19.9477

> <Gold.PLP.part.repulsive>
0.5464

> <Gold.PLP.ligand.clash>
0.4213

> <Gold.PLP.ligand.torsion>
0.9666

> <Gold.PLP.Chemscore.Hbond>
1.9280

> <Gold.PLP.Chemscore.CHOScore>
0.0000

> <Gold.PLP.Chemscore.Metal>
0.0000

> <Gold.Chemscore.Hbonds>
donor molecule, donor type, donor heavy atom, donor atom, acceptor molecule, acceptor atom, score
      L1  H    10    23       P1  1412  0.86
      P1  H  2564  2576       L1     9  0.01

> <Gold.PLP.Chemscore.Internal.Correction>
   9.000000E+99

#       Name:                CT1002167954
#       Creating user name   hitesit
#       Creation time:       Sun Apr 16 22:53:08 2023


#       File generated by GOLD software.
#

@<TRIPOS>MOLECULE
CT1002167954|ligand_prepared|mol2|1|dock4
    29    30     1
SMALL
NO_CHARGES


@<TRIPOS>ATOM
      1 C1         112.1482 281.3251 313.7516 C.3            1 RES1               0.0000
      2 C2         110.8920 282.2116 313.8737 C.ar           1 RES1               0.0000
      3 C3         111.7927 279.9874 314.3938 C.2            1 RES1               0.0000
      4 C4         112.4643 281.2359 312.2627 C.2            1 RES1               0.0000
      5 C5         113.3910 281.9001 314.4702 C.3            1 RES1               0.0000
      6 C6         110.8634 283.2813 314.7635 C.ar           1 RES1               0.0000
      7 C7         109.7572 281.9741 313.1028 C.ar           1 RES1               0.0000
      8 N8         111.5788 278.9256 313.5650 N.am           1 RES1               0.0000
      9 O9         111.6631 279.8752 315.6066 O.2            1 RES1               0.0000
     10 N10        112.3503 280.0134 311.6542 N.am           1 RES1               0.0000
     11 O11        112.7950 282.2165 311.6074 O.2            1 RES1               0.0000
     12 C12        114.6733 281.1345 314.1846 C.3            1 RES1               0.0000
     13 C13        109.7420 284.0863 314.8764 C.ar           1 RES1               0.0000
     14 C14        108.6367 282.7803 313.2174 C.ar           1 RES1               0.0000
     15 C15        111.8922 278.8604 312.2311 C.2            1 RES1               0.0000
     16 C16        108.6282 283.8367 314.1032 C.ar           1 RES1               0.0000
     17 O17        111.7661 277.8124 311.6042 O.2            1 RES1               0.0000
     18 H18        113.5265 282.9437 314.1608 H              1 RES1               0.0000
     19 H19        113.2086 281.8921 315.5519 H              1 RES1               0.0000
     20 H20        111.7296 283.4916 315.3819 H              1 RES1               0.0000
     21 H21        109.7409 281.1480 312.4000 H              1 RES1               0.0000
     22 H22        111.1457 278.1042 313.9749 H              1 RES1               0.0000
     23 H23        112.6333 279.9578 310.6810 H              1 RES1               0.0000
     24 H24        115.5140 281.5793 314.7130 H              1 RES1               0.0000
     25 H25        114.5829 280.0981 314.5032 H              1 RES1               0.0000
     26 H26        114.8990 281.1434 313.1203 H              1 RES1               0.0000
     27 H27        109.7399 284.9156 315.5760 H              1 RES1               0.0000
     28 H28        107.7621 282.5798 312.6074 H              1 RES1               0.0000
     29 H29        107.7500 284.4677 314.1916 H              1 RES1               0.0000
@<TRIPOS>BOND
    1    1    2 1     
    2    1    3 1     
    3    1    4 1     
    4    1    5 1     
    5    2    6 ar    
    6    2    7 ar    
    7    3    8 1     
    8    3    9 2     
    9    4   10 1     
   10    4   11 2     
   11    5   12 1     
   12    5   18 1     
   13    5   19 1     
   14    6   13 ar    
   15    6   20 1     
   16    7   14 ar    
   17    7   21 1     
   18    8   15 1     
   19    8   22 1     
   20   10   15 1     
   21   10   23 1     
   22   12   24 1     
   23   12   25 1     
   24   12   26 1     
   25   13   16 ar    
   26   13   27 1     
   27   14   16 ar    
   28   14   28 1     
   29   15   17 2     
   30   16   29 1     
@<TRIPOS>SUBSTRUCTURE
      1 RES1           1
@<TRIPOS>SET
DONOR_HYDROGENS      STATIC     ATOMS    <user>   **** ""
2 22 23
ATOM$RED        STATIC     ATOMS    COLORGROUP SYSTEM
2 22 23
@<TRIPOS>COMMENT
> <Gold.Version>
2022.3.0

> <Gold.Id.Protein>
unknown|5adg_clean|pdb

> <Gold.Protein.RotatedTorsions>
[ 1394 1385 1383 1380 ] final  -88.48 input   60.03 | X-H torsion
[ 1425 1409 1410 1411 ] final  159.17 input  129.35 | X-H torsion
[ 1462 1452 1453 1454 ] final  105.93 input  108.99 | X-H torsion
[ 1488 1477 1478 1479 ] final   10.76 input  100.07 | X-H torsion
[ 1521 1510 1511 1512 ] final   68.82 input  113.76 | X-H torsion
[ 1570 1551 1552 1553 ] final  160.81 input  123.58 | X-H torsion
[ 1707 1683 1682 1681 ] final -145.49 input   60.00 | X-H torsion
[ 2445 2428 2429 2430 ] final  161.93 input  119.94 | X-H torsion
[ 2478 2467 2468 2469 ] final  -33.93 input  117.54 | X-H torsion
[ 2333 2316 2317 2318 ] final    4.46 input  118.58 | X-H torsion
[ 2366 2351 2352 2353 ] final  -78.96 input  116.99 | X-H torsion
[ 2407 2383 2384 2385 ] final -132.89 input  115.65 | X-H torsion
[ 2510 2497 2498 2499 ] final   93.16 input  121.55 | X-H torsion
[ 2572 2558 2559 2560 ] final  -68.84 input  118.05 | X-H torsion
[ 2541 2525 2526 2527 ] final -121.26 input  116.25 | X-H torsion
[ 2611 2587 2588 2589 ] final  -14.65 input  123.81 | X-H torsion
[ 2710 2698 2699 2700 ] final  176.00 input  119.89 | X-H torsion
[ 2679 2660 2661 2662 ] final  -72.17 input  116.13 | X-H torsion
[ 2646 2631 2632 2633 ] final  -90.84 input  117.28 | X-H torsion
[ 2736 2721 2722 2723 ] final  -83.21 input   88.34 | X-H torsion
[ 2782 2776 2777 2778 ] final -167.07 input -114.77 | X-H torsion
[ 2619 2595 2594 2593 ] final -144.11 input   60.00 | X-H torsion
[ 1697 1675 1676 1677 ] final -158.15 input  120.12 | X-H torsion
[ 1635 1616 1617 1618 ] final  100.90 input  110.97 | X-H torsion
[ 2757 2749 2750 2751 ] final -174.33 input   47.81 | X-H torsion
[ 13465 1382 1381 1380 ] final  167.40 input    0.00 | X-H torsion
[ 13470 1412 1411 1410 ] final  -78.16 input    0.00 | X-H torsion
[ 13473 1455 1454 1453 ] final -164.11 input   -0.00 | X-H torsion
[ 13480 1480 1479 1478 ] final -117.43 input   -0.00 | X-H torsion
[ 13484 1554 1553 1552 ] final  110.67 input    0.00 | X-H torsion
[ 13496 2319 2318 2317 ] final  -50.02 input   -0.00 | X-H torsion
[ 13499 2431 2430 2429 ] final   30.55 input    0.00 | X-H torsion
[ 13504 2287 2286 2285 ] final  165.58 input   -0.00 | X-H torsion
[ 13508 2354 2353 2352 ] final  157.96 input    0.00 | X-H torsion
[ 13511 2386 2385 2384 ] final  111.42 input    0.00 | X-H torsion
[ 13513 2470 2469 2468 ] final  -61.94 input   -0.00 | X-H torsion
[ 13521 2528 2527 2526 ] final   40.86 input    0.00 | X-H torsion
[ 13523 2561 2560 2559 ] final -162.18 input   -0.00 | X-H torsion
[ 13527 2663 2662 2661 ] final    2.72 input    0.00 | X-H torsion
[ 13529 2590 2589 2588 ] final  154.79 input   -0.00 | X-H torsion
[ 13532 2701 2700 2699 ] final   46.36 input    0.00 | X-H torsion
[ 13535 1513 1512 1511 ] final    1.47 input    0.00 | X-H torsion
[ 13537 2634 2633 2632 ] final   75.00 input    0.00 | X-H torsion
[ 13540 2779 2778 2777 ] final  -65.64 input    0.00 | X-H torsion

> <Gold.Protein.ActiveResidues>
 THR355  LYS356  ASP357  GLN358  LEU359  PHE360  PRO361  LEU362  ALA363  LYS364 
 ASP368  PHE377  GLY378  HIS382  MET383  GLU384  ARG385  LEU386  GLU387  GLU388 
 VAL389  ASN390  LYS391  GLU392  ILE393  ASP394  THR395  THR396  SER397 

> <Gold.Protein.RotatedAtoms>
  105.4669  274.9227  318.2305 H   0  0  0  0  0  0  0  0  0  0  0  0  # atno 1394 bound_to 1385
  106.3090  275.2096  313.4497 H   0  0  0  0  0  0  0  0  0  0  0  0  # atno 1425 bound_to 1409
  107.1581  277.1613  315.7307 H   0  0  0  0  0  0  0  0  0  0  0  0  # atno 1462 bound_to 1452
  108.9989  275.9284  317.1803 H   0  0  0  0  0  0  0  0  0  0  0  0  # atno 1488 bound_to 1477
  110.0021  274.9544  316.6470 H   0  0  0  0  0  0  0  0  0  0  0  0  # atno 1521 bound_to 1510
  112.0024  275.3307  315.0891 H   0  0  0  0  0  0  0  0  0  0  0  0  # atno 1570 bound_to 1551
  114.2448  273.7635  318.6413 H   0  0  0  0  0  0  0  0  0  0  0  0  # atno 1635 bound_to 1616
  118.0150  273.9048  315.6260 H   0  0  0  0  0  0  0  0  0  0  0  0  # atno 1697 bound_to 1675
  123.1365  279.0966  319.6300 H   0  0  0  0  0  0  0  0  0  0  0  0  # atno 1707 bound_to 1683
  122.1109  277.8103  319.8294 H   0  0  0  0  0  0  0  0  0  0  0  0  # atno 1708 bound_to 1683
  123.2775  277.7654  318.6526 H   0  0  0  0  0  0  0  0  0  0  0  0  # atno 1709 bound_to 1683
  127.5206  277.1166  310.2078 H   0  0  0  0  0  0  0  0  0  0  0  0  # atno 2333 bound_to 2316
  125.8855  278.8931  309.0987 H   0  0  0  0  0  0  0  0  0  0  0  0  # atno 2366 bound_to 2351
  125.1488  276.0827  307.2183 H   0  0  0  0  0  0  0  0  0  0  0  0  # atno 2407 bound_to 2383
  123.7040  275.9493  310.6180 H   0  0  0  0  0  0  0  0  0  0  0  0  # atno 2445 bound_to 2428
  121.0344  277.6362  309.5700 H   0  0  0  0  0  0  0  0  0  0  0  0  # atno 2478 bound_to 2467
  121.2281  277.0981  307.4621 H   0  0  0  0  0  0  0  0  0  0  0  0  # atno 2510 bound_to 2497
  119.0640  274.9336  306.9966 H   0  0  0  0  0  0  0  0  0  0  0  0  # atno 2541 bound_to 2525
  116.6518  275.9819  309.1413 H   0  0  0  0  0  0  0  0  0  0  0  0  # atno 2572 bound_to 2558
  115.3515  277.7577  307.8737 H   0  0  0  0  0  0  0  0  0  0  0  0  # atno 2611 bound_to 2587
  119.8513  282.3536  303.7708 H   0  0  0  0  0  0  0  0  0  0  0  0  # atno 2619 bound_to 2595
  119.7495  280.7026  303.8812 H   0  0  0  0  0  0  0  0  0  0  0  0  # atno 2620 bound_to 2595
  119.8983  281.4266  302.3968 H   0  0  0  0  0  0  0  0  0  0  0  0  # atno 2621 bound_to 2595
  114.3007  277.1752  305.4055 H   0  0  0  0  0  0  0  0  0  0  0  0  # atno 2646 bound_to 2631
  112.6465  274.8917  306.8434 H   0  0  0  0  0  0  0  0  0  0  0  0  # atno 2679 bound_to 2660
  111.7359  277.6324  308.6093 H   0  0  0  0  0  0  0  0  0  0  0  0  # atno 2710 bound_to 2698
  109.3126  277.8759  306.0475 H   0  0  0  0  0  0  0  0  0  0  0  0  # atno 2736 bound_to 2721
  109.1200  275.3876  303.9830 H   0  0  0  0  0  0  0  0  0  0  0  0  # atno 2757 bound_to 2749
  107.5313  274.8371  306.8143 H   0  0  0  0  0  0  0  0  0  0  0  0  # atno 2782 bound_to 2776
  108.9124  274.4373  315.4259 LP  0  0  0  0  0  0  0  0  0  0  0  0  # atno 13465 bound_to 1382
  107.9181  273.7148  316.6463 LP  0  0  0  0  0  0  0  0  0  0  0  0  # atno 13466 bound_to 1382
  105.3720  276.4407  317.6524 LP  0  0  0  0  0  0  0  0  0  0  0  0  # atno 13467 bound_to 1385
  106.6025  275.4671  317.2001 LP  0  0  0  0  0  0  0  0  0  0  0  0  # atno 13468 bound_to 1385
  106.8896  275.1325  315.0983 LP  0  0  0  0  0  0  0  0  0  0  0  0  # atno 13469 bound_to 1409
  110.6896  275.9450  315.2819 LP  0  0  0  0  0  0  0  0  0  0  0  0  # atno 13470 bound_to 1412
  110.7026  277.5923  314.7471 LP  0  0  0  0  0  0  0  0  0  0  0  0  # atno 13471 bound_to 1412
  108.7918  276.9401  315.1384 LP  0  0  0  0  0  0  0  0  0  0  0  0  # atno 13472 bound_to 1452
  110.8478  276.7764  319.1170 LP  0  0  0  0  0  0  0  0  0  0  0  0  # atno 13473 bound_to 1455
  110.5395  278.4229  318.6765 LP  0  0  0  0  0  0  0  0  0  0  0  0  # atno 13474 bound_to 1455
  108.0726  276.5713  318.5158 LP  0  0  0  0  0  0  0  0  0  0  0  0  # atno 13479 bound_to 1477
  112.3597  274.2522  318.7085 LP  0  0  0  0  0  0  0  0  0  0  0  0  # atno 13480 bound_to 1480
  111.3915  273.1649  319.6468 LP  0  0  0  0  0  0  0  0  0  0  0  0  # atno 13481 bound_to 1480
  109.9623  273.7247  317.8897 LP  0  0  0  0  0  0  0  0  0  0  0  0  # atno 13482 bound_to 1510
  112.5987  274.4404  316.4651 LP  0  0  0  0  0  0  0  0  0  0  0  0  # atno 13483 bound_to 1551
  116.9950  275.6712  316.6061 LP  0  0  0  0  0  0  0  0  0  0  0  0  # atno 13484 bound_to 1554
  116.3094  274.0972  316.3771 LP  0  0  0  0  0  0  0  0  0  0  0  0  # atno 13485 bound_to 1554
  123.9248  278.7521  310.2435 LP  0  0  0  0  0  0  0  0  0  0  0  0  # atno 13496 bound_to 2319
  124.1047  279.6693  308.7853 LP  0  0  0  0  0  0  0  0  0  0  0  0  # atno 13497 bound_to 2319
  122.7532  276.1934  309.1709 LP  0  0  0  0  0  0  0  0  0  0  0  0  # atno 13498 bound_to 2428
  119.2162  277.2838  311.1236 LP  0  0  0  0  0  0  0  0  0  0  0  0  # atno 13499 bound_to 2431
  119.0034  277.6857  309.4523 LP  0  0  0  0  0  0  0  0  0  0  0  0  # atno 13500 bound_to 2431
  122.2610  278.8826  309.5692 LP  0  0  0  0  0  0  0  0  0  0  0  0  # atno 13501 bound_to 2467
  125.1682  277.0752  311.2553 LP  0  0  0  0  0  0  0  0  0  0  0  0  # atno 13504 bound_to 2287
  125.5594  275.3933  311.1200 LP  0  0  0  0  0  0  0  0  0  0  0  0  # atno 13505 bound_to 2287
  128.0833  277.8278  311.7032 LP  0  0  0  0  0  0  0  0  0  0  0  0  # atno 13506 bound_to 2316
  127.1811  277.8886  308.4943 LP  0  0  0  0  0  0  0  0  0  0  0  0  # atno 13507 bound_to 2351
  122.7442  276.3111  306.7280 LP  0  0  0  0  0  0  0  0  0  0  0  0  # atno 13508 bound_to 2354
  122.9988  278.0175  306.5751 LP  0  0  0  0  0  0  0  0  0  0  0  0  # atno 13509 bound_to 2354
  125.0297  276.5699  308.8911 LP  0  0  0  0  0  0  0  0  0  0  0  0  # atno 13510 bound_to 2383
  120.9106  274.5123  309.4866 LP  0  0  0  0  0  0  0  0  0  0  0  0  # atno 13511 bound_to 2386
  121.0410  275.4016  308.0060 LP  0  0  0  0  0  0  0  0  0  0  0  0  # atno 13512 bound_to 2386
  117.9179  278.6708  307.8249 LP  0  0  0  0  0  0  0  0  0  0  0  0  # atno 13513 bound_to 2470
  118.3541  278.8815  306.1620 LP  0  0  0  0  0  0  0  0  0  0  0  0  # atno 13514 bound_to 2470
  120.1302  278.3464  306.9174 LP  0  0  0  0  0  0  0  0  0  0  0  0  # atno 13517 bound_to 2497
  117.9271  277.1768  309.1902 LP  0  0  0  0  0  0  0  0  0  0  0  0  # atno 13518 bound_to 2558
  119.2934  276.1321  308.2504 LP  0  0  0  0  0  0  0  0  0  0  0  0  # atno 13519 bound_to 2525
  116.4484  279.0527  307.4476 LP  0  0  0  0  0  0  0  0  0  0  0  0  # atno 13520 bound_to 2587
  115.1424  274.4450  309.2319 LP  0  0  0  0  0  0  0  0  0  0  0  0  # atno 13521 bound_to 2528
  114.7362  275.9482  308.4734 LP  0  0  0  0  0  0  0  0  0  0  0  0  # atno 13522 bound_to 2528
  113.2273  278.1713  307.7512 LP  0  0  0  0  0  0  0  0  0  0  0  0  # atno 13523 bound_to 2561
  113.4339  278.3444  309.4621 LP  0  0  0  0  0  0  0  0  0  0  0  0  # atno 13524 bound_to 2561
  110.9984  276.5618  307.4401 LP  0  0  0  0  0  0  0  0  0  0  0  0  # atno 13525 bound_to 2698
  113.6347  275.6061  308.0928 LP  0  0  0  0  0  0  0  0  0  0  0  0  # atno 13526 bound_to 2660
  109.0661  275.1534  308.6864 LP  0  0  0  0  0  0  0  0  0  0  0  0  # atno 13527 bound_to 2663
  108.7154  276.7222  308.0414 LP  0  0  0  0  0  0  0  0  0  0  0  0  # atno 13528 bound_to 2663
  112.3401  276.9814  304.8780 LP  0  0  0  0  0  0  0  0  0  0  0  0  # atno 13529 bound_to 2590
  112.3384  278.5390  305.6356 LP  0  0  0  0  0  0  0  0  0  0  0  0  # atno 13530 bound_to 2590
  115.2593  276.3382  306.6056 LP  0  0  0  0  0  0  0  0  0  0  0  0  # atno 13531 bound_to 2631
  107.7437  279.3001  306.5730 LP  0  0  0  0  0  0  0  0  0  0  0  0  # atno 13532 bound_to 2701
  107.4014  277.6879  306.0404 LP  0  0  0  0  0  0  0  0  0  0  0  0  # atno 13533 bound_to 2701
  110.8482  277.3368  305.4002 LP  0  0  0  0  0  0  0  0  0  0  0  0  # atno 13534 bound_to 2721
  113.4510  272.1650  316.6898 LP  0  0  0  0  0  0  0  0  0  0  0  0  # atno 13535 bound_to 1513
  114.5146  273.4925  316.3637 LP  0  0  0  0  0  0  0  0  0  0  0  0  # atno 13536 bound_to 1513
  111.3948  273.6005  305.8014 LP  0  0  0  0  0  0  0  0  0  0  0  0  # atno 13537 bound_to 2634
  110.7805  275.2170  305.9001 LP  0  0  0  0  0  0  0  0  0  0  0  0  # atno 13538 bound_to 2634
  108.4425  273.3461  306.6784 LP  0  0  0  0  0  0  0  0  0  0  0  0  # atno 13539 bound_to 2776
  108.0040  272.5701  311.1351 LP  0  0  0  0  0  0  0  0  0  0  0  0  # atno 13540 bound_to 2779
  107.5700  271.0684  310.3892 LP  0  0  0  0  0  0  0  0  0  0  0  0  # atno 13541 bound_to 2779

> <Gold.Score>
     Fitness  S(hb_ext) S(vdw_ext)  S(hb_int)    S(int)      intcor
     21.81       2.09      14.84       0.00      -0.68      -0.78

> <Gold.Goldscore.Fitness>
21.8084

> <Gold.Goldscore.Internal.Vdw>
-0.9806

> <Gold.Goldscore.Internal.Torsion>
-0.4737

> <Gold.Goldscore.External.Vdw>
14.8373

> <Gold.Goldscore.Internal.HBond>
0.0000

> <Gold.Goldscore.External.HBond>
2.0861

> <Gold.Goldscore.Internal.Correction>
-0.7752

> <Gold.Goldscore.Hbonds>
donor molecule, donor type, donor heavy atom, donor atom, acceptor molecule, acceptor atom, score
      L1  H     8    22       P1  1412  1.00
      L1  H    10    23       P1  2561  0.04

> <Gold.Goldscore.Internal.Vdw.Weighted>
-0.9806

> <Gold.Goldscore.Internal.Torsion.Weighted>
-0.4737

> <Gold.Goldscore.External.Vdw.Weighted>
20.4013

> <Gold.Goldscore.Internal.HBond.Weighted>
0.0000

> <Gold.Goldscore.External.HBond.Weighted>
2.0861

> <Gold.Goldscore.Internal.Correction.Weighted>
-0.7752

> <Gold.Rescore>
     Score     S(PLP)   S(hbond)     S(cho)   S(metal)  DE(clash)   DE(tors)     intcor
     19.16     -16.64       1.10       0.00       0.00       0.00       0.39       ----

> <Gold.PLP.Fitness>
19.1607

> <Gold.PLP.PLP>
-16.6441

> <Gold.PLP.part.hbond>
-2.6108

> <Gold.PLP.part.metal>
0.0000

> <Gold.PLP.part.buried>
-3.2008

> <Gold.PLP.part.nonpolar>
-12.1874

> <Gold.PLP.part.repulsive>
0.7171

> <Gold.PLP.ligand.clash>
0.0000

> <Gold.PLP.ligand.torsion>
0.3884

> <Gold.PLP.Chemscore.Hbond>
1.0978

> <Gold.PLP.Chemscore.CHOScore>
0.0000

> <Gold.PLP.Chemscore.Metal>
0.0000

> <Gold.Chemscore.Hbonds>
donor molecule, donor type, donor heavy atom, donor atom, acceptor molecule, acceptor atom, score
      L1  H     8    22       P1  1412  1.00
      L1  H    10    23       P1  2704  0.01

> <Gold.PLP.Chemscore.Internal.Correction>
   9.000000E+99

#       Name:                CT1002167954
#       Creating user name   hitesit
#       Creation time:       Sun Apr 16 22:53:12 2023


#       File generated by GOLD software.
#

@<TRIPOS>MOLECULE
CT1002167954|ligand_prepared|mol2|1|dock9
    29    30     1
SMALL
NO_CHARGES


@<TRIPOS>ATOM
      1 C1         110.6007 281.9307 312.8500 C.3            1 RES1               0.0000
      2 C2         109.5075 282.2242 311.8023 C.ar           1 RES1               0.0000
      3 C3         110.0761 280.7818 313.7062 C.2            1 RES1               0.0000
      4 C4         111.8643 281.5953 312.0655 C.2            1 RES1               0.0000
      5 C5         110.9168 283.1285 313.7756 C.3            1 RES1               0.0000
      6 C6         109.5168 283.4157 311.0833 C.ar           1 RES1               0.0000
      7 C7         108.4867 281.3138 311.5425 C.ar           1 RES1               0.0000
      8 N8         110.6316 279.5502 313.5200 N.am           1 RES1               0.0000
      9 O9         109.1617 280.9456 314.5045 O.2            1 RES1               0.0000
     10 N10        112.3597 280.3212 312.1602 N.am           1 RES1               0.0000
     11 O11        112.4261 282.4182 311.3531 O.2            1 RES1               0.0000
     12 C12        109.6807 283.8554 314.2814 C.3            1 RES1               0.0000
     13 C13        108.5427 283.6860 310.1366 C.ar           1 RES1               0.0000
     14 C14        107.5133 281.5862 310.5955 C.ar           1 RES1               0.0000
     15 C15        111.7833 279.2750 312.8276 C.2            1 RES1               0.0000
     16 C16        107.5406 282.7714 309.8917 C.ar           1 RES1               0.0000
     17 O17        112.2604 278.1438 312.8215 O.2            1 RES1               0.0000
     18 H18        111.4911 282.7668 314.6374 H              1 RES1               0.0000
     19 H19        111.5463 283.8411 313.2284 H              1 RES1               0.0000
     20 H20        110.2961 284.1485 311.2641 H              1 RES1               0.0000
     21 H21        108.4446 280.3753 312.0848 H              1 RES1               0.0000
     22 H22        110.1457 278.7610 313.9338 H              1 RES1               0.0000
     23 H23        113.2398 280.1355 311.6897 H              1 RES1               0.0000
     24 H24        109.9588 284.6866 314.9260 H              1 RES1               0.0000
     25 H25        109.0988 284.2504 313.4512 H              1 RES1               0.0000
     26 H26        109.0440 283.1825 314.8519 H              1 RES1               0.0000
     27 H27        108.5679 284.6208 309.5864 H              1 RES1               0.0000
     28 H28        106.7262 280.8637 310.4065 H              1 RES1               0.0000
     29 H29        106.7778 282.9832 309.1498 H              1 RES1               0.0000
@<TRIPOS>BOND
    1    1    2 1     
    2    1    3 1     
    3    1    4 1     
    4    1    5 1     
    5    2    6 ar    
    6    2    7 ar    
    7    3    8 1     
    8    3    9 2     
    9    4   10 1     
   10    4   11 2     
   11    5   12 1     
   12    5   18 1     
   13    5   19 1     
   14    6   13 ar    
   15    6   20 1     
   16    7   14 ar    
   17    7   21 1     
   18    8   15 1     
   19    8   22 1     
   20   10   15 1     
   21   10   23 1     
   22   12   24 1     
   23   12   25 1     
   24   12   26 1     
   25   13   16 ar    
   26   13   27 1     
   27   14   16 ar    
   28   14   28 1     
   29   15   17 2     
   30   16   29 1     
@<TRIPOS>SUBSTRUCTURE
      1 RES1           1
@<TRIPOS>SET
DONOR_HYDROGENS      STATIC     ATOMS    <user>   **** ""
2 22 23
ATOM$RED        STATIC     ATOMS    COLORGROUP SYSTEM
2 22 23
@<TRIPOS>COMMENT
> <Gold.Version>
2022.3.0

> <Gold.Id.Protein>
unknown|5adg_clean|pdb

> <Gold.Protein.RotatedTorsions>
[ 1394 1385 1383 1380 ] final -176.19 input   60.03 | X-H torsion
[ 1425 1409 1410 1411 ] final  -98.77 input  129.35 | X-H torsion
[ 1462 1452 1453 1454 ] final  -53.31 input  108.99 | X-H torsion
[ 1488 1477 1478 1479 ] final  -88.90 input  100.07 | X-H torsion
[ 1521 1510 1511 1512 ] final   96.38 input  113.76 | X-H torsion
[ 1570 1551 1552 1553 ] final -130.08 input  123.58 | X-H torsion
[ 1707 1683 1682 1681 ] final  -85.33 input   60.00 | X-H torsion
[ 2445 2428 2429 2430 ] final  133.54 input  119.94 | X-H torsion
[ 2478 2467 2468 2469 ] final  -50.26 input  117.54 | X-H torsion
[ 2333 2316 2317 2318 ] final  133.58 input  118.58 | X-H torsion
[ 2366 2351 2352 2353 ] final  -19.07 input  116.99 | X-H torsion
[ 2407 2383 2384 2385 ] final   70.17 input  115.65 | X-H torsion
[ 2510 2497 2498 2499 ] final  -84.23 input  121.55 | X-H torsion
[ 2572 2558 2559 2560 ] final   27.37 input  118.05 | X-H torsion
[ 2541 2525 2526 2527 ] final  -82.71 input  116.25 | X-H torsion
[ 2611 2587 2588 2589 ] final  -76.53 input  123.81 | X-H torsion
[ 2710 2698 2699 2700 ] final  124.85 input  119.89 | X-H torsion
[ 2679 2660 2661 2662 ] final  -92.65 input  116.13 | X-H torsion
[ 2646 2631 2632 2633 ] final  156.57 input  117.28 | X-H torsion
[ 2736 2721 2722 2723 ] final  145.51 input   88.34 | X-H torsion
[ 2782 2776 2777 2778 ] final  129.44 input -114.77 | X-H torsion
[ 2619 2595 2594 2593 ] final  157.96 input   60.00 | X-H torsion
[ 1697 1675 1676 1677 ] final  -32.16 input  120.12 | X-H torsion
[ 1635 1616 1617 1618 ] final   45.79 input  110.97 | X-H torsion
[ 2757 2749 2750 2751 ] final   83.90 input   47.81 | X-H torsion
[ 13465 1382 1381 1380 ] final  -76.42 input    0.00 | X-H torsion
[ 13470 1412 1411 1410 ] final  113.45 input    0.00 | X-H torsion
[ 13473 1455 1454 1453 ] final  123.20 input   -0.00 | X-H torsion
[ 13480 1480 1479 1478 ] final   57.12 input   -0.00 | X-H torsion
[ 13484 1554 1553 1552 ] final   45.95 input    0.00 | X-H torsion
[ 13496 2319 2318 2317 ] final  -11.74 input   -0.00 | X-H torsion
[ 13499 2431 2430 2429 ] final   83.79 input    0.00 | X-H torsion
[ 13504 2287 2286 2285 ] final  166.93 input   -0.00 | X-H torsion
[ 13508 2354 2353 2352 ] final  -75.07 input    0.00 | X-H torsion
[ 13511 2386 2385 2384 ] final  -34.54 input    0.00 | X-H torsion
[ 13513 2470 2469 2468 ] final   -6.12 input   -0.00 | X-H torsion
[ 13521 2528 2527 2526 ] final   99.76 input    0.00 | X-H torsion
[ 13523 2561 2560 2559 ] final   48.71 input   -0.00 | X-H torsion
[ 13527 2663 2662 2661 ] final  108.00 input    0.00 | X-H torsion
[ 13529 2590 2589 2588 ] final  -92.95 input   -0.00 | X-H torsion
[ 13532 2701 2700 2699 ] final   82.94 input    0.00 | X-H torsion
[ 13535 1513 1512 1511 ] final  167.03 input    0.00 | X-H torsion
[ 13537 2634 2633 2632 ] final  131.88 input    0.00 | X-H torsion
[ 13540 2779 2778 2777 ] final  -40.20 input    0.00 | X-H torsion

> <Gold.Protein.ActiveResidues>
 THR355  LYS356  ASP357  GLN358  LEU359  PHE360  PRO361  LEU362  ALA363  LYS364 
 ASP368  PHE377  GLY378  HIS382  MET383  GLU384  ARG385  LEU386  GLU387  GLU388 
 VAL389  ASN390  LYS391  GLU392  ILE393  ASP394  THR395  THR396  SER397 

> <Gold.Protein.RotatedAtoms>
  105.0936  276.1383  317.9749 H   0  0  0  0  0  0  0  0  0  0  0  0  # atno 1394 bound_to 1385
  107.0462  274.4003  314.2917 H   0  0  0  0  0  0  0  0  0  0  0  0  # atno 1425 bound_to 1409
  108.8013  276.6869  315.3317 H   0  0  0  0  0  0  0  0  0  0  0  0  # atno 1462 bound_to 1452
  109.1042  276.8539  318.1589 H   0  0  0  0  0  0  0  0  0  0  0  0  # atno 1488 bound_to 1477
  109.6817  274.7049  316.5314 H   0  0  0  0  0  0  0  0  0  0  0  0  # atno 1521 bound_to 1510
  112.3702  274.4078  315.0474 H   0  0  0  0  0  0  0  0  0  0  0  0  # atno 1570 bound_to 1551
  114.8940  273.8807  318.1592 H   0  0  0  0  0  0  0  0  0  0  0  0  # atno 1635 bound_to 1616
  118.4826  272.7697  316.6211 H   0  0  0  0  0  0  0  0  0  0  0  0  # atno 1697 bound_to 1675
  122.4045  278.6809  320.0888 H   0  0  0  0  0  0  0  0  0  0  0  0  # atno 1707 bound_to 1683
  122.5487  277.3518  319.1096 H   0  0  0  0  0  0  0  0  0  0  0  0  # atno 1708 bound_to 1683
  123.5725  278.6407  318.9135 H   0  0  0  0  0  0  0  0  0  0  0  0  # atno 1709 bound_to 1683
  128.4708  278.0491  311.0983 H   0  0  0  0  0  0  0  0  0  0  0  0  # atno 2333 bound_to 2316
  125.8905  278.0286  309.2736 H   0  0  0  0  0  0  0  0  0  0  0  0  # atno 2366 bound_to 2351
  125.2935  276.3424  308.9197 H   0  0  0  0  0  0  0  0  0  0  0  0  # atno 2407 bound_to 2383
  123.8195  276.3449  310.4801 H   0  0  0  0  0  0  0  0  0  0  0  0  # atno 2445 bound_to 2428
  120.9478  277.7717  309.7638 H   0  0  0  0  0  0  0  0  0  0  0  0  # atno 2478 bound_to 2467
  120.0833  278.3448  306.9311 H   0  0  0  0  0  0  0  0  0  0  0  0  # atno 2510 bound_to 2497
  118.7205  275.3955  306.8877 H   0  0  0  0  0  0  0  0  0  0  0  0  # atno 2541 bound_to 2525
  117.2536  276.8099  308.3098 H   0  0  0  0  0  0  0  0  0  0  0  0  # atno 2572 bound_to 2558
  115.1828  278.6188  308.1279 H   0  0  0  0  0  0  0  0  0  0  0  0  # atno 2611 bound_to 2587
  119.9158  282.3047  302.8469 H   0  0  0  0  0  0  0  0  0  0  0  0  # atno 2619 bound_to 2595
  119.7654  281.5275  304.3036 H   0  0  0  0  0  0  0  0  0  0  0  0  # atno 2620 bound_to 2595
  119.8179  280.6502  302.8974 H   0  0  0  0  0  0  0  0  0  0  0  0  # atno 2621 bound_to 2595
  115.5246  276.3948  305.6733 H   0  0  0  0  0  0  0  0  0  0  0  0  # atno 2646 bound_to 2631
  112.7596  274.6332  306.9795 H   0  0  0  0  0  0  0  0  0  0  0  0  # atno 2679 bound_to 2660
  112.0549  277.6323  307.9146 H   0  0  0  0  0  0  0  0  0  0  0  0  # atno 2710 bound_to 2698
  110.7341  278.0407  305.2785 H   0  0  0  0  0  0  0  0  0  0  0  0  # atno 2736 bound_to 2721
  109.7610  275.1065  305.1709 H   0  0  0  0  0  0  0  0  0  0  0  0  # atno 2757 bound_to 2749
  107.1361  274.0423  306.5035 H   0  0  0  0  0  0  0  0  0  0  0  0  # atno 2782 bound_to 2776
  108.1779  274.5917  316.6902 LP  0  0  0  0  0  0  0  0  0  0  0  0  # atno 13465 bound_to 1382
  108.6526  273.5604  315.3820 LP  0  0  0  0  0  0  0  0  0  0  0  0  # atno 13466 bound_to 1382
  106.4516  275.9585  317.0968 LP  0  0  0  0  0  0  0  0  0  0  0  0  # atno 13467 bound_to 1385
  105.8989  274.7249  318.0131 LP  0  0  0  0  0  0  0  0  0  0  0  0  # atno 13468 bound_to 1385
  106.1748  275.9173  314.2818 LP  0  0  0  0  0  0  0  0  0  0  0  0  # atno 13469 bound_to 1409
  110.6920  277.6293  314.9180 LP  0  0  0  0  0  0  0  0  0  0  0  0  # atno 13470 bound_to 1412
  110.7001  275.9080  315.1110 LP  0  0  0  0  0  0  0  0  0  0  0  0  # atno 13471 bound_to 1412
  107.2110  277.3965  315.5223 LP  0  0  0  0  0  0  0  0  0  0  0  0  # atno 13472 bound_to 1452
  110.2719  277.4477  319.6378 LP  0  0  0  0  0  0  0  0  0  0  0  0  # atno 13473 bound_to 1455
  111.1154  277.7515  318.1558 LP  0  0  0  0  0  0  0  0  0  0  0  0  # atno 13474 bound_to 1455
  107.9697  275.6670  317.5597 LP  0  0  0  0  0  0  0  0  0  0  0  0  # atno 13479 bound_to 1477
  111.3812  273.2266  319.7004 LP  0  0  0  0  0  0  0  0  0  0  0  0  # atno 13480 bound_to 1480
  112.3700  274.1905  318.6548 LP  0  0  0  0  0  0  0  0  0  0  0  0  # atno 13481 bound_to 1480
  110.2741  273.9674  318.0021 LP  0  0  0  0  0  0  0  0  0  0  0  0  # atno 13482 bound_to 1510
  112.2348  275.3535  316.5064 LP  0  0  0  0  0  0  0  0  0  0  0  0  # atno 13483 bound_to 1551
  116.7522  275.3526  315.7701 LP  0  0  0  0  0  0  0  0  0  0  0  0  # atno 13484 bound_to 1554
  116.5522  274.4157  317.2131 LP  0  0  0  0  0  0  0  0  0  0  0  0  # atno 13485 bound_to 1554
  124.0611  279.2874  310.3758 LP  0  0  0  0  0  0  0  0  0  0  0  0  # atno 13496 bound_to 2319
  123.9685  279.1340  308.6530 LP  0  0  0  0  0  0  0  0  0  0  0  0  # atno 13497 bound_to 2319
  122.6408  275.8084  309.3052 LP  0  0  0  0  0  0  0  0  0  0  0  0  # atno 13498 bound_to 2428
  119.1113  278.0345  310.9571 LP  0  0  0  0  0  0  0  0  0  0  0  0  # atno 13499 bound_to 2431
  119.1083  276.9350  309.6188 LP  0  0  0  0  0  0  0  0  0  0  0  0  # atno 13500 bound_to 2431
  122.3452  278.7507  309.3806 LP  0  0  0  0  0  0  0  0  0  0  0  0  # atno 13501 bound_to 2467
  125.1670  277.0763  311.2350 LP  0  0  0  0  0  0  0  0  0  0  0  0  # atno 13504 bound_to 2287
  125.5605  275.3922  311.1404 LP  0  0  0  0  0  0  0  0  0  0  0  0  # atno 13505 bound_to 2287
  127.1597  276.9214  310.8376 LP  0  0  0  0  0  0  0  0  0  0  0  0  # atno 13506 bound_to 2316
  127.1761  278.7337  308.3232 LP  0  0  0  0  0  0  0  0  0  0  0  0  # atno 13507 bound_to 2351
  122.6657  277.7755  307.2296 LP  0  0  0  0  0  0  0  0  0  0  0  0  # atno 13508 bound_to 2354
  123.0773  276.5531  306.0735 LP  0  0  0  0  0  0  0  0  0  0  0  0  # atno 13509 bound_to 2354
  124.8876  276.3150  307.2213 LP  0  0  0  0  0  0  0  0  0  0  0  0  # atno 13510 bound_to 2383
  121.2036  274.9310  307.9112 LP  0  0  0  0  0  0  0  0  0  0  0  0  # atno 13511 bound_to 2386
  120.7479  274.9829  309.5814 LP  0  0  0  0  0  0  0  0  0  0  0  0  # atno 13512 bound_to 2386
  118.1303  279.4137  307.5795 LP  0  0  0  0  0  0  0  0  0  0  0  0  # atno 13513 bound_to 2470
  118.1418  278.1385  306.4074 LP  0  0  0  0  0  0  0  0  0  0  0  0  # atno 13514 bound_to 2470
  121.2426  277.1349  307.4334 LP  0  0  0  0  0  0  0  0  0  0  0  0  # atno 13517 bound_to 2497
  117.3412  276.3706  309.9998 LP  0  0  0  0  0  0  0  0  0  0  0  0  # atno 13518 bound_to 2558
  119.6270  275.6834  308.3562 LP  0  0  0  0  0  0  0  0  0  0  0  0  # atno 13519 bound_to 2525
  116.6119  278.2178  307.2012 LP  0  0  0  0  0  0  0  0  0  0  0  0  # atno 13520 bound_to 2587
  114.9114  275.1080  309.7137 LP  0  0  0  0  0  0  0  0  0  0  0  0  # atno 13521 bound_to 2528
  114.9672  275.2852  307.9916 LP  0  0  0  0  0  0  0  0  0  0  0  0  # atno 13522 bound_to 2528
  113.4164  278.7744  309.2964 LP  0  0  0  0  0  0  0  0  0  0  0  0  # atno 13523 bound_to 2561
  113.2447  277.7412  307.9169 LP  0  0  0  0  0  0  0  0  0  0  0  0  # atno 13524 bound_to 2561
  110.6875  276.5618  308.1172 LP  0  0  0  0  0  0  0  0  0  0  0  0  # atno 13525 bound_to 2698
  113.5237  275.8598  307.9591 LP  0  0  0  0  0  0  0  0  0  0  0  0  # atno 13526 bound_to 2660
  108.8117  276.4556  309.0536 LP  0  0  0  0  0  0  0  0  0  0  0  0  # atno 13527 bound_to 2663
  108.9698  275.4200  307.6743 LP  0  0  0  0  0  0  0  0  0  0  0  0  # atno 13528 bound_to 2663
  112.0875  277.7221  306.0846 LP  0  0  0  0  0  0  0  0  0  0  0  0  # atno 13529 bound_to 2590
  112.5909  277.7983  304.4290 LP  0  0  0  0  0  0  0  0  0  0  0  0  # atno 13530 bound_to 2590
  114.0701  277.0965  306.3454 LP  0  0  0  0  0  0  0  0  0  0  0  0  # atno 13531 bound_to 2631
  107.7369  279.2978  306.0294 LP  0  0  0  0  0  0  0  0  0  0  0  0  # atno 13532 bound_to 2701
  107.4082  277.6902  306.5840 LP  0  0  0  0  0  0  0  0  0  0  0  0  # atno 13533 bound_to 2701
  109.4778  277.1780  306.1416 LP  0  0  0  0  0  0  0  0  0  0  0  0  # atno 13534 bound_to 2721
  114.5142  273.4078  316.1632 LP  0  0  0  0  0  0  0  0  0  0  0  0  # atno 13535 bound_to 1513
  113.4513  272.2496  316.8903 LP  0  0  0  0  0  0  0  0  0  0  0  0  # atno 13536 bound_to 1513
  111.0120  273.8337  306.4938 LP  0  0  0  0  0  0  0  0  0  0  0  0  # atno 13537 bound_to 2634
  111.1633  274.9838  305.2076 LP  0  0  0  0  0  0  0  0  0  0  0  0  # atno 13538 bound_to 2634
  108.8222  274.1098  306.9771 LP  0  0  0  0  0  0  0  0  0  0  0  0  # atno 13539 bound_to 2776
  107.6362  272.6225  311.0487 LP  0  0  0  0  0  0  0  0  0  0  0  0  # atno 13540 bound_to 2779
  107.9378  271.0160  310.4757 LP  0  0  0  0  0  0  0  0  0  0  0  0  # atno 13541 bound_to 2779

> <Gold.Score>
     Fitness  S(hb_ext) S(vdw_ext)  S(hb_int)    S(int)      intcor
     21.24       6.64      12.81       0.00      -3.01      -0.76

> <Gold.Goldscore.Fitness>
21.2445

> <Gold.Goldscore.Internal.Vdw>
-3.0016

> <Gold.Goldscore.Internal.Torsion>
-0.7734

> <Gold.Goldscore.External.Vdw>
12.8107

> <Gold.Goldscore.Internal.HBond>
0.0000

> <Gold.Goldscore.External.HBond>
6.6397

> <Gold.Goldscore.Internal.Correction>
-0.7650

> <Gold.Goldscore.Hbonds>
donor molecule, donor type, donor heavy atom, donor atom, acceptor molecule, acceptor atom, score
      L1  H     8    22       P1  1412  0.34
      L1  H    10    23       P1  2565  0.99

> <Gold.Goldscore.Internal.Vdw.Weighted>
-3.0016

> <Gold.Goldscore.Internal.Torsion.Weighted>
-0.7734

> <Gold.Goldscore.External.Vdw.Weighted>
17.6147

> <Gold.Goldscore.Internal.HBond.Weighted>
0.0000

> <Gold.Goldscore.External.HBond.Weighted>
6.6397

> <Gold.Goldscore.Internal.Correction.Weighted>
-0.7650

> <Gold.Rescore>
     Score     S(PLP)   S(hbond)     S(cho)   S(metal)  DE(clash)   DE(tors)     intcor
     11.72     -10.45       1.00       0.00       0.00       0.70       0.52       ----

> <Gold.PLP.Fitness>
11.7169

> <Gold.PLP.PLP>
-10.4527

> <Gold.PLP.part.hbond>
-1.9098

> <Gold.PLP.part.metal>
0.0000

> <Gold.PLP.part.buried>
-4.3262

> <Gold.PLP.part.nonpolar>
-7.2051

> <Gold.PLP.part.repulsive>
1.9694

> <Gold.PLP.ligand.clash>
0.7009

> <Gold.PLP.ligand.torsion>
0.5175

> <Gold.PLP.Chemscore.Hbond>
1.0000

> <Gold.PLP.Chemscore.CHOScore>
0.0000

> <Gold.PLP.Chemscore.Metal>
0.0000

> <Gold.Chemscore.Hbonds>
donor molecule, donor type, donor heavy atom, donor atom, acceptor molecule, acceptor atom, score
      L1  H     8    22       P1  1412  0.24
      L1  H    10    23       P1  2565  0.94

> <Gold.PLP.Chemscore.Internal.Correction>
   9.000000E+99

#       Name:                CT1002167954
#       Creating user name   hitesit
#       Creation time:       Sun Apr 16 22:53:06 2023


#       File generated by GOLD software.
#

@<TRIPOS>MOLECULE
CT1002167954|ligand_prepared|mol2|1|dock1
    29    30     1
SMALL
NO_CHARGES


@<TRIPOS>ATOM
      1 C1         112.0912 281.7531 313.0103 C.3            1 RES1               0.0000
      2 C2         113.4346 282.0808 313.6934 C.ar           1 RES1               0.0000
      3 C3         112.4372 281.0886 311.6810 C.2            1 RES1               0.0000
      4 C4         111.3298 280.8524 313.9765 C.2            1 RES1               0.0000
      5 C5         111.2158 282.9957 312.7251 C.3            1 RES1               0.0000
      6 C6         114.4689 281.1497 313.7057 C.ar           1 RES1               0.0000
      7 C7         113.6551 283.3086 314.3118 C.ar           1 RES1               0.0000
      8 N8         112.2420 279.7428 311.5777 N.am           1 RES1               0.0000
      9 O9         112.9113 281.7290 310.7508 O.2            1 RES1               0.0000
     10 N10        111.0851 279.5600 313.5921 N.am           1 RES1               0.0000
     11 O11        110.9542 281.2452 315.0742 O.2            1 RES1               0.0000
     12 C12        110.0145 282.7089 311.8382 C.3            1 RES1               0.0000
     13 C13        115.6808 281.4367 314.3118 C.ar           1 RES1               0.0000
     14 C14        114.8677 283.5935 314.9176 C.ar           1 RES1               0.0000
     15 C15        111.5335 278.9556 312.4494 C.2            1 RES1               0.0000
     16 C16        115.8812 282.6588 314.9177 C.ar           1 RES1               0.0000
     17 O17        111.3185 277.7731 312.1991 O.2            1 RES1               0.0000
     18 H18        110.8608 283.4041 313.6793 H              1 RES1               0.0000
     19 H19        111.8360 283.7613 312.2427 H              1 RES1               0.0000
     20 H20        114.3288 280.1818 313.2361 H              1 RES1               0.0000
     21 H21        112.8717 284.0587 314.3250 H              1 RES1               0.0000
     22 H22        112.6618 279.2788 310.7785 H              1 RES1               0.0000
     23 H23        110.5158 278.9965 314.2155 H              1 RES1               0.0000
     24 H24        109.4346 283.6139 311.6696 H              1 RES1               0.0000
     25 H25        110.3319 282.3248 310.8710 H              1 RES1               0.0000
     26 H26        109.3625 281.9697 312.2991 H              1 RES1               0.0000
     27 H27        116.4747 280.6972 314.3103 H              1 RES1               0.0000
     28 H28        115.0208 284.5563 315.3937 H              1 RES1               0.0000
     29 H29        116.8307 282.8835 315.3920 H              1 RES1               0.0000
@<TRIPOS>BOND
    1    1    2 1     
    2    1    3 1     
    3    1    4 1     
    4    1    5 1     
    5    2    6 ar    
    6    2    7 ar    
    7    3    8 1     
    8    3    9 2     
    9    4   10 1     
   10    4   11 2     
   11    5   12 1     
   12    5   18 1     
   13    5   19 1     
   14    6   13 ar    
   15    6   20 1     
   16    7   14 ar    
   17    7   21 1     
   18    8   15 1     
   19    8   22 1     
   20   10   15 1     
   21   10   23 1     
   22   12   24 1     
   23   12   25 1     
   24   12   26 1     
   25   13   16 ar    
   26   13   27 1     
   27   14   16 ar    
   28   14   28 1     
   29   15   17 2     
   30   16   29 1     
@<TRIPOS>SUBSTRUCTURE
      1 RES1           1
@<TRIPOS>SET
DONOR_HYDROGENS      STATIC     ATOMS    <user>   **** ""
2 22 23
ATOM$RED        STATIC     ATOMS    COLORGROUP SYSTEM
2 22 23
@<TRIPOS>COMMENT
> <Gold.Version>
2022.3.0

> <Gold.Id.Protein>
unknown|5adg_clean|pdb

> <Gold.Protein.RotatedTorsions>
[ 1394 1385 1383 1380 ] final  119.74 input   60.03 | X-H torsion
[ 1425 1409 1410 1411 ] final -128.68 input  129.35 | X-H torsion
[ 1462 1452 1453 1454 ] final  129.86 input  108.99 | X-H torsion
[ 1488 1477 1478 1479 ] final  -62.90 input  100.07 | X-H torsion
[ 1521 1510 1511 1512 ] final  109.12 input  113.76 | X-H torsion
[ 1570 1551 1552 1553 ] final  134.08 input  123.58 | X-H torsion
[ 1707 1683 1682 1681 ] final  -40.19 input   60.00 | X-H torsion
[ 2445 2428 2429 2430 ] final   98.17 input  119.94 | X-H torsion
[ 2478 2467 2468 2469 ] final   46.18 input  117.54 | X-H torsion
[ 2333 2316 2317 2318 ] final  164.19 input  118.58 | X-H torsion
[ 2366 2351 2352 2353 ] final   59.94 input  116.99 | X-H torsion
[ 2407 2383 2384 2385 ] final  -55.40 input  115.65 | X-H torsion
[ 2510 2497 2498 2499 ] final -159.37 input  121.55 | X-H torsion
[ 2572 2558 2559 2560 ] final -124.79 input  118.05 | X-H torsion
[ 2541 2525 2526 2527 ] final   84.40 input  116.25 | X-H torsion
[ 2611 2587 2588 2589 ] final -156.15 input  123.81 | X-H torsion
[ 2710 2698 2699 2700 ] final  118.73 input  119.89 | X-H torsion
[ 2679 2660 2661 2662 ] final -122.52 input  116.13 | X-H torsion
[ 2646 2631 2632 2633 ] final -157.88 input  117.28 | X-H torsion
[ 2736 2721 2722 2723 ] final  -69.57 input   88.34 | X-H torsion
[ 2782 2776 2777 2778 ] final  109.66 input -114.77 | X-H torsion
[ 2619 2595 2594 2593 ] final  -56.29 input   60.00 | X-H torsion
[ 1697 1675 1676 1677 ] final  -51.97 input  120.12 | X-H torsion
[ 1635 1616 1617 1618 ] final   27.86 input  110.97 | X-H torsion
[ 2757 2749 2750 2751 ] final  -36.45 input   47.81 | X-H torsion
[ 13465 1382 1381 1380 ] final  -44.72 input    0.00 | X-H torsion
[ 13470 1412 1411 1410 ] final -101.64 input    0.00 | X-H torsion
[ 13473 1455 1454 1453 ] final  121.64 input   -0.00 | X-H torsion
[ 13480 1480 1479 1478 ] final   79.50 input   -0.00 | X-H torsion
[ 13484 1554 1553 1552 ] final -160.20 input    0.00 | X-H torsion
[ 13496 2319 2318 2317 ] final  -33.74 input   -0.00 | X-H torsion
[ 13499 2431 2430 2429 ] final  -84.70 input    0.00 | X-H torsion
[ 13504 2287 2286 2285 ] final -131.91 input   -0.00 | X-H torsion
[ 13508 2354 2353 2352 ] final  -12.74 input    0.00 | X-H torsion
[ 13511 2386 2385 2384 ] final   33.60 input    0.00 | X-H torsion
[ 13513 2470 2469 2468 ] final  -84.57 input   -0.00 | X-H torsion
[ 13521 2528 2527 2526 ] final  -32.17 input    0.00 | X-H torsion
[ 13523 2561 2560 2559 ] final -158.11 input   -0.00 | X-H torsion
[ 13527 2663 2662 2661 ] final  168.69 input    0.00 | X-H torsion
[ 13529 2590 2589 2588 ] final   76.18 input   -0.00 | X-H torsion
[ 13532 2701 2700 2699 ] final  -75.30 input    0.00 | X-H torsion
[ 13535 1513 1512 1511 ] final  126.53 input    0.00 | X-H torsion
[ 13537 2634 2633 2632 ] final -146.70 input    0.00 | X-H torsion
[ 13540 2779 2778 2777 ] final   19.06 input    0.00 | X-H torsion

> <Gold.Protein.ActiveResidues>
 THR355  LYS356  ASP357  GLN358  LEU359  PHE360  PRO361  LEU362  ALA363  LYS364 
 ASP368  PHE377  GLY378  HIS382  MET383  GLU384  ARG385  LEU386  GLU387  GLU388 
 VAL389  ASN390  LYS391  GLU392  ILE393  ASP394  THR395  THR396  SER397 

> <Gold.Protein.RotatedAtoms>
  105.7828  276.4758  317.3448 H   0  0  0  0  0  0  0  0  0  0  0  0  # atno 1394 bound_to 1385
  106.8805  274.4387  313.8661 H   0  0  0  0  0  0  0  0  0  0  0  0  # atno 1425 bound_to 1409
  107.2051  277.4626  315.5211 H   0  0  0  0  0  0  0  0  0  0  0  0  # atno 1462 bound_to 1452
  109.2969  276.6939  317.8500 H   0  0  0  0  0  0  0  0  0  0  0  0  # atno 1488 bound_to 1477
  109.5529  274.5563  316.5347 H   0  0  0  0  0  0  0  0  0  0  0  0  # atno 1521 bound_to 1510
  111.9474  275.5874  315.3978 H   0  0  0  0  0  0  0  0  0  0  0  0  # atno 1570 bound_to 1551
  115.1597  273.9521  318.1596 H   0  0  0  0  0  0  0  0  0  0  0  0  # atno 1635 bound_to 1616
  118.5372  272.7844  316.3213 H   0  0  0  0  0  0  0  0  0  0  0  0  # atno 1697 bound_to 1675
  122.1146  278.0194  319.9576 H   0  0  0  0  0  0  0  0  0  0  0  0  # atno 1707 bound_to 1683
  123.1130  277.5925  318.7057 H   0  0  0  0  0  0  0  0  0  0  0  0  # atno 1708 bound_to 1683
  123.2981  279.0624  319.4492 H   0  0  0  0  0  0  0  0  0  0  0  0  # atno 1709 bound_to 1683
  128.2850  277.9756  311.5216 H   0  0  0  0  0  0  0  0  0  0  0  0  # atno 2333 bound_to 2316
  126.7883  277.5371  308.8087 H   0  0  0  0  0  0  0  0  0  0  0  0  # atno 2366 bound_to 2351
  124.4580  276.8097  307.6782 H   0  0  0  0  0  0  0  0  0  0  0  0  # atno 2407 bound_to 2383
  123.7611  276.7372  310.1162 H   0  0  0  0  0  0  0  0  0  0  0  0  # atno 2445 bound_to 2428
  121.9373  277.7767  308.8879 H   0  0  0  0  0  0  0  0  0  0  0  0  # atno 2478 bound_to 2467
  121.0446  278.1268  306.4850 H   0  0  0  0  0  0  0  0  0  0  0  0  # atno 2510 bound_to 2497
  119.5313  275.8549  308.3854 H   0  0  0  0  0  0  0  0  0  0  0  0  # atno 2541 bound_to 2525
  117.0261  276.1229  309.8697 H   0  0  0  0  0  0  0  0  0  0  0  0  # atno 2572 bound_to 2558
  116.0112  279.2940  307.7381 H   0  0  0  0  0  0  0  0  0  0  0  0  # atno 2611 bound_to 2587
  119.7480  281.1088  304.2220 H   0  0  0  0  0  0  0  0  0  0  0  0  # atno 2619 bound_to 2595
  119.8572  280.9287  302.5776 H   0  0  0  0  0  0  0  0  0  0  0  0  # atno 2620 bound_to 2595
  119.8938  282.4441  303.2499 H   0  0  0  0  0  0  0  0  0  0  0  0  # atno 2621 bound_to 2595
  115.1493  276.7284  305.2047 H   0  0  0  0  0  0  0  0  0  0  0  0  # atno 2646 bound_to 2631
  113.0066  274.4033  307.2834 H   0  0  0  0  0  0  0  0  0  0  0  0  # atno 2679 bound_to 2660
  112.0592  277.6017  307.8252 H   0  0  0  0  0  0  0  0  0  0  0  0  # atno 2710 bound_to 2698
  109.2926  277.6722  306.1016 H   0  0  0  0  0  0  0  0  0  0  0  0  # atno 2736 bound_to 2721
  108.3496  275.6728  305.4235 H   0  0  0  0  0  0  0  0  0  0  0  0  # atno 2757 bound_to 2749
  107.2163  273.7500  306.4547 H   0  0  0  0  0  0  0  0  0  0  0  0  # atno 2782 bound_to 2776
  107.9835  274.1700  316.7809 LP  0  0  0  0  0  0  0  0  0  0  0  0  # atno 13465 bound_to 1382
  108.8470  273.9821  315.2913 LP  0  0  0  0  0  0  0  0  0  0  0  0  # atno 13466 bound_to 1382
  106.5127  275.0255  317.4519 LP  0  0  0  0  0  0  0  0  0  0  0  0  # atno 13467 bound_to 1385
  105.1436  275.3179  318.2926 LP  0  0  0  0  0  0  0  0  0  0  0  0  # atno 13468 bound_to 1385
  106.3354  275.8800  314.6945 LP  0  0  0  0  0  0  0  0  0  0  0  0  # atno 13469 bound_to 1409
  110.6696  276.1196  315.5872 LP  0  0  0  0  0  0  0  0  0  0  0  0  # atno 13470 bound_to 1412
  110.7226  277.4177  314.4417 LP  0  0  0  0  0  0  0  0  0  0  0  0  # atno 13471 bound_to 1412
  108.7466  276.6502  315.3401 LP  0  0  0  0  0  0  0  0  0  0  0  0  # atno 13472 bound_to 1452
  110.2641  277.4700  319.6375 LP  0  0  0  0  0  0  0  0  0  0  0  0  # atno 13473 bound_to 1455
  111.1232  277.7293  318.1561 LP  0  0  0  0  0  0  0  0  0  0  0  0  # atno 13474 bound_to 1455
  107.7814  275.8233  317.8616 LP  0  0  0  0  0  0  0  0  0  0  0  0  # atno 13479 bound_to 1477
  111.4506  273.0070  319.4555 LP  0  0  0  0  0  0  0  0  0  0  0  0  # atno 13480 bound_to 1480
  112.3006  274.4101  318.8998 LP  0  0  0  0  0  0  0  0  0  0  0  0  # atno 13481 bound_to 1480
  110.3994  274.1120  317.9989 LP  0  0  0  0  0  0  0  0  0  0  0  0  # atno 13482 bound_to 1510
  112.6531  274.1864  316.1596 LP  0  0  0  0  0  0  0  0  0  0  0  0  # atno 13483 bound_to 1551
  116.7087  274.7498  317.3453 LP  0  0  0  0  0  0  0  0  0  0  0  0  # atno 13484 bound_to 1554
  116.5957  275.0186  315.6380 LP  0  0  0  0  0  0  0  0  0  0  0  0  # atno 13485 bound_to 1554
  123.9813  278.9681  310.3451 LP  0  0  0  0  0  0  0  0  0  0  0  0  # atno 13496 bound_to 2319
  124.0482  279.4533  308.6837 LP  0  0  0  0  0  0  0  0  0  0  0  0  # atno 13497 bound_to 2319
  122.6976  275.4264  309.6595 LP  0  0  0  0  0  0  0  0  0  0  0  0  # atno 13498 bound_to 2428
  119.1346  276.8141  309.7406 LP  0  0  0  0  0  0  0  0  0  0  0  0  # atno 13499 bound_to 2431
  119.0850  278.1554  310.8353 LP  0  0  0  0  0  0  0  0  0  0  0  0  # atno 13500 bound_to 2431
  121.3818  278.7458  310.2334 LP  0  0  0  0  0  0  0  0  0  0  0  0  # atno 13501 bound_to 2467
  125.2289  276.6736  310.4537 LP  0  0  0  0  0  0  0  0  0  0  0  0  # atno 13504 bound_to 2287
  125.4987  275.7949  311.9217 LP  0  0  0  0  0  0  0  0  0  0  0  0  # atno 13505 bound_to 2287
  127.3403  276.9928  310.4260 LP  0  0  0  0  0  0  0  0  0  0  0  0  # atno 13506 bound_to 2316
  126.2985  279.2141  308.7777 LP  0  0  0  0  0  0  0  0  0  0  0  0  # atno 13507 bound_to 2351
  123.0543  277.9864  306.4499 LP  0  0  0  0  0  0  0  0  0  0  0  0  # atno 13508 bound_to 2354
  122.6887  276.3422  306.8532 LP  0  0  0  0  0  0  0  0  0  0  0  0  # atno 13509 bound_to 2354
  125.7076  275.8564  308.4398 LP  0  0  0  0  0  0  0  0  0  0  0  0  # atno 13510 bound_to 2383
  121.2656  274.1742  308.5154 LP  0  0  0  0  0  0  0  0  0  0  0  0  # atno 13511 bound_to 2386
  120.6860  275.7397  308.9773 LP  0  0  0  0  0  0  0  0  0  0  0  0  # atno 13512 bound_to 2386
  117.8804  278.3548  307.7056 LP  0  0  0  0  0  0  0  0  0  0  0  0  # atno 13513 bound_to 2470
  118.3916  279.1975  306.2813 LP  0  0  0  0  0  0  0  0  0  0  0  0  # atno 13514 bound_to 2470
  120.3085  277.3467  307.8669 LP  0  0  0  0  0  0  0  0  0  0  0  0  # atno 13517 bound_to 2497
  117.5627  277.0395  308.4810 LP  0  0  0  0  0  0  0  0  0  0  0  0  # atno 13518 bound_to 2558
  118.8396  275.2374  306.9017 LP  0  0  0  0  0  0  0  0  0  0  0  0  # atno 13519 bound_to 2525
  115.8087  277.5632  307.5791 LP  0  0  0  0  0  0  0  0  0  0  0  0  # atno 13520 bound_to 2587
  115.1469  274.6425  308.2204 LP  0  0  0  0  0  0  0  0  0  0  0  0  # atno 13521 bound_to 2528
  114.7316  275.7507  309.4850 LP  0  0  0  0  0  0  0  0  0  0  0  0  # atno 13522 bound_to 2528
  113.2279  278.1103  307.7595 LP  0  0  0  0  0  0  0  0  0  0  0  0  # atno 13523 bound_to 2561
  113.4333  278.4053  309.4538 LP  0  0  0  0  0  0  0  0  0  0  0  0  # atno 13524 bound_to 2561
  110.6833  276.5917  308.2044 LP  0  0  0  0  0  0  0  0  0  0  0  0  # atno 13525 bound_to 2698
  113.2812  276.0855  307.6609 LP  0  0  0  0  0  0  0  0  0  0  0  0  # atno 13526 bound_to 2660
  108.7124  276.7770  308.2457 LP  0  0  0  0  0  0  0  0  0  0  0  0  # atno 13527 bound_to 2663
  109.0691  275.0986  308.4821 LP  0  0  0  0  0  0  0  0  0  0  0  0  # atno 13528 bound_to 2663
  112.6056  277.9592  304.4571 LP  0  0  0  0  0  0  0  0  0  0  0  0  # atno 13529 bound_to 2590
  112.0728  277.5612  306.0564 LP  0  0  0  0  0  0  0  0  0  0  0  0  # atno 13530 bound_to 2590
  114.4348  276.7723  306.8007 LP  0  0  0  0  0  0  0  0  0  0  0  0  # atno 13531 bound_to 2631
  107.4443  277.8475  306.8684 LP  0  0  0  0  0  0  0  0  0  0  0  0  # atno 13532 bound_to 2701
  107.7008  279.1406  305.7450 LP  0  0  0  0  0  0  0  0  0  0  0  0  # atno 13533 bound_to 2701
  110.8676  277.5333  305.3480 LP  0  0  0  0  0  0  0  0  0  0  0  0  # atno 13534 bound_to 2721
  114.3423  273.0009  315.7579 LP  0  0  0  0  0  0  0  0  0  0  0  0  # atno 13535 bound_to 1513
  113.6233  272.6565  317.2956 LP  0  0  0  0  0  0  0  0  0  0  0  0  # atno 13536 bound_to 1513
  110.6650  274.9061  306.4199 LP  0  0  0  0  0  0  0  0  0  0  0  0  # atno 13537 bound_to 2634
  111.5104  273.9113  305.2816 LP  0  0  0  0  0  0  0  0  0  0  0  0  # atno 13538 bound_to 2634
  108.7451  274.3907  307.0240 LP  0  0  0  0  0  0  0  0  0  0  0  0  # atno 13539 bound_to 2776
  107.0034  272.1787  310.6801 LP  0  0  0  0  0  0  0  0  0  0  0  0  # atno 13540 bound_to 2779
  108.5706  271.4598  310.8443 LP  0  0  0  0  0  0  0  0  0  0  0  0  # atno 13541 bound_to 2779

> <Gold.Score>
     Fitness  S(hb_ext) S(vdw_ext)  S(hb_int)    S(int)      intcor
     21.22       1.43      14.43       0.00      -0.05      -0.86

> <Gold.Goldscore.Fitness>
21.2212

> <Gold.Goldscore.Internal.Vdw>
-0.3693

> <Gold.Goldscore.Internal.Torsion>
-0.5369

> <Gold.Goldscore.External.Vdw>
14.4280

> <Gold.Goldscore.Internal.HBond>
0.0000

> <Gold.Goldscore.External.HBond>
1.4307

> <Gold.Goldscore.Internal.Correction>
-0.8582

> <Gold.Goldscore.Hbonds>
donor molecule, donor type, donor heavy atom, donor atom, acceptor molecule, acceptor atom, score
      L1  H     8    22       P1  2561  0.58
      L1  H    10    23       P1  1412  0.13

> <Gold.Goldscore.Internal.Vdw.Weighted>
-0.3693

> <Gold.Goldscore.Internal.Torsion.Weighted>
-0.5369

> <Gold.Goldscore.External.Vdw.Weighted>
19.8386

> <Gold.Goldscore.Internal.HBond.Weighted>
0.0000

> <Gold.Goldscore.External.HBond.Weighted>
1.4307

> <Gold.Goldscore.Internal.Correction.Weighted>
-0.8582

> <Gold.Rescore>
     Score     S(PLP)   S(hbond)     S(cho)   S(metal)  DE(clash)   DE(tors)     intcor
     21.89     -18.83       1.27       0.00       0.00       0.00       0.38       ----

> <Gold.PLP.Fitness>
21.8917

> <Gold.PLP.PLP>
-18.8311

> <Gold.PLP.part.hbond>
-2.0000

> <Gold.PLP.part.metal>
0.0000

> <Gold.PLP.part.buried>
-4.1793

> <Gold.PLP.part.nonpolar>
-13.5195

> <Gold.PLP.part.repulsive>
0.6082

> <Gold.PLP.ligand.clash>
0.0000

> <Gold.PLP.ligand.torsion>
0.3753

> <Gold.PLP.Chemscore.Hbond>
1.2704

> <Gold.PLP.Chemscore.CHOScore>
0.0000

> <Gold.PLP.Chemscore.Metal>
0.0000

> <Gold.Chemscore.Hbonds>
donor molecule, donor type, donor heavy atom, donor atom, acceptor molecule, acceptor atom, score
      L1  H    10    23       P1  1412  0.21
      P1  H  2564  2576       L1     9  0.09

> <Gold.PLP.Chemscore.Internal.Correction>
   9.000000E+99

#       Name:                CT1002167954
#       Creating user name   hitesit
#       Creation time:       Sun Apr 16 22:53:10 2023


#       File generated by GOLD software.
#

@<TRIPOS>MOLECULE
CT1002167954|ligand_prepared|mol2|1|dock7
    29    30     1
SMALL
NO_CHARGES


@<TRIPOS>ATOM
      1 C1         110.7457 282.3347 312.9855 C.3            1 RES1               0.0000
      2 C2         109.7028 282.6934 311.9074 C.ar           1 RES1               0.0000
      3 C3         110.0796 281.3133 313.9028 C.2            1 RES1               0.0000
      4 C4         111.9635 281.8002 312.2399 C.2            1 RES1               0.0000
      5 C5         111.2002 283.5402 313.8408 C.3            1 RES1               0.0000
      6 C6         109.1072 281.6980 311.1385 C.ar           1 RES1               0.0000
      7 C7         109.3248 284.0127 311.6724 C.ar           1 RES1               0.0000
      8 N8         110.4816 280.0142 313.7993 N.am           1 RES1               0.0000
      9 O9         109.1873 281.6362 314.6773 O.2            1 RES1               0.0000
     10 N10        112.2990 280.4837 312.4185 N.am           1 RES1               0.0000
     11 O11        112.6258 282.5030 311.4864 O.2            1 RES1               0.0000
     12 C12        112.1802 283.1743 314.9444 C.3            1 RES1               0.0000
     13 C13        108.1657 282.0098 310.1717 C.ar           1 RES1               0.0000
     14 C14        108.3832 284.3223 310.7049 C.ar           1 RES1               0.0000
     15 C15        111.5951 279.5586 313.1405 C.2            1 RES1               0.0000
     16 C16        107.8027 283.3219 309.9546 C.ar           1 RES1               0.0000
     17 O17        111.9305 278.3797 313.2095 O.2            1 RES1               0.0000
     18 H18        111.6697 284.2825 313.1835 H              1 RES1               0.0000
     19 H19        110.3159 284.0052 314.2939 H              1 RES1               0.0000
     20 H20        109.3821 280.6600 311.2935 H              1 RES1               0.0000
     21 H21        109.7690 284.8163 312.2499 H              1 RES1               0.0000
     22 H22        109.9005 279.3170 314.2538 H              1 RES1               0.0000
     23 H23        113.1525 280.1636 311.9721 H              1 RES1               0.0000
     24 H24        112.4667 284.0559 315.5138 H              1 RES1               0.0000
     25 H25        111.7371 282.4564 315.6314 H              1 RES1               0.0000
     26 H26        113.0828 282.7320 314.5276 H              1 RES1               0.0000
     27 H27        107.7128 281.2189 309.5830 H              1 RES1               0.0000
     28 H28        108.1010 285.3565 310.5369 H              1 RES1               0.0000
     29 H29        107.0649 283.5659 309.1974 H              1 RES1               0.0000
@<TRIPOS>BOND
    1    1    2 1     
    2    1    3 1     
    3    1    4 1     
    4    1    5 1     
    5    2    6 ar    
    6    2    7 ar    
    7    3    8 1     
    8    3    9 2     
    9    4   10 1     
   10    4   11 2     
   11    5   12 1     
   12    5   18 1     
   13    5   19 1     
   14    6   13 ar    
   15    6   20 1     
   16    7   14 ar    
   17    7   21 1     
   18    8   15 1     
   19    8   22 1     
   20   10   15 1     
   21   10   23 1     
   22   12   24 1     
   23   12   25 1     
   24   12   26 1     
   25   13   16 ar    
   26   13   27 1     
   27   14   16 ar    
   28   14   28 1     
   29   15   17 2     
   30   16   29 1     
@<TRIPOS>SUBSTRUCTURE
      1 RES1           1
@<TRIPOS>SET
DONOR_HYDROGENS      STATIC     ATOMS    <user>   **** ""
2 22 23
ATOM$RED        STATIC     ATOMS    COLORGROUP SYSTEM
2 22 23
@<TRIPOS>COMMENT
> <Gold.Version>
2022.3.0

> <Gold.Id.Protein>
unknown|5adg_clean|pdb

> <Gold.Protein.RotatedTorsions>
[ 1394 1385 1383 1380 ] final  131.61 input   60.03 | X-H torsion
[ 1425 1409 1410 1411 ] final  -76.57 input  129.35 | X-H torsion
[ 1462 1452 1453 1454 ] final   72.92 input  108.99 | X-H torsion
[ 1488 1477 1478 1479 ] final -124.46 input  100.07 | X-H torsion
[ 1521 1510 1511 1512 ] final    6.00 input  113.76 | X-H torsion
[ 1570 1551 1552 1553 ] final  -25.99 input  123.58 | X-H torsion
[ 1707 1683 1682 1681 ] final  -72.53 input   60.00 | X-H torsion
[ 2445 2428 2429 2430 ] final  -94.96 input  119.94 | X-H torsion
[ 2478 2467 2468 2469 ] final -172.77 input  117.54 | X-H torsion
[ 2333 2316 2317 2318 ] final  -17.76 input  118.58 | X-H torsion
[ 2366 2351 2352 2353 ] final  156.39 input  116.99 | X-H torsion
[ 2407 2383 2384 2385 ] final  -14.79 input  115.65 | X-H torsion
[ 2510 2497 2498 2499 ] final  138.49 input  121.55 | X-H torsion
[ 2572 2558 2559 2560 ] final   25.61 input  118.05 | X-H torsion
[ 2541 2525 2526 2527 ] final  -64.39 input  116.25 | X-H torsion
[ 2611 2587 2588 2589 ] final -156.89 input  123.81 | X-H torsion
[ 2710 2698 2699 2700 ] final  179.69 input  119.89 | X-H torsion
[ 2679 2660 2661 2662 ] final  -12.26 input  116.13 | X-H torsion
[ 2646 2631 2632 2633 ] final   97.39 input  117.28 | X-H torsion
[ 2736 2721 2722 2723 ] final  152.68 input   88.34 | X-H torsion
[ 2782 2776 2777 2778 ] final -126.26 input -114.77 | X-H torsion
[ 2619 2595 2594 2593 ] final -162.60 input   60.00 | X-H torsion
[ 1697 1675 1676 1677 ] final   -4.11 input  120.12 | X-H torsion
[ 1635 1616 1617 1618 ] final  165.48 input  110.97 | X-H torsion
[ 2757 2749 2750 2751 ] final  -23.33 input   47.81 | X-H torsion
[ 13465 1382 1381 1380 ] final   84.88 input    0.00 | X-H torsion
[ 13470 1412 1411 1410 ] final  -12.41 input    0.00 | X-H torsion
[ 13473 1455 1454 1453 ] final  -79.08 input   -0.00 | X-H torsion
[ 13480 1480 1479 1478 ] final  166.54 input   -0.00 | X-H torsion
[ 13484 1554 1553 1552 ] final  138.82 input    0.00 | X-H torsion
[ 13496 2319 2318 2317 ] final    9.84 input   -0.00 | X-H torsion
[ 13499 2431 2430 2429 ] final   97.34 input    0.00 | X-H torsion
[ 13504 2287 2286 2285 ] final -112.13 input   -0.00 | X-H torsion
[ 13508 2354 2353 2352 ] final -140.07 input    0.00 | X-H torsion
[ 13511 2386 2385 2384 ] final  -41.74 input    0.00 | X-H torsion
[ 13513 2470 2469 2468 ] final  -75.23 input   -0.00 | X-H torsion
[ 13521 2528 2527 2526 ] final  179.14 input    0.00 | X-H torsion
[ 13523 2561 2560 2559 ] final   20.19 input   -0.00 | X-H torsion
[ 13527 2663 2662 2661 ] final -116.17 input    0.00 | X-H torsion
[ 13529 2590 2589 2588 ] final   22.17 input   -0.00 | X-H torsion
[ 13532 2701 2700 2699 ] final -146.67 input    0.00 | X-H torsion
[ 13535 1513 1512 1511 ] final  -94.12 input    0.00 | X-H torsion
[ 13537 2634 2633 2632 ] final  -68.86 input    0.00 | X-H torsion
[ 13540 2779 2778 2777 ] final  -33.59 input    0.00 | X-H torsion

> <Gold.Protein.ActiveResidues>
 THR355  LYS356  ASP357  GLN358  LEU359  PHE360  PRO361  LEU362  ALA363  LYS364 
 ASP368  PHE377  GLY378  HIS382  MET383  GLU384  ARG385  LEU386  GLU387  GLU388 
 VAL389  ASN390  LYS391  GLU392  ILE393  ASP394  THR395  THR396  SER397 

> <Gold.Protein.RotatedAtoms>
  105.6220  276.4918  317.4514 H   0  0  0  0  0  0  0  0  0  0  0  0  # atno 1394 bound_to 1385
  107.0956  274.5067  314.6130 H   0  0  0  0  0  0  0  0  0  0  0  0  # atno 1425 bound_to 1409
  107.3270  276.7274  315.9322 H   0  0  0  0  0  0  0  0  0  0  0  0  # atno 1462 bound_to 1452
  108.6647  276.8731  318.4720 H   0  0  0  0  0  0  0  0  0  0  0  0  # atno 1488 bound_to 1477
  110.6057  274.9570  317.3464 H   0  0  0  0  0  0  0  0  0  0  0  0  # atno 1521 bound_to 1510
  112.6092  274.3532  316.4078 H   0  0  0  0  0  0  0  0  0  0  0  0  # atno 1570 bound_to 1551
  114.3168  273.8933  319.5729 H   0  0  0  0  0  0  0  0  0  0  0  0  # atno 1635 bound_to 1616
  118.3245  272.9011  316.9986 H   0  0  0  0  0  0  0  0  0  0  0  0  # atno 1697 bound_to 1675
  122.2845  278.5049  320.0961 H   0  0  0  0  0  0  0  0  0  0  0  0  # atno 1707 bound_to 1683
  122.7054  277.3684  318.9658 H   0  0  0  0  0  0  0  0  0  0  0  0  # atno 1708 bound_to 1683
  123.5359  278.8005  319.0501 H   0  0  0  0  0  0  0  0  0  0  0  0  # atno 1709 bound_to 1683
  127.3018  276.9801  310.4321 H   0  0  0  0  0  0  0  0  0  0  0  0  # atno 2333 bound_to 2316
  127.2162  278.6769  308.3040 H   0  0  0  0  0  0  0  0  0  0  0  0  # atno 2366 bound_to 2351
  124.4794  276.9279  308.2781 H   0  0  0  0  0  0  0  0  0  0  0  0  # atno 2407 bound_to 2383
  122.7519  275.3244  309.8248 H   0  0  0  0  0  0  0  0  0  0  0  0  # atno 2445 bound_to 2428
  121.8579  279.0050  310.0176 H   0  0  0  0  0  0  0  0  0  0  0  0  # atno 2478 bound_to 2467
  121.4676  277.4423  306.9220 H   0  0  0  0  0  0  0  0  0  0  0  0  # atno 2510 bound_to 2497
  118.6203  275.6515  306.9529 H   0  0  0  0  0  0  0  0  0  0  0  0  # atno 2541 bound_to 2525
  117.2336  276.7917  308.3066 H   0  0  0  0  0  0  0  0  0  0  0  0  # atno 2572 bound_to 2558
  116.0209  279.2933  307.7320 H   0  0  0  0  0  0  0  0  0  0  0  0  # atno 2611 bound_to 2587
  119.8777  282.4418  303.4772 H   0  0  0  0  0  0  0  0  0  0  0  0  # atno 2619 bound_to 2595
  119.7451  280.9132  304.1052 H   0  0  0  0  0  0  0  0  0  0  0  0  # atno 2620 bound_to 2595
  119.8763  281.1277  302.4661 H   0  0  0  0  0  0  0  0  0  0  0  0  # atno 2621 bound_to 2595
  115.3475  276.2903  306.5250 H   0  0  0  0  0  0  0  0  0  0  0  0  # atno 2646 bound_to 2631
  112.6936  275.7670  306.9195 H   0  0  0  0  0  0  0  0  0  0  0  0  # atno 2679 bound_to 2660
  111.6972  277.6147  308.6472 H   0  0  0  0  0  0  0  0  0  0  0  0  # atno 2710 bound_to 2698
  110.6710  278.1316  305.2915 H   0  0  0  0  0  0  0  0  0  0  0  0  # atno 2736 bound_to 2721
  108.4836  275.6160  305.5650 H   0  0  0  0  0  0  0  0  0  0  0  0  # atno 2757 bound_to 2749
  108.1180  274.9229  307.0058 H   0  0  0  0  0  0  0  0  0  0  0  0  # atno 2782 bound_to 2776
  108.4999  273.3774  315.5314 LP  0  0  0  0  0  0  0  0  0  0  0  0  # atno 13465 bound_to 1382
  108.3306  274.7747  316.5408 LP  0  0  0  0  0  0  0  0  0  0  0  0  # atno 13466 bound_to 1382
  106.5738  275.1763  317.3445 LP  0  0  0  0  0  0  0  0  0  0  0  0  # atno 13467 bound_to 1385
  105.2445  275.1511  318.2927 LP  0  0  0  0  0  0  0  0  0  0  0  0  # atno 13468 bound_to 1385
  106.1269  275.8141  313.9703 LP  0  0  0  0  0  0  0  0  0  0  0  0  # atno 13469 bound_to 1409
  110.7405  276.1867  314.3747 LP  0  0  0  0  0  0  0  0  0  0  0  0  # atno 13470 bound_to 1412
  110.6517  277.3506  315.6543 LP  0  0  0  0  0  0  0  0  0  0  0  0  # atno 13471 bound_to 1412
  108.6293  277.3575  314.9445 LP  0  0  0  0  0  0  0  0  0  0  0  0  # atno 13472 bound_to 1452
  111.1949  277.4312  318.2110 LP  0  0  0  0  0  0  0  0  0  0  0  0  # atno 13473 bound_to 1455
  110.1923  277.7681  319.5826 LP  0  0  0  0  0  0  0  0  0  0  0  0  # atno 13474 bound_to 1455
  108.3991  275.6482  317.2538 LP  0  0  0  0  0  0  0  0  0  0  0  0  # atno 13479 bound_to 1477
  112.1197  273.2351  318.4948 LP  0  0  0  0  0  0  0  0  0  0  0  0  # atno 13480 bound_to 1480
  111.6316  274.1821  319.8604 LP  0  0  0  0  0  0  0  0  0  0  0  0  # atno 13481 bound_to 1480
  109.3751  273.7222  317.2092 LP  0  0  0  0  0  0  0  0  0  0  0  0  # atno 13482 bound_to 1510
  111.9983  275.4076  315.1603 LP  0  0  0  0  0  0  0  0  0  0  0  0  # atno 13483 bound_to 1551
  116.9787  275.5091  316.9946 LP  0  0  0  0  0  0  0  0  0  0  0  0  # atno 13484 bound_to 1554
  116.3257  274.2593  315.9887 LP  0  0  0  0  0  0  0  0  0  0  0  0  # atno 13485 bound_to 1554
  124.1328  279.5900  310.2840 LP  0  0  0  0  0  0  0  0  0  0  0  0  # atno 13496 bound_to 2319
  123.8968  278.8314  308.7449 LP  0  0  0  0  0  0  0  0  0  0  0  0  # atno 13497 bound_to 2319
  123.6800  276.8017  309.9431 LP  0  0  0  0  0  0  0  0  0  0  0  0  # atno 13498 bound_to 2428
  119.0804  278.1742  310.8112 LP  0  0  0  0  0  0  0  0  0  0  0  0  # atno 13499 bound_to 2431
  119.1392  276.7953  309.7647 LP  0  0  0  0  0  0  0  0  0  0  0  0  # atno 13500 bound_to 2431
  121.4591  277.5499  309.1335 LP  0  0  0  0  0  0  0  0  0  0  0  0  # atno 13501 bound_to 2467
  125.2877  276.4042  310.3419 LP  0  0  0  0  0  0  0  0  0  0  0  0  # atno 13504 bound_to 2287
  125.4399  276.0643  312.0335 LP  0  0  0  0  0  0  0  0  0  0  0  0  # atno 13505 bound_to 2287
  128.2960  277.9605  311.4851 LP  0  0  0  0  0  0  0  0  0  0  0  0  # atno 13506 bound_to 2316
  125.8803  278.1000  309.2711 LP  0  0  0  0  0  0  0  0  0  0  0  0  # atno 13507 bound_to 2351
  122.4997  276.8717  307.3769 LP  0  0  0  0  0  0  0  0  0  0  0  0  # atno 13508 bound_to 2354
  123.2433  277.4568  305.9262 LP  0  0  0  0  0  0  0  0  0  0  0  0  # atno 13509 bound_to 2354
  125.6866  275.7403  307.8510 LP  0  0  0  0  0  0  0  0  0  0  0  0  # atno 13510 bound_to 2383
  121.1741  275.0355  307.9070 LP  0  0  0  0  0  0  0  0  0  0  0  0  # atno 13511 bound_to 2386
  120.7774  274.8784  309.5856 LP  0  0  0  0  0  0  0  0  0  0  0  0  # atno 13512 bound_to 2386
  117.8913  278.4800  307.7696 LP  0  0  0  0  0  0  0  0  0  0  0  0  # atno 13513 bound_to 2470
  118.3807  279.0723  306.2173 LP  0  0  0  0  0  0  0  0  0  0  0  0  # atno 13514 bound_to 2470
  119.8975  278.0118  307.4422 LP  0  0  0  0  0  0  0  0  0  0  0  0  # atno 13517 bound_to 2497
  117.3607  276.3883  310.0029 LP  0  0  0  0  0  0  0  0  0  0  0  0  # atno 13518 bound_to 2558
  119.7243  275.4348  308.2928 LP  0  0  0  0  0  0  0  0  0  0  0  0  # atno 13519 bound_to 2525
  115.7992  277.5638  307.5850 LP  0  0  0  0  0  0  0  0  0  0  0  0  # atno 13520 bound_to 2587
  114.6844  275.9906  309.0865 LP  0  0  0  0  0  0  0  0  0  0  0  0  # atno 13521 bound_to 2528
  115.1941  274.4026  308.6188 LP  0  0  0  0  0  0  0  0  0  0  0  0  # atno 13522 bound_to 2528
  113.4336  278.3799  309.4578 LP  0  0  0  0  0  0  0  0  0  0  0  0  # atno 13523 bound_to 2561
  113.2276  278.1358  307.7555 LP  0  0  0  0  0  0  0  0  0  0  0  0  # atno 13524 bound_to 2561
  111.0361  276.5790  307.4032 LP  0  0  0  0  0  0  0  0  0  0  0  0  # atno 13525 bound_to 2698
  113.5885  274.7469  308.0180 LP  0  0  0  0  0  0  0  0  0  0  0  0  # atno 13526 bound_to 2660
  108.8358  276.0343  307.5050 LP  0  0  0  0  0  0  0  0  0  0  0  0  # atno 13527 bound_to 2663
  108.9457  275.8413  309.2228 LP  0  0  0  0  0  0  0  0  0  0  0  0  # atno 13528 bound_to 2663
  112.5385  278.5524  304.9692 LP  0  0  0  0  0  0  0  0  0  0  0  0  # atno 13529 bound_to 2590
  112.1399  276.9680  305.5444 LP  0  0  0  0  0  0  0  0  0  0  0  0  # atno 13530 bound_to 2590
  114.2423  277.1979  305.5178 LP  0  0  0  0  0  0  0  0  0  0  0  0  # atno 13531 bound_to 2631
  107.4160  277.7679  305.8615 LP  0  0  0  0  0  0  0  0  0  0  0  0  # atno 13532 bound_to 2701
  107.7291  279.2202  306.7518 LP  0  0  0  0  0  0  0  0  0  0  0  0  # atno 13533 bound_to 2701
  109.5387  277.0904  306.1290 LP  0  0  0  0  0  0  0  0  0  0  0  0  # atno 13534 bound_to 2721
  113.9690  273.1477  317.3318 LP  0  0  0  0  0  0  0  0  0  0  0  0  # atno 13535 bound_to 1513
  113.9966  272.5098  315.7217 LP  0  0  0  0  0  0  0  0  0  0  0  0  # atno 13536 bound_to 1513
  111.0110  275.1555  305.4188 LP  0  0  0  0  0  0  0  0  0  0  0  0  # atno 13537 bound_to 2634
  111.1643  273.6620  306.2826 LP  0  0  0  0  0  0  0  0  0  0  0  0  # atno 13538 bound_to 2634
  107.8788  273.2637  306.4945 LP  0  0  0  0  0  0  0  0  0  0  0  0  # atno 13539 bound_to 2776
  107.5426  272.6103  311.0162 LP  0  0  0  0  0  0  0  0  0  0  0  0  # atno 13540 bound_to 2779
  108.0313  271.0282  310.5082 LP  0  0  0  0  0  0  0  0  0  0  0  0  # atno 13541 bound_to 2779

> <Gold.Score>
     Fitness  S(hb_ext) S(vdw_ext)  S(hb_int)    S(int)      intcor
     21.06       6.74      10.46       0.00      -0.05      -0.78

> <Gold.Goldscore.Fitness>
21.0640

> <Gold.Goldscore.Internal.Vdw>
-0.4505

> <Gold.Goldscore.Internal.Torsion>
-0.3792

> <Gold.Goldscore.External.Vdw>
10.4584

> <Gold.Goldscore.Internal.HBond>
0.0000

> <Gold.Goldscore.External.HBond>
6.7381

> <Gold.Goldscore.Internal.Correction>
-0.7752

> <Gold.Goldscore.Hbonds>
donor molecule, donor type, donor heavy atom, donor atom, acceptor molecule, acceptor atom, score
      L1  H     8    22       P1  1452  0.15
      L1  H    10    23       P1  2565  0.97

> <Gold.Goldscore.Internal.Vdw.Weighted>
-0.4505

> <Gold.Goldscore.Internal.Torsion.Weighted>
-0.3792

> <Gold.Goldscore.External.Vdw.Weighted>
14.3804

> <Gold.Goldscore.Internal.HBond.Weighted>
0.0000

> <Gold.Goldscore.External.HBond.Weighted>
6.7381

> <Gold.Goldscore.Internal.Correction.Weighted>
-0.7752

> <Gold.Rescore>
     Score     S(PLP)   S(hbond)     S(cho)   S(metal)  DE(clash)   DE(tors)     intcor
     11.78      -9.39       0.93       0.00       0.00       0.00       0.20       ----

> <Gold.PLP.Fitness>
11.7755

> <Gold.PLP.PLP>
-9.3868

> <Gold.PLP.part.hbond>
-1.9194

> <Gold.PLP.part.metal>
0.0000

> <Gold.PLP.part.buried>
-3.8062

> <Gold.PLP.part.nonpolar>
-5.0546

> <Gold.PLP.part.repulsive>
0.7417

> <Gold.PLP.ligand.clash>
0.0000

> <Gold.PLP.ligand.torsion>
0.1976

> <Gold.PLP.Chemscore.Hbond>
0.9280

> <Gold.PLP.Chemscore.CHOScore>
0.0000

> <Gold.PLP.Chemscore.Metal>
0.0000

> <Gold.Chemscore.Hbonds>
donor molecule, donor type, donor heavy atom, donor atom, acceptor molecule, acceptor atom, score
      L1  H    10    23       P1  2565  1.00

> <Gold.PLP.Chemscore.Internal.Correction>
   9.000000E+99

#       Name:                CT1002167954
#       Creating user name   hitesit
#       Creation time:       Sun Apr 16 22:53:11 2023


#       File generated by GOLD software.
#

@<TRIPOS>MOLECULE
CT1002167954|ligand_prepared|mol2|1|dock8
    29    30     1
SMALL
NO_CHARGES


@<TRIPOS>ATOM
      1 C1         109.7536 281.8503 313.6634 C.3            1 RES1               0.0000
      2 C2         108.2381 282.0053 313.9037 C.ar           1 RES1               0.0000
      3 C3         110.2304 280.7628 314.6217 C.2            1 RES1               0.0000
      4 C4         109.9179 281.4963 312.1895 C.2            1 RES1               0.0000
      5 C5         110.5648 283.1378 313.9388 C.3            1 RES1               0.0000
      6 C6         107.7638 282.7304 314.9928 C.ar           1 RES1               0.0000
      7 C7         107.3037 281.4323 313.0451 C.ar           1 RES1               0.0000
      8 N8         110.5322 279.5426 314.0929 N.am           1 RES1               0.0000
      9 O9         110.3025 280.9611 315.8283 O.2            1 RES1               0.0000
     10 N10        110.4113 280.2564 311.8780 N.am           1 RES1               0.0000
     11 O11        109.6089 282.2737 311.2948 O.2            1 RES1               0.0000
     12 C12        112.0402 283.0192 313.5906 C.3            1 RES1               0.0000
     13 C13        106.4047 282.8798 315.2139 C.ar           1 RES1               0.0000
     14 C14        105.9450 281.5827 313.2682 C.ar           1 RES1               0.0000
     15 C15        110.6970 279.2522 312.7624 C.2            1 RES1               0.0000
     16 C16        105.4945 282.3065 314.3517 C.ar           1 RES1               0.0000
     17 O17        111.0856 278.1448 312.4020 O.2            1 RES1               0.0000
     18 H18        110.1299 283.9603 313.3577 H              1 RES1               0.0000
     19 H19        110.4724 283.3928 315.0018 H              1 RES1               0.0000
     20 H20        108.4651 283.1867 315.6835 H              1 RES1               0.0000
     21 H21        107.6352 280.8577 312.1869 H              1 RES1               0.0000
     22 H22        110.6459 278.7749 314.7472 H              1 RES1               0.0000
     23 H23        110.5814 280.0644 310.8960 H              1 RES1               0.0000
     24 H24        112.5627 283.9496 313.8029 H              1 RES1               0.0000
     25 H25        112.5106 282.2268 314.1690 H              1 RES1               0.0000
     26 H26        112.1701 282.7909 312.5347 H              1 RES1               0.0000
     27 H27        106.0553 283.4492 316.0688 H              1 RES1               0.0000
     28 H28        105.2322 281.1293 312.5873 H              1 RES1               0.0000
     29 H29        104.4299 282.4240 314.5249 H              1 RES1               0.0000
@<TRIPOS>BOND
    1    1    2 1     
    2    1    3 1     
    3    1    4 1     
    4    1    5 1     
    5    2    6 ar    
    6    2    7 ar    
    7    3    8 1     
    8    3    9 2     
    9    4   10 1     
   10    4   11 2     
   11    5   12 1     
   12    5   18 1     
   13    5   19 1     
   14    6   13 ar    
   15    6   20 1     
   16    7   14 ar    
   17    7   21 1     
   18    8   15 1     
   19    8   22 1     
   20   10   15 1     
   21   10   23 1     
   22   12   24 1     
   23   12   25 1     
   24   12   26 1     
   25   13   16 ar    
   26   13   27 1     
   27   14   16 ar    
   28   14   28 1     
   29   15   17 2     
   30   16   29 1     
@<TRIPOS>SUBSTRUCTURE
      1 RES1           1
@<TRIPOS>SET
DONOR_HYDROGENS      STATIC     ATOMS    <user>   **** ""
2 22 23
ATOM$RED        STATIC     ATOMS    COLORGROUP SYSTEM
2 22 23
@<TRIPOS>COMMENT
> <Gold.Version>
2022.3.0

> <Gold.Id.Protein>
unknown|5adg_clean|pdb

> <Gold.Protein.RotatedTorsions>
[ 1394 1385 1383 1380 ] final -133.92 input   60.03 | X-H torsion
[ 1425 1409 1410 1411 ] final  170.06 input  129.35 | X-H torsion
[ 1462 1452 1453 1454 ] final -104.60 input  108.99 | X-H torsion
[ 1488 1477 1478 1479 ] final   69.49 input  100.07 | X-H torsion
[ 1521 1510 1511 1512 ] final  122.07 input  113.76 | X-H torsion
[ 1570 1551 1552 1553 ] final  160.41 input  123.58 | X-H torsion
[ 1707 1683 1682 1681 ] final -120.92 input   60.00 | X-H torsion
[ 2445 2428 2429 2430 ] final -155.61 input  119.94 | X-H torsion
[ 2478 2467 2468 2469 ] final  118.47 input  117.54 | X-H torsion
[ 2333 2316 2317 2318 ] final -100.37 input  118.58 | X-H torsion
[ 2366 2351 2352 2353 ] final  144.88 input  116.99 | X-H torsion
[ 2407 2383 2384 2385 ] final  -88.17 input  115.65 | X-H torsion
[ 2510 2497 2498 2499 ] final  -12.61 input  121.55 | X-H torsion
[ 2572 2558 2559 2560 ] final  -81.61 input  118.05 | X-H torsion
[ 2541 2525 2526 2527 ] final   43.67 input  116.25 | X-H torsion
[ 2611 2587 2588 2589 ] final -165.40 input  123.81 | X-H torsion
[ 2710 2698 2699 2700 ] final -151.40 input  119.89 | X-H torsion
[ 2679 2660 2661 2662 ] final  -10.84 input  116.13 | X-H torsion
[ 2646 2631 2632 2633 ] final -146.75 input  117.28 | X-H torsion
[ 2736 2721 2722 2723 ] final  170.14 input   88.34 | X-H torsion
[ 2782 2776 2777 2778 ] final -170.92 input -114.77 | X-H torsion
[ 2619 2595 2594 2593 ] final   55.73 input   60.00 | X-H torsion
[ 1697 1675 1676 1677 ] final -171.92 input  120.12 | X-H torsion
[ 1635 1616 1617 1618 ] final  155.21 input  110.97 | X-H torsion
[ 2757 2749 2750 2751 ] final -172.90 input   47.81 | X-H torsion
[ 13465 1382 1381 1380 ] final -125.47 input    0.00 | X-H torsion
[ 13470 1412 1411 1410 ] final  150.96 input    0.00 | X-H torsion
[ 13473 1455 1454 1453 ] final  112.68 input   -0.00 | X-H torsion
[ 13480 1480 1479 1478 ] final  -59.44 input   -0.00 | X-H torsion
[ 13484 1554 1553 1552 ] final  101.30 input    0.00 | X-H torsion
[ 13496 2319 2318 2317 ] final  -98.86 input   -0.00 | X-H torsion
[ 13499 2431 2430 2429 ] final  -52.76 input    0.00 | X-H torsion
[ 13504 2287 2286 2285 ] final   -4.38 input   -0.00 | X-H torsion
[ 13508 2354 2353 2352 ] final  -20.45 input    0.00 | X-H torsion
[ 13511 2386 2385 2384 ] final -107.31 input    0.00 | X-H torsion
[ 13513 2470 2469 2468 ] final  -22.02 input   -0.00 | X-H torsion
[ 13521 2528 2527 2526 ] final -171.65 input    0.00 | X-H torsion
[ 13523 2561 2560 2559 ] final -122.86 input   -0.00 | X-H torsion
[ 13527 2663 2662 2661 ] final  -60.59 input    0.00 | X-H torsion
[ 13529 2590 2589 2588 ] final -166.35 input   -0.00 | X-H torsion
[ 13532 2701 2700 2699 ] final  -74.51 input    0.00 | X-H torsion
[ 13535 1513 1512 1511 ] final   -5.80 input    0.00 | X-H torsion
[ 13537 2634 2633 2632 ] final   88.27 input    0.00 | X-H torsion
[ 13540 2779 2778 2777 ] final  -13.59 input    0.00 | X-H torsion

> <Gold.Protein.ActiveResidues>
 THR355  LYS356  ASP357  GLN358  LEU359  PHE360  PRO361  LEU362  ALA363  LYS364 
 ASP368  PHE377  GLY378  HIS382  MET383  GLU384  ARG385  LEU386  GLU387  GLU388 
 VAL389  ASN390  LYS391  GLU392  ILE393  ASP394  THR395  THR396  SER397 

> <Gold.Protein.RotatedAtoms>
  105.0673  275.5248  318.2553 H   0  0  0  0  0  0  0  0  0  0  0  0  # atno 1394 bound_to 1385
  106.3863  275.0608  313.4325 H   0  0  0  0  0  0  0  0  0  0  0  0  # atno 1425 bound_to 1409
  108.6864  277.3546  314.9601 H   0  0  0  0  0  0  0  0  0  0  0  0  # atno 1462 bound_to 1452
  108.2091  275.6094  317.3426 H   0  0  0  0  0  0  0  0  0  0  0  0  # atno 1488 bound_to 1477
  109.4439  274.3938  316.5753 H   0  0  0  0  0  0  0  0  0  0  0  0  # atno 1521 bound_to 1510
  112.0010  275.3354  315.0928 H   0  0  0  0  0  0  0  0  0  0  0  0  # atno 1570 bound_to 1551
  114.2366  273.8562  319.4418 H   0  0  0  0  0  0  0  0  0  0  0  0  # atno 1635 bound_to 1616
  117.9044  274.0530  315.7309 H   0  0  0  0  0  0  0  0  0  0  0  0  # atno 1697 bound_to 1675
  122.8300  279.0284  319.8888 H   0  0  0  0  0  0  0  0  0  0  0  0  # atno 1707 bound_to 1683
  122.2110  277.5283  319.5533 H   0  0  0  0  0  0  0  0  0  0  0  0  # atno 1708 bound_to 1683
  123.4844  278.1160  318.6697 H   0  0  0  0  0  0  0  0  0  0  0  0  # atno 1709 bound_to 1683
  127.2610  277.1577  311.5885 H   0  0  0  0  0  0  0  0  0  0  0  0  # atno 2333 bound_to 2316
  127.2679  278.5073  308.3063 H   0  0  0  0  0  0  0  0  0  0  0  0  # atno 2366 bound_to 2351
  124.6672  276.5388  307.3175 H   0  0  0  0  0  0  0  0  0  0  0  0  # atno 2407 bound_to 2383
  123.3297  275.4422  310.4976 H   0  0  0  0  0  0  0  0  0  0  0  0  # atno 2445 bound_to 2428
  122.3850  278.6515  309.2439 H   0  0  0  0  0  0  0  0  0  0  0  0  # atno 2478 bound_to 2467
  119.9673  277.6845  307.7238 H   0  0  0  0  0  0  0  0  0  0  0  0  # atno 2510 bound_to 2497
  119.1294  276.2608  308.1503 H   0  0  0  0  0  0  0  0  0  0  0  0  # atno 2541 bound_to 2525
  116.6922  275.9630  309.3332 H   0  0  0  0  0  0  0  0  0  0  0  0  # atno 2572 bound_to 2558
  116.1309  279.2753  307.6615 H   0  0  0  0  0  0  0  0  0  0  0  0  # atno 2611 bound_to 2587
  119.8456  280.8272  302.6624 H   0  0  0  0  0  0  0  0  0  0  0  0  # atno 2619 bound_to 2595
  119.9022  282.4201  303.1185 H   0  0  0  0  0  0  0  0  0  0  0  0  # atno 2620 bound_to 2595
  119.7512  281.2336  304.2671 H   0  0  0  0  0  0  0  0  0  0  0  0  # atno 2621 bound_to 2595
  115.0113  276.8203  305.1586 H   0  0  0  0  0  0  0  0  0  0  0  0  # atno 2646 bound_to 2631
  112.7015  275.7845  306.9297 H   0  0  0  0  0  0  0  0  0  0  0  0  # atno 2679 bound_to 2660
  111.3590  277.4085  308.8435 H   0  0  0  0  0  0  0  0  0  0  0  0  # atno 2710 bound_to 2698
  110.4812  278.3157  305.3499 H   0  0  0  0  0  0  0  0  0  0  0  0  # atno 2736 bound_to 2721
  109.0996  275.3959  303.9800 H   0  0  0  0  0  0  0  0  0  0  0  0  # atno 2757 bound_to 2749
  107.4835  274.8074  306.7931 H   0  0  0  0  0  0  0  0  0  0  0  0  # atno 2782 bound_to 2776
  108.5900  274.9094  316.1941 LP  0  0  0  0  0  0  0  0  0  0  0  0  # atno 13465 bound_to 1382
  108.2405  273.2427  315.8781 LP  0  0  0  0  0  0  0  0  0  0  0  0  # atno 13466 bound_to 1382
  105.9714  276.4182  317.2393 LP  0  0  0  0  0  0  0  0  0  0  0  0  # atno 13467 bound_to 1385
  106.4056  274.8832  317.5882 LP  0  0  0  0  0  0  0  0  0  0  0  0  # atno 13468 bound_to 1385
  106.8147  275.2768  315.1150 LP  0  0  0  0  0  0  0  0  0  0  0  0  # atno 13469 bound_to 1409
  110.6613  277.5099  315.4610 LP  0  0  0  0  0  0  0  0  0  0  0  0  # atno 13470 bound_to 1412
  110.7309  276.0274  314.5679 LP  0  0  0  0  0  0  0  0  0  0  0  0  # atno 13471 bound_to 1412
  107.3216  276.7542  315.8798 LP  0  0  0  0  0  0  0  0  0  0  0  0  # atno 13472 bound_to 1452
  110.2255  277.5991  319.6254 LP  0  0  0  0  0  0  0  0  0  0  0  0  # atno 13473 bound_to 1455
  111.1618  277.6002  318.1682 LP  0  0  0  0  0  0  0  0  0  0  0  0  # atno 13474 bound_to 1455
  108.8443  276.8829  318.3573 LP  0  0  0  0  0  0  0  0  0  0  0  0  # atno 13479 bound_to 1477
  112.0211  274.5251  319.4266 LP  0  0  0  0  0  0  0  0  0  0  0  0  # atno 13480 bound_to 1480
  111.7301  272.8920  318.9286 LP  0  0  0  0  0  0  0  0  0  0  0  0  # atno 13481 bound_to 1480
  110.5055  274.2701  317.9594 LP  0  0  0  0  0  0  0  0  0  0  0  0  # atno 13482 bound_to 1510
  112.6001  274.4357  316.4614 LP  0  0  0  0  0  0  0  0  0  0  0  0  # atno 13483 bound_to 1551
  116.9821  275.6845  316.4659 LP  0  0  0  0  0  0  0  0  0  0  0  0  # atno 13484 bound_to 1554
  116.3223  274.0839  316.5174 LP  0  0  0  0  0  0  0  0  0  0  0  0  # atno 13485 bound_to 1554
  123.8135  278.3782  309.6431 LP  0  0  0  0  0  0  0  0  0  0  0  0  # atno 13496 bound_to 2319
  124.2160  280.0431  309.3858 LP  0  0  0  0  0  0  0  0  0  0  0  0  # atno 13497 bound_to 2319
  123.1175  276.6871  309.2881 LP  0  0  0  0  0  0  0  0  0  0  0  0  # atno 13498 bound_to 2428
  119.1993  276.6307  310.1757 LP  0  0  0  0  0  0  0  0  0  0  0  0  # atno 13499 bound_to 2431
  119.0203  278.3388  310.4001 LP  0  0  0  0  0  0  0  0  0  0  0  0  # atno 13500 bound_to 2431
  120.9459  277.8941  309.8868 LP  0  0  0  0  0  0  0  0  0  0  0  0  # atno 13501 bound_to 2467
  125.5652  275.3961  311.2716 LP  0  0  0  0  0  0  0  0  0  0  0  0  # atno 13504 bound_to 2287
  125.1624  277.0723  311.1038 LP  0  0  0  0  0  0  0  0  0  0  0  0  # atno 13505 bound_to 2287
  128.3356  277.7879  310.3610 LP  0  0  0  0  0  0  0  0  0  0  0  0  # atno 13506 bound_to 2316
  125.8297  278.2658  309.2688 LP  0  0  0  0  0  0  0  0  0  0  0  0  # atno 13507 bound_to 2351
  123.0086  278.0138  306.5535 LP  0  0  0  0  0  0  0  0  0  0  0  0  # atno 13508 bound_to 2354
  122.7344  276.3148  306.7496 LP  0  0  0  0  0  0  0  0  0  0  0  0  # atno 13509 bound_to 2354
  125.5023  276.1222  308.7937 LP  0  0  0  0  0  0  0  0  0  0  0  0  # atno 13510 bound_to 2383
  120.8323  275.7448  308.4166 LP  0  0  0  0  0  0  0  0  0  0  0  0  # atno 13511 bound_to 2386
  121.1192  274.1691  309.0760 LP  0  0  0  0  0  0  0  0  0  0  0  0  # atno 13512 bound_to 2386
  118.0594  279.2359  307.7234 LP  0  0  0  0  0  0  0  0  0  0  0  0  # atno 13513 bound_to 2470
  118.2127  278.3164  306.2635 LP  0  0  0  0  0  0  0  0  0  0  0  0  # atno 13514 bound_to 2470
  121.3553  277.7766  306.6631 LP  0  0  0  0  0  0  0  0  0  0  0  0  # atno 13517 bound_to 2497
  117.8879  277.1951  309.0034 LP  0  0  0  0  0  0  0  0  0  0  0  0  # atno 13518 bound_to 2558
  119.2299  274.8431  307.1300 LP  0  0  0  0  0  0  0  0  0  0  0  0  # atno 13519 bound_to 2525
  115.6926  277.5813  307.6534 LP  0  0  0  0  0  0  0  0  0  0  0  0  # atno 13520 bound_to 2587
  114.6846  276.0185  308.9503 LP  0  0  0  0  0  0  0  0  0  0  0  0  # atno 13521 bound_to 2528
  115.1939  274.3746  308.7550 LP  0  0  0  0  0  0  0  0  0  0  0  0  # atno 13522 bound_to 2528
  113.2541  277.6449  307.9996 LP  0  0  0  0  0  0  0  0  0  0  0  0  # atno 13523 bound_to 2561
  113.4071  278.8708  309.2137 LP  0  0  0  0  0  0  0  0  0  0  0  0  # atno 13524 bound_to 2561
  111.3657  276.7800  307.2119 LP  0  0  0  0  0  0  0  0  0  0  0  0  # atno 13525 bound_to 2698
  113.5807  274.7298  308.0080 LP  0  0  0  0  0  0  0  0  0  0  0  0  # atno 13526 bound_to 2660
  108.9999  275.2973  307.7914 LP  0  0  0  0  0  0  0  0  0  0  0  0  # atno 13527 bound_to 2663
  108.7816  276.5784  308.9364 LP  0  0  0  0  0  0  0  0  0  0  0  0  # atno 13528 bound_to 2663
  112.1695  276.9279  305.4257 LP  0  0  0  0  0  0  0  0  0  0  0  0  # atno 13529 bound_to 2590
  112.5090  278.5924  305.0879 LP  0  0  0  0  0  0  0  0  0  0  0  0  # atno 13530 bound_to 2590
  114.5690  276.6830  306.8454 LP  0  0  0  0  0  0  0  0  0  0  0  0  # atno 13531 bound_to 2631
  107.4460  277.8550  306.8773 LP  0  0  0  0  0  0  0  0  0  0  0  0  # atno 13532 bound_to 2701
  107.6991  279.1330  305.7360 LP  0  0  0  0  0  0  0  0  0  0  0  0  # atno 13533 bound_to 2701
  109.7216  276.9128  306.0728 LP  0  0  0  0  0  0  0  0  0  0  0  0  # atno 13534 bound_to 2721
  113.4469  272.2026  316.7929 LP  0  0  0  0  0  0  0  0  0  0  0  0  # atno 13535 bound_to 1513
  114.5187  273.4548  316.2606 LP  0  0  0  0  0  0  0  0  0  0  0  0  # atno 13536 bound_to 1513
  111.3199  273.5855  305.9862 LP  0  0  0  0  0  0  0  0  0  0  0  0  # atno 13537 bound_to 2634
  110.8554  275.2320  305.7152 LP  0  0  0  0  0  0  0  0  0  0  0  0  # atno 13538 bound_to 2634
  108.4884  273.3746  306.6988 LP  0  0  0  0  0  0  0  0  0  0  0  0  # atno 13539 bound_to 2776
  107.2840  272.5108  310.8992 LP  0  0  0  0  0  0  0  0  0  0  0  0  # atno 13540 bound_to 2779
  108.2900  271.1278  310.6251 LP  0  0  0  0  0  0  0  0  0  0  0  0  # atno 13541 bound_to 2779

> <Gold.Score>
     Fitness  S(hb_ext) S(vdw_ext)  S(hb_int)    S(int)      intcor
     18.80       2.47      12.81       0.00      -1.29      -0.76

> <Gold.Goldscore.Fitness>
18.8012

> <Gold.Goldscore.Internal.Vdw>
-1.6499

> <Gold.Goldscore.Internal.Torsion>
-0.4020

> <Gold.Goldscore.External.Vdw>
12.8118

> <Gold.Goldscore.Internal.HBond>
0.0000

> <Gold.Goldscore.External.HBond>
2.4719

> <Gold.Goldscore.Internal.Correction>
-0.7650

> <Gold.Goldscore.Hbonds>
donor molecule, donor type, donor heavy atom, donor atom, acceptor molecule, acceptor atom, score
      L1  H     8    22       P1  1412  0.02
      L1  H    10    23       P1  2704  0.41

> <Gold.Goldscore.Internal.Vdw.Weighted>
-1.6499

> <Gold.Goldscore.Internal.Torsion.Weighted>
-0.4020

> <Gold.Goldscore.External.Vdw.Weighted>
17.6162

> <Gold.Goldscore.Internal.HBond.Weighted>
0.0000

> <Gold.Goldscore.External.HBond.Weighted>
2.4719

> <Gold.Goldscore.Internal.Correction.Weighted>
-0.7650

> <Gold.Rescore>
     Score     S(PLP)   S(hbond)     S(cho)   S(metal)  DE(clash)   DE(tors)     intcor
     15.23     -15.67       0.36       0.00       0.00       1.44       0.04       ----

> <Gold.PLP.Fitness>
15.2342

> <Gold.PLP.PLP>
-15.6675

> <Gold.PLP.part.hbond>
-1.0000

> <Gold.PLP.part.metal>
0.0000

> <Gold.PLP.part.buried>
-2.4599

> <Gold.PLP.part.nonpolar>
-14.8181

> <Gold.PLP.part.repulsive>
1.3509

> <Gold.PLP.ligand.clash>
1.4391

> <Gold.PLP.ligand.torsion>
0.0353

> <Gold.PLP.Chemscore.Hbond>
0.3588

> <Gold.PLP.Chemscore.CHOScore>
0.0000

> <Gold.PLP.Chemscore.Metal>
0.0000

> <Gold.Chemscore.Hbonds>
donor molecule, donor type, donor heavy atom, donor atom, acceptor molecule, acceptor atom, score
      L1  H     8    22       P1  1412  0.83
      L1  H    10    23       P1  2704  1.00

> <Gold.PLP.Chemscore.Internal.Correction>
   9.000000E+99

#       Name:                CT1002167954
#       Creating user name   hitesit
#       Creation time:       Sun Apr 16 22:53:09 2023


#       File generated by GOLD software.
#

@<TRIPOS>MOLECULE
CT1002167954|ligand_prepared|mol2|1|dock5
    29    30     1
SMALL
NO_CHARGES


@<TRIPOS>ATOM
      1 C1         110.2322 281.5700 312.3297 C.3            1 RES1               0.0000
      2 C2         110.3321 281.9703 313.8158 C.ar           1 RES1               0.0000
      3 C3         111.6546 281.6094 311.7789 C.2            1 RES1               0.0000
      4 C4         109.5927 280.1861 312.3027 C.2            1 RES1               0.0000
      5 C5         109.3517 282.5197 311.4846 C.3            1 RES1               0.0000
      6 C6         110.4560 283.3070 314.1829 C.ar           1 RES1               0.0000
      7 C7         110.2991 281.0162 314.8294 C.ar           1 RES1               0.0000
      8 N8         112.2721 280.4175 311.5378 N.am           1 RES1               0.0000
      9 O9         112.2399 282.6697 311.5961 O.2            1 RES1               0.0000
     10 N10        110.3505 279.1373 311.8515 N.am           1 RES1               0.0000
     11 O11        108.4450 279.9917 312.6838 O.2            1 RES1               0.0000
     12 C12        108.0221 282.8655 312.1365 C.3            1 RES1               0.0000
     13 C13        110.5409 283.6768 315.5149 C.ar           1 RES1               0.0000
     14 C14        110.3844 281.3882 316.1608 C.ar           1 RES1               0.0000
     15 C15        111.6711 279.1851 311.4967 C.2            1 RES1               0.0000
     16 C16        110.5047 282.7178 316.5047 C.ar           1 RES1               0.0000
     17 O17        112.2996 278.1881 311.1529 O.2            1 RES1               0.0000
     18 H18        109.9075 283.4477 311.3023 H              1 RES1               0.0000
     19 H19        109.1567 282.0493 310.5130 H              1 RES1               0.0000
     20 H20        110.4886 284.0754 313.4177 H              1 RES1               0.0000
     21 H21        110.2061 279.9641 314.5823 H              1 RES1               0.0000
     22 H22        113.2732 280.4451 311.3729 H              1 RES1               0.0000
     23 H23        109.8871 278.2377 311.7726 H              1 RES1               0.0000
     24 H24        107.4438 283.5340 311.5022 H              1 RES1               0.0000
     25 H25        107.4322 281.9678 312.3094 H              1 RES1               0.0000
     26 H26        108.1786 283.3579 313.0941 H              1 RES1               0.0000
     27 H27        110.6368 284.7244 315.7802 H              1 RES1               0.0000
     28 H28        110.3561 280.6300 316.9365 H              1 RES1               0.0000
     29 H29        110.5708 283.0078 317.5481 H              1 RES1               0.0000
@<TRIPOS>BOND
    1    1    2 1     
    2    1    3 1     
    3    1    4 1     
    4    1    5 1     
    5    2    6 ar    
    6    2    7 ar    
    7    3    8 1     
    8    3    9 2     
    9    4   10 1     
   10    4   11 2     
   11    5   12 1     
   12    5   18 1     
   13    5   19 1     
   14    6   13 ar    
   15    6   20 1     
   16    7   14 ar    
   17    7   21 1     
   18    8   15 1     
   19    8   22 1     
   20   10   15 1     
   21   10   23 1     
   22   12   24 1     
   23   12   25 1     
   24   12   26 1     
   25   13   16 ar    
   26   13   27 1     
   27   14   16 ar    
   28   14   28 1     
   29   15   17 2     
   30   16   29 1     
@<TRIPOS>SUBSTRUCTURE
      1 RES1           1
@<TRIPOS>SET
DONOR_HYDROGENS      STATIC     ATOMS    <user>   **** ""
2 22 23
ATOM$RED        STATIC     ATOMS    COLORGROUP SYSTEM
2 22 23
@<TRIPOS>COMMENT
> <Gold.Version>
2022.3.0

> <Gold.Id.Protein>
unknown|5adg_clean|pdb

> <Gold.Protein.RotatedTorsions>
[ 1394 1385 1383 1380 ] final  -72.08 input   60.03 | X-H torsion
[ 1425 1409 1410 1411 ] final  -65.95 input  129.35 | X-H torsion
[ 1462 1452 1453 1454 ] final  178.38 input  108.99 | X-H torsion
[ 1488 1477 1478 1479 ] final  123.47 input  100.07 | X-H torsion
[ 1521 1510 1511 1512 ] final   27.54 input  113.76 | X-H torsion
[ 1570 1551 1552 1553 ] final  125.38 input  123.58 | X-H torsion
[ 1707 1683 1682 1681 ] final  -76.21 input   60.00 | X-H torsion
[ 2445 2428 2429 2430 ] final  -29.94 input  119.94 | X-H torsion
[ 2478 2467 2468 2469 ] final   25.31 input  117.54 | X-H torsion
[ 2333 2316 2317 2318 ] final  -70.76 input  118.58 | X-H torsion
[ 2366 2351 2352 2353 ] final   11.41 input  116.99 | X-H torsion
[ 2407 2383 2384 2385 ] final   47.28 input  115.65 | X-H torsion
[ 2510 2497 2498 2499 ] final  127.29 input  121.55 | X-H torsion
[ 2572 2558 2559 2560 ] final  -18.59 input  118.05 | X-H torsion
[ 2541 2525 2526 2527 ] final   68.68 input  116.25 | X-H torsion
[ 2611 2587 2588 2589 ] final -162.47 input  123.81 | X-H torsion
[ 2710 2698 2699 2700 ] final -133.19 input  119.89 | X-H torsion
[ 2679 2660 2661 2662 ] final  -82.71 input  116.13 | X-H torsion
[ 2646 2631 2632 2633 ] final  131.18 input  117.28 | X-H torsion
[ 2736 2721 2722 2723 ] final -146.02 input   88.34 | X-H torsion
[ 2782 2776 2777 2778 ] final  -64.86 input -114.77 | X-H torsion
[ 2619 2595 2594 2593 ] final -141.26 input   60.00 | X-H torsion
[ 1697 1675 1676 1677 ] final -157.81 input  120.12 | X-H torsion
[ 1635 1616 1617 1618 ] final  132.10 input  110.97 | X-H torsion
[ 2757 2749 2750 2751 ] final -143.32 input   47.81 | X-H torsion
[ 13465 1382 1381 1380 ] final -126.49 input    0.00 | X-H torsion
[ 13470 1412 1411 1410 ] final -176.06 input    0.00 | X-H torsion
[ 13473 1455 1454 1453 ] final  173.75 input   -0.00 | X-H torsion
[ 13480 1480 1479 1478 ] final   73.32 input   -0.00 | X-H torsion
[ 13484 1554 1553 1552 ] final  176.29 input    0.00 | X-H torsion
[ 13496 2319 2318 2317 ] final  -93.65 input   -0.00 | X-H torsion
[ 13499 2431 2430 2429 ] final  -22.85 input    0.00 | X-H torsion
[ 13504 2287 2286 2285 ] final   50.26 input   -0.00 | X-H torsion
[ 13508 2354 2353 2352 ] final   58.07 input    0.00 | X-H torsion
[ 13511 2386 2385 2384 ] final -155.37 input    0.00 | X-H torsion
[ 13513 2470 2469 2468 ] final  117.98 input   -0.00 | X-H torsion
[ 13521 2528 2527 2526 ] final -118.53 input    0.00 | X-H torsion
[ 13523 2561 2560 2559 ] final   95.89 input   -0.00 | X-H torsion
[ 13527 2663 2662 2661 ] final  -76.64 input    0.00 | X-H torsion
[ 13529 2590 2589 2588 ] final -156.84 input   -0.00 | X-H torsion
[ 13532 2701 2700 2699 ] final  140.87 input    0.00 | X-H torsion
[ 13535 1513 1512 1511 ] final   11.27 input    0.00 | X-H torsion
[ 13537 2634 2633 2632 ] final -116.66 input    0.00 | X-H torsion
[ 13540 2779 2778 2777 ] final  -40.47 input    0.00 | X-H torsion

> <Gold.Protein.ActiveResidues>
 THR355  LYS356  ASP357  GLN358  LEU359  PHE360  PRO361  LEU362  ALA363  LYS364 
 ASP368  PHE377  GLY378  HIS382  MET383  GLU384  ARG385  LEU386  GLU387  GLU388 
 VAL389  ASN390  LYS391  GLU392  ILE393  ASP394  THR395  THR396  SER397 

> <Gold.Protein.RotatedAtoms>
  105.6801  274.7930  318.1354 H   0  0  0  0  0  0  0  0  0  0  0  0  # atno 1394 bound_to 1385
  107.0939  274.5942  314.7522 H   0  0  0  0  0  0  0  0  0  0  0  0  # atno 1425 bound_to 1409
  107.6846  277.8175  315.0940 H   0  0  0  0  0  0  0  0  0  0  0  0  # atno 1462 bound_to 1452
  107.7410  275.8649  317.9423 H   0  0  0  0  0  0  0  0  0  0  0  0  # atno 1488 bound_to 1477
  110.4523  275.0530  317.0690 H   0  0  0  0  0  0  0  0  0  0  0  0  # atno 1521 bound_to 1510
  111.9454  275.6402  315.5199 H   0  0  0  0  0  0  0  0  0  0  0  0  # atno 1570 bound_to 1551
  114.1482  273.7925  319.1053 H   0  0  0  0  0  0  0  0  0  0  0  0  # atno 1635 bound_to 1616
  118.0178  273.9008  315.6239 H   0  0  0  0  0  0  0  0  0  0  0  0  # atno 1697 bound_to 1675
  122.3165  278.5574  320.0977 H   0  0  0  0  0  0  0  0  0  0  0  0  # atno 1707 bound_to 1683
  122.6593  277.3592  319.0054 H   0  0  0  0  0  0  0  0  0  0  0  0  # atno 1708 bound_to 1683
  123.5501  278.7571  319.0089 H   0  0  0  0  0  0  0  0  0  0  0  0  # atno 1709 bound_to 1683
  127.1172  276.9706  311.2016 H   0  0  0  0  0  0  0  0  0  0  0  0  # atno 2333 bound_to 2316
  126.1728  277.6750  309.1685 H   0  0  0  0  0  0  0  0  0  0  0  0  # atno 2366 bound_to 2351
  125.0321  276.5746  308.9070 H   0  0  0  0  0  0  0  0  0  0  0  0  # atno 2407 bound_to 2383
  122.6676  276.0338  309.1948 H   0  0  0  0  0  0  0  0  0  0  0  0  # atno 2445 bound_to 2428
  121.6772  277.6104  308.9759 H   0  0  0  0  0  0  0  0  0  0  0  0  # atno 2478 bound_to 2467
  121.4518  277.3306  307.0534 H   0  0  0  0  0  0  0  0  0  0  0  0  # atno 2510 bound_to 2497
  119.3869  276.0434  308.3351 H   0  0  0  0  0  0  0  0  0  0  0  0  # atno 2541 bound_to 2525
  116.7983  276.3196  308.4854 H   0  0  0  0  0  0  0  0  0  0  0  0  # atno 2572 bound_to 2558
  116.0934  279.2837  307.6859 H   0  0  0  0  0  0  0  0  0  0  0  0  # atno 2611 bound_to 2587
  119.8470  282.3317  303.8128 H   0  0  0  0  0  0  0  0  0  0  0  0  # atno 2619 bound_to 2595
  119.7510  280.6769  303.8412 H   0  0  0  0  0  0  0  0  0  0  0  0  # atno 2620 bound_to 2595
  119.9011  281.4740  302.3948 H   0  0  0  0  0  0  0  0  0  0  0  0  # atno 2621 bound_to 2595
  115.5451  276.2912  306.0486 H   0  0  0  0  0  0  0  0  0  0  0  0  # atno 2646 bound_to 2631
  112.6976  274.7507  306.9044 H   0  0  0  0  0  0  0  0  0  0  0  0  # atno 2679 bound_to 2660
  111.1406  277.2341  308.8623 H   0  0  0  0  0  0  0  0  0  0  0  0  # atno 2710 bound_to 2698
  109.8921  278.4646  305.6219 H   0  0  0  0  0  0  0  0  0  0  0  0  # atno 2736 bound_to 2721
  108.6824  275.5636  304.0400 H   0  0  0  0  0  0  0  0  0  0  0  0  # atno 2757 bound_to 2749
  108.7992  274.3176  307.0542 H   0  0  0  0  0  0  0  0  0  0  0  0  # atno 2782 bound_to 2776
  108.5982  274.9100  316.1811 LP  0  0  0  0  0  0  0  0  0  0  0  0  # atno 13465 bound_to 1382
  108.2323  273.2421  315.8911 LP  0  0  0  0  0  0  0  0  0  0  0  0  # atno 13466 bound_to 1382
  105.2046  276.3174  317.8231 LP  0  0  0  0  0  0  0  0  0  0  0  0  # atno 13467 bound_to 1385
  106.5551  275.7211  317.1251 LP  0  0  0  0  0  0  0  0  0  0  0  0  # atno 13468 bound_to 1385
  106.1285  275.7292  313.8353 LP  0  0  0  0  0  0  0  0  0  0  0  0  # atno 13469 bound_to 1409
  110.6459  277.1466  315.7921 LP  0  0  0  0  0  0  0  0  0  0  0  0  # atno 13470 bound_to 1412
  110.7463  276.3907  314.2369 LP  0  0  0  0  0  0  0  0  0  0  0  0  # atno 13471 bound_to 1412
  108.2853  276.3088  315.7509 LP  0  0  0  0  0  0  0  0  0  0  0  0  # atno 13472 bound_to 1452
  110.6519  276.8738  319.3674 LP  0  0  0  0  0  0  0  0  0  0  0  0  # atno 13473 bound_to 1455
  110.7354  278.3254  318.4262 LP  0  0  0  0  0  0  0  0  0  0  0  0  # atno 13474 bound_to 1455
  109.3016  276.6333  317.7714 LP  0  0  0  0  0  0  0  0  0  0  0  0  # atno 13479 bound_to 1477
  111.4244  273.0582  319.5290 LP  0  0  0  0  0  0  0  0  0  0  0  0  # atno 13480 bound_to 1480
  112.3268  274.3589  318.8262 LP  0  0  0  0  0  0  0  0  0  0  0  0  # atno 13481 bound_to 1480
  109.5243  273.6287  317.4791 LP  0  0  0  0  0  0  0  0  0  0  0  0  # atno 13482 bound_to 1510
  112.6551  274.1341  316.0388 LP  0  0  0  0  0  0  0  0  0  0  0  0  # atno 13483 bound_to 1551
  116.8405  275.0758  317.3149 LP  0  0  0  0  0  0  0  0  0  0  0  0  # atno 13484 bound_to 1554
  116.4639  274.6925  315.6683 LP  0  0  0  0  0  0  0  0  0  0  0  0  # atno 13485 bound_to 1554
  123.8195  278.3925  309.7203 LP  0  0  0  0  0  0  0  0  0  0  0  0  # atno 13496 bound_to 2319
  124.2101  280.0289  309.3085 LP  0  0  0  0  0  0  0  0  0  0  0  0  # atno 13497 bound_to 2319
  123.7621  276.1112  310.5564 LP  0  0  0  0  0  0  0  0  0  0  0  0  # atno 13498 bound_to 2428
  119.2356  276.6935  310.6167 LP  0  0  0  0  0  0  0  0  0  0  0  0  # atno 13499 bound_to 2431
  118.9840  278.2760  309.9592 LP  0  0  0  0  0  0  0  0  0  0  0  0  # atno 13500 bound_to 2431
  121.6350  278.9078  310.1477 LP  0  0  0  0  0  0  0  0  0  0  0  0  # atno 13501 bound_to 2467
  125.4929  275.8225  311.9385 LP  0  0  0  0  0  0  0  0  0  0  0  0  # atno 13504 bound_to 2287
  125.2347  276.6460  310.4368 LP  0  0  0  0  0  0  0  0  0  0  0  0  # atno 13505 bound_to 2287
  128.4754  277.9697  310.7371 LP  0  0  0  0  0  0  0  0  0  0  0  0  # atno 13506 bound_to 2316
  126.9002  279.0794  308.4260 LP  0  0  0  0  0  0  0  0  0  0  0  0  # atno 13507 bound_to 2351
  123.2415  277.1899  305.8690 LP  0  0  0  0  0  0  0  0  0  0  0  0  # atno 13508 bound_to 2354
  122.5014  277.1387  307.4341 LP  0  0  0  0  0  0  0  0  0  0  0  0  # atno 13509 bound_to 2354
  125.1441  276.0870  307.2338 LP  0  0  0  0  0  0  0  0  0  0  0  0  # atno 13510 bound_to 2383
  120.6694  275.6856  309.1002 LP  0  0  0  0  0  0  0  0  0  0  0  0  # atno 13511 bound_to 2386
  121.2822  274.2283  308.3924 LP  0  0  0  0  0  0  0  0  0  0  0  0  # atno 13512 bound_to 2386
  118.3543  278.8826  306.1622 LP  0  0  0  0  0  0  0  0  0  0  0  0  # atno 13513 bound_to 2470
  117.9178  278.6697  307.8247 LP  0  0  0  0  0  0  0  0  0  0  0  0  # atno 13514 bound_to 2470
  119.9129  278.1204  307.3145 LP  0  0  0  0  0  0  0  0  0  0  0  0  # atno 13517 bound_to 2497
  117.7845  276.8479  309.8289 LP  0  0  0  0  0  0  0  0  0  0  0  0  # atno 13518 bound_to 2558
  118.9798  275.0543  306.9505 LP  0  0  0  0  0  0  0  0  0  0  0  0  # atno 13519 bound_to 2525
  115.7289  277.5732  307.6297 LP  0  0  0  0  0  0  0  0  0  0  0  0  # atno 13520 bound_to 2587
  114.8038  275.7769  308.2243 LP  0  0  0  0  0  0  0  0  0  0  0  0  # atno 13521 bound_to 2528
  115.0748  274.6163  309.4811 LP  0  0  0  0  0  0  0  0  0  0  0  0  # atno 13522 bound_to 2528
  113.3466  279.1188  308.6988 LP  0  0  0  0  0  0  0  0  0  0  0  0  # atno 13523 bound_to 2561
  113.3146  277.3969  308.5145 LP  0  0  0  0  0  0  0  0  0  0  0  0  # atno 13524 bound_to 2561
  111.5786  276.9500  307.1936 LP  0  0  0  0  0  0  0  0  0  0  0  0  # atno 13525 bound_to 2698
  113.5846  275.7445  308.0329 LP  0  0  0  0  0  0  0  0  0  0  0  0  # atno 13526 bound_to 2660
  108.9566  275.4760  307.6343 LP  0  0  0  0  0  0  0  0  0  0  0  0  # atno 13527 bound_to 2663
  108.8249  276.3996  309.0936 LP  0  0  0  0  0  0  0  0  0  0  0  0  # atno 13528 bound_to 2663
  112.1368  276.9738  305.5578 LP  0  0  0  0  0  0  0  0  0  0  0  0  # atno 13529 bound_to 2590
  112.5417  278.5466  304.9558 LP  0  0  0  0  0  0  0  0  0  0  0  0  # atno 13530 bound_to 2590
  114.0503  277.1971  305.9807 LP  0  0  0  0  0  0  0  0  0  0  0  0  # atno 13531 bound_to 2631
  107.6041  278.6924  305.4643 LP  0  0  0  0  0  0  0  0  0  0  0  0  # atno 13532 bound_to 2701
  107.5410  278.2957  307.1491 LP  0  0  0  0  0  0  0  0  0  0  0  0  # atno 13533 bound_to 2701
  110.2895  276.7693  305.8105 LP  0  0  0  0  0  0  0  0  0  0  0  0  # atno 13534 bound_to 2721
  113.4699  272.1312  316.5470 LP  0  0  0  0  0  0  0  0  0  0  0  0  # atno 13535 bound_to 1513
  114.4956  273.5263  316.5065 LP  0  0  0  0  0  0  0  0  0  0  0  0  # atno 13536 bound_to 1513
  110.7281  275.1680  306.0608 LP  0  0  0  0  0  0  0  0  0  0  0  0  # atno 13537 bound_to 2634
  111.4473  273.6494  305.6406 LP  0  0  0  0  0  0  0  0  0  0  0  0  # atno 13538 bound_to 2634
  107.2241  273.8452  306.4479 LP  0  0  0  0  0  0  0  0  0  0  0  0  # atno 13539 bound_to 2776
  107.6401  272.6228  311.0499 LP  0  0  0  0  0  0  0  0  0  0  0  0  # atno 13540 bound_to 2779
  107.9339  271.0158  310.4744 LP  0  0  0  0  0  0  0  0  0  0  0  0  # atno 13541 bound_to 2779

> <Gold.Score>
     Fitness  S(hb_ext) S(vdw_ext)  S(hb_int)    S(int)      intcor
     18.69       5.88      11.45       0.00      -2.94      -0.78

> <Gold.Goldscore.Fitness>
18.6901

> <Gold.Goldscore.Internal.Vdw>
-3.0591

> <Gold.Goldscore.Internal.Torsion>
-0.6514

> <Gold.Goldscore.External.Vdw>
11.4546

> <Gold.Goldscore.Internal.HBond>
0.0000

> <Gold.Goldscore.External.HBond>
5.8753

> <Gold.Goldscore.Internal.Correction>
-0.7752

> <Gold.Goldscore.Hbonds>
donor molecule, donor type, donor heavy atom, donor atom, acceptor molecule, acceptor atom, score
      L1  H     8    22       P1  2565  0.98

> <Gold.Goldscore.Internal.Vdw.Weighted>
-3.0591

> <Gold.Goldscore.Internal.Torsion.Weighted>
-0.6514

> <Gold.Goldscore.External.Vdw.Weighted>
15.7500

> <Gold.Goldscore.Internal.HBond.Weighted>
0.0000

> <Gold.Goldscore.External.HBond.Weighted>
5.8753

> <Gold.Goldscore.Internal.Correction.Weighted>
-0.7752

> <Gold.Rescore>
     Score     S(PLP)   S(hbond)     S(cho)   S(metal)  DE(clash)   DE(tors)     intcor
     15.16     -14.64       0.88       0.00       0.00       0.00       1.06       ----

> <Gold.PLP.Fitness>
15.1627

> <Gold.PLP.PLP>
-14.6439

> <Gold.PLP.part.hbond>
-1.0546

> <Gold.PLP.part.metal>
0.0000

> <Gold.PLP.part.buried>
-4.5153

> <Gold.PLP.part.nonpolar>
-10.3799

> <Gold.PLP.part.repulsive>
1.3940

> <Gold.PLP.ligand.clash>
0.0000

> <Gold.PLP.ligand.torsion>
1.0606

> <Gold.PLP.Chemscore.Hbond>
0.8800

> <Gold.PLP.Chemscore.CHOScore>
0.0000

> <Gold.PLP.Chemscore.Metal>
0.0000

> <Gold.Chemscore.Hbonds>
donor molecule, donor type, donor heavy atom, donor atom, acceptor molecule, acceptor atom, score
      L1  H     8    22       P1  2565  0.78

> <Gold.PLP.Chemscore.Internal.Correction>
   9.000000E+99

#       Name:                CT1002167954
#       Creating user name   hitesit
#       Creation time:       Sun Apr 16 22:53:10 2023


#       File generated by GOLD software.
#

@<TRIPOS>MOLECULE
CT1002167954|ligand_prepared|mol2|1|dock6
    29    30     1
SMALL
NO_CHARGES


@<TRIPOS>ATOM
      1 C1         110.3813 281.5237 312.4670 C.3            1 RES1               0.0000
      2 C2         110.6845 282.5739 313.5551 C.ar           1 RES1               0.0000
      3 C3         111.6741 281.3388 311.6779 C.2            1 RES1               0.0000
      4 C4         109.9159 280.2710 313.2011 C.2            1 RES1               0.0000
      5 C5         109.2629 281.9456 311.4858 C.3            1 RES1               0.0000
      6 C6         110.8825 283.9090 313.2158 C.ar           1 RES1               0.0000
      7 C7         110.7666 282.2239 314.9002 C.ar           1 RES1               0.0000
      8 N8         112.3788 280.1889 311.8802 N.am           1 RES1               0.0000
      9 O9         112.0892 282.2062 310.9193 O.2            1 RES1               0.0000
     10 N10        110.7051 279.1532 313.1274 N.am           1 RES1               0.0000
     11 O11        108.8813 280.2469 313.8564 O.2            1 RES1               0.0000
     12 C12        108.1258 282.7106 312.1445 C.3            1 RES1               0.0000
     13 C13        111.1499 284.8603 314.1862 C.ar           1 RES1               0.0000
     14 C14        111.0344 283.1768 315.8691 C.ar           1 RES1               0.0000
     15 C15        111.9307 279.0645 312.5257 C.2            1 RES1               0.0000
     16 C16        111.2256 284.4950 315.5134 C.ar           1 RES1               0.0000
     17 O17        112.6056 278.0393 312.5485 O.2            1 RES1               0.0000
     18 H18        109.7011 282.5724 310.6994 H              1 RES1               0.0000
     19 H19        108.8538 281.0464 311.0089 H              1 RES1               0.0000
     20 H20        110.8292 284.2147 312.1762 H              1 RES1               0.0000
     21 H21        110.6207 281.1926 315.2032 H              1 RES1               0.0000
     22 H22        113.3268 280.1626 311.5182 H              1 RES1               0.0000
     23 H23        110.3454 278.3089 313.5613 H              1 RES1               0.0000
     24 H24        107.3686 282.9824 311.4121 H              1 RES1               0.0000
     25 H25        107.6505 282.1073 312.9152 H              1 RES1               0.0000
     26 H26        108.4928 283.6242 312.6075 H              1 RES1               0.0000
     27 H27        111.3010 285.8961 313.9010 H              1 RES1               0.0000
     28 H28        111.0937 282.8847 316.9124 H              1 RES1               0.0000
     29 H29        111.4348 285.2405 316.2735 H              1 RES1               0.0000
@<TRIPOS>BOND
    1    1    2 1     
    2    1    3 1     
    3    1    4 1     
    4    1    5 1     
    5    2    6 ar    
    6    2    7 ar    
    7    3    8 1     
    8    3    9 2     
    9    4   10 1     
   10    4   11 2     
   11    5   12 1     
   12    5   18 1     
   13    5   19 1     
   14    6   13 ar    
   15    6   20 1     
   16    7   14 ar    
   17    7   21 1     
   18    8   15 1     
   19    8   22 1     
   20   10   15 1     
   21   10   23 1     
   22   12   24 1     
   23   12   25 1     
   24   12   26 1     
   25   13   16 ar    
   26   13   27 1     
   27   14   16 ar    
   28   14   28 1     
   29   15   17 2     
   30   16   29 1     
@<TRIPOS>SUBSTRUCTURE
      1 RES1           1
@<TRIPOS>SET
DONOR_HYDROGENS      STATIC     ATOMS    <user>   **** ""
2 22 23
ATOM$RED        STATIC     ATOMS    COLORGROUP SYSTEM
2 22 23
@<TRIPOS>COMMENT
> <Gold.Version>
2022.3.0

> <Gold.Id.Protein>
unknown|5adg_clean|pdb

> <Gold.Protein.RotatedTorsions>
[ 1394 1385 1383 1380 ] final -145.16 input   60.03 | X-H torsion
[ 1425 1409 1410 1411 ] final   -7.77 input  129.35 | X-H torsion
[ 1462 1452 1453 1454 ] final   -0.42 input  108.99 | X-H torsion
[ 1488 1477 1478 1479 ] final  127.05 input  100.07 | X-H torsion
[ 1521 1510 1511 1512 ] final   44.81 input  113.76 | X-H torsion
[ 1570 1551 1552 1553 ] final -172.48 input  123.58 | X-H torsion
[ 1707 1683 1682 1681 ] final -129.62 input   60.00 | X-H torsion
[ 2445 2428 2429 2430 ] final  104.83 input  119.94 | X-H torsion
[ 2478 2467 2468 2469 ] final    6.57 input  117.54 | X-H torsion
[ 2333 2316 2317 2318 ] final -111.23 input  118.58 | X-H torsion
[ 2366 2351 2352 2353 ] final   40.44 input  116.99 | X-H torsion
[ 2407 2383 2384 2385 ] final  -49.73 input  115.65 | X-H torsion
[ 2510 2497 2498 2499 ] final   39.07 input  121.55 | X-H torsion
[ 2572 2558 2559 2560 ] final -123.07 input  118.05 | X-H torsion
[ 2541 2525 2526 2527 ] final -148.87 input  116.25 | X-H torsion
[ 2611 2587 2588 2589 ] final    7.09 input  123.81 | X-H torsion
[ 2710 2698 2699 2700 ] final  100.77 input  119.89 | X-H torsion
[ 2679 2660 2661 2662 ] final  105.25 input  116.13 | X-H torsion
[ 2646 2631 2632 2633 ] final  -22.37 input  117.28 | X-H torsion
[ 2736 2721 2722 2723 ] final   15.45 input   88.34 | X-H torsion
[ 2782 2776 2777 2778 ] final  121.64 input -114.77 | X-H torsion
[ 2619 2595 2594 2593 ] final -139.70 input   60.00 | X-H torsion
[ 1697 1675 1676 1677 ] final  129.90 input  120.12 | X-H torsion
[ 1635 1616 1617 1618 ] final  178.98 input  110.97 | X-H torsion
[ 2757 2749 2750 2751 ] final -129.31 input   47.81 | X-H torsion
[ 13465 1382 1381 1380 ] final  -99.73 input    0.00 | X-H torsion
[ 13470 1412 1411 1410 ] final   21.44 input    0.00 | X-H torsion
[ 13473 1455 1454 1453 ] final   70.89 input   -0.00 | X-H torsion
[ 13480 1480 1479 1478 ] final   -0.79 input   -0.00 | X-H torsion
[ 13484 1554 1553 1552 ] final  131.22 input    0.00 | X-H torsion
[ 13496 2319 2318 2317 ] final  -89.59 input   -0.00 | X-H torsion
[ 13499 2431 2430 2429 ] final   14.48 input    0.00 | X-H torsion
[ 13504 2287 2286 2285 ] final   26.81 input   -0.00 | X-H torsion
[ 13508 2354 2353 2352 ] final  141.73 input    0.00 | X-H torsion
[ 13511 2386 2385 2384 ] final   58.82 input    0.00 | X-H torsion
[ 13513 2470 2469 2468 ] final  -67.58 input   -0.00 | X-H torsion
[ 13521 2528 2527 2526 ] final -163.29 input    0.00 | X-H torsion
[ 13523 2561 2560 2559 ] final   44.93 input   -0.00 | X-H torsion
[ 13527 2663 2662 2661 ] final -150.62 input    0.00 | X-H torsion
[ 13529 2590 2589 2588 ] final -160.59 input   -0.00 | X-H torsion
[ 13532 2701 2700 2699 ] final  -13.88 input    0.00 | X-H torsion
[ 13535 1513 1512 1511 ] final  118.36 input    0.00 | X-H torsion
[ 13537 2634 2633 2632 ] final  169.09 input    0.00 | X-H torsion
[ 13540 2779 2778 2777 ] final   28.69 input    0.00 | X-H torsion

> <Gold.Protein.ActiveResidues>
 THR355  LYS356  ASP357  GLN358  LEU359  PHE360  PRO361  LEU362  ALA363  LYS364 
 ASP368  PHE377  GLY378  HIS382  MET383  GLU384  ARG385  LEU386  GLU387  GLU388 
 VAL389  ASN390  LYS391  GLU392  ILE393  ASP394  THR395  THR396  SER397 

> <Gold.Protein.RotatedAtoms>
  105.0331  275.6978  318.2056 H   0  0  0  0  0  0  0  0  0  0  0  0  # atno 1394 bound_to 1385
  106.8197  275.3178  315.1355 H   0  0  0  0  0  0  0  0  0  0  0  0  # atno 1425 bound_to 1409
  108.2910  276.2924  315.7967 H   0  0  0  0  0  0  0  0  0  0  0  0  # atno 1462 bound_to 1452
  107.7316  275.8977  317.9856 H   0  0  0  0  0  0  0  0  0  0  0  0  # atno 1488 bound_to 1477
  110.2809  275.0571  316.8655 H   0  0  0  0  0  0  0  0  0  0  0  0  # atno 1521 bound_to 1510
  112.1199  274.9781  314.9286 H   0  0  0  0  0  0  0  0  0  0  0  0  # atno 1570 bound_to 1551
  114.4550  273.9476  319.7179 H   0  0  0  0  0  0  0  0  0  0  0  0  # atno 1635 bound_to 1616
  117.6043  274.2813  316.5064 H   0  0  0  0  0  0  0  0  0  0  0  0  # atno 1697 bound_to 1675
  122.9412  279.0704  319.8058 H   0  0  0  0  0  0  0  0  0  0  0  0  # atno 1707 bound_to 1683
  122.1611  277.6159  319.6576 H   0  0  0  0  0  0  0  0  0  0  0  0  # atno 1708 bound_to 1683
  123.4229  277.9861  318.6484 H   0  0  0  0  0  0  0  0  0  0  0  0  # atno 1709 bound_to 1683
  127.3524  277.2509  311.6938 H   0  0  0  0  0  0  0  0  0  0  0  0  # atno 2333 bound_to 2316
  126.5372  277.5196  308.9707 H   0  0  0  0  0  0  0  0  0  0  0  0  # atno 2366 bound_to 2351
  124.4413  276.8429  307.7572 H   0  0  0  0  0  0  0  0  0  0  0  0  # atno 2407 bound_to 2383
  123.7892  276.6786  310.1960 H   0  0  0  0  0  0  0  0  0  0  0  0  # atno 2445 bound_to 2428
  121.4400  277.5345  309.1215 H   0  0  0  0  0  0  0  0  0  0  0  0  # atno 2478 bound_to 2467
  120.5346  277.1786  307.8664 H   0  0  0  0  0  0  0  0  0  0  0  0  # atno 2510 bound_to 2497
  119.3503  274.7569  307.2542 H   0  0  0  0  0  0  0  0  0  0  0  0  # atno 2541 bound_to 2525
  117.0084  276.1105  309.8542 H   0  0  0  0  0  0  0  0  0  0  0  0  # atno 2572 bound_to 2558
  115.5842  277.5893  307.7015 H   0  0  0  0  0  0  0  0  0  0  0  0  # atno 2611 bound_to 2587
  119.8446  282.3189  303.8354 H   0  0  0  0  0  0  0  0  0  0  0  0  # atno 2619 bound_to 2595
  119.7518  280.6637  303.8187 H   0  0  0  0  0  0  0  0  0  0  0  0  # atno 2620 bound_to 2595
  119.9026  281.5001  302.3948 H   0  0  0  0  0  0  0  0  0  0  0  0  # atno 2621 bound_to 2595
  114.0465  277.0889  306.3670 H   0  0  0  0  0  0  0  0  0  0  0  0  # atno 2646 bound_to 2631
  113.6336  275.6485  308.0909 H   0  0  0  0  0  0  0  0  0  0  0  0  # atno 2679 bound_to 2660
  112.0258  277.4801  307.5791 H   0  0  0  0  0  0  0  0  0  0  0  0  # atno 2710 bound_to 2698
  110.0297  276.7359  305.9224 H   0  0  0  0  0  0  0  0  0  0  0  0  # atno 2736 bound_to 2721
  108.5067  275.6327  304.1463 H   0  0  0  0  0  0  0  0  0  0  0  0  # atno 2757 bound_to 2749
  107.1560  273.9247  306.4803 H   0  0  0  0  0  0  0  0  0  0  0  0  # atno 2782 bound_to 2776
  108.3703  274.8091  316.4949 LP  0  0  0  0  0  0  0  0  0  0  0  0  # atno 13465 bound_to 1382
  108.4602  273.3429  315.5773 LP  0  0  0  0  0  0  0  0  0  0  0  0  # atno 13466 bound_to 1382
  106.1194  276.3305  317.1724 LP  0  0  0  0  0  0  0  0  0  0  0  0  # atno 13467 bound_to 1385
  106.2921  274.7966  317.7052 LP  0  0  0  0  0  0  0  0  0  0  0  0  # atno 13468 bound_to 1385
  106.3944  275.0276  313.4635 LP  0  0  0  0  0  0  0  0  0  0  0  0  # atno 13469 bound_to 1409
  110.7480  276.6425  314.1593 LP  0  0  0  0  0  0  0  0  0  0  0  0  # atno 13470 bound_to 1412
  110.6442  276.8948  315.8697 LP  0  0  0  0  0  0  0  0  0  0  0  0  # atno 13471 bound_to 1412
  107.7019  277.7760  315.0749 LP  0  0  0  0  0  0  0  0  0  0  0  0  # atno 13472 bound_to 1452
  110.2039  278.1517  319.3501 LP  0  0  0  0  0  0  0  0  0  0  0  0  # atno 13473 bound_to 1455
  111.1833  277.0476  318.4435 LP  0  0  0  0  0  0  0  0  0  0  0  0  # atno 13474 bound_to 1455
  109.3108  276.6013  317.7291 LP  0  0  0  0  0  0  0  0  0  0  0  0  # atno 13479 bound_to 1477
  111.5414  274.0218  319.9126 LP  0  0  0  0  0  0  0  0  0  0  0  0  # atno 13480 bound_to 1480
  112.2098  273.3953  318.4427 LP  0  0  0  0  0  0  0  0  0  0  0  0  # atno 13481 bound_to 1480
  109.6911  273.6248  317.6771 LP  0  0  0  0  0  0  0  0  0  0  0  0  # atno 13482 bound_to 1510
  112.4825  274.7892  316.6239 LP  0  0  0  0  0  0  0  0  0  0  0  0  # atno 13483 bound_to 1551
  116.9912  275.5697  316.8980 LP  0  0  0  0  0  0  0  0  0  0  0  0  # atno 13484 bound_to 1554
  116.3132  274.1987  316.0853 LP  0  0  0  0  0  0  0  0  0  0  0  0  # atno 13485 bound_to 1554
  123.8253  278.4083  309.7794 LP  0  0  0  0  0  0  0  0  0  0  0  0  # atno 13496 bound_to 2319
  124.2043  280.0131  309.2495 LP  0  0  0  0  0  0  0  0  0  0  0  0  # atno 13497 bound_to 2319
  122.6703  275.4835  309.5818 LP  0  0  0  0  0  0  0  0  0  0  0  0  # atno 13498 bound_to 2428
  119.2336  277.0601  311.0325 LP  0  0  0  0  0  0  0  0  0  0  0  0  # atno 13499 bound_to 2431
  118.9861  277.9094  309.5434 LP  0  0  0  0  0  0  0  0  0  0  0  0  # atno 13500 bound_to 2431
  121.8660  278.9817  310.0060 LP  0  0  0  0  0  0  0  0  0  0  0  0  # atno 13501 bound_to 2467
  125.5441  275.5638  311.7053 LP  0  0  0  0  0  0  0  0  0  0  0  0  # atno 13504 bound_to 2287
  125.1835  276.9047  310.6700 LP  0  0  0  0  0  0  0  0  0  0  0  0  # atno 13505 bound_to 2287
  128.2468  277.6972  310.2587 LP  0  0  0  0  0  0  0  0  0  0  0  0  # atno 13506 bound_to 2316
  126.5440  279.2312  308.6194 LP  0  0  0  0  0  0  0  0  0  0  0  0  # atno 13507 bound_to 2351
  122.8480  276.3108  306.5067 LP  0  0  0  0  0  0  0  0  0  0  0  0  # atno 13508 bound_to 2354
  122.8950  278.0178  306.7964 LP  0  0  0  0  0  0  0  0  0  0  0  0  # atno 13509 bound_to 2354
  125.7240  275.8238  308.3622 LP  0  0  0  0  0  0  0  0  0  0  0  0  # atno 13510 bound_to 2383
  121.1829  274.1270  308.8814 LP  0  0  0  0  0  0  0  0  0  0  0  0  # atno 13511 bound_to 2386
  120.7687  275.7869  308.6112 LP  0  0  0  0  0  0  0  0  0  0  0  0  # atno 13512 bound_to 2386
  117.9051  278.5885  307.8068 LP  0  0  0  0  0  0  0  0  0  0  0  0  # atno 13513 bound_to 2470
  118.3669  278.9637  306.1801 LP  0  0  0  0  0  0  0  0  0  0  0  0  # atno 13514 bound_to 2470
  120.8040  278.2681  306.5246 LP  0  0  0  0  0  0  0  0  0  0  0  0  # atno 13517 bound_to 2497
  117.5799  277.0515  308.4961 LP  0  0  0  0  0  0  0  0  0  0  0  0  # atno 13518 bound_to 2558
  119.0154  276.3036  308.0002 LP  0  0  0  0  0  0  0  0  0  0  0  0  # atno 13519 bound_to 2525
  116.2227  279.2161  307.6146 LP  0  0  0  0  0  0  0  0  0  0  0  0  # atno 13520 bound_to 2587
  114.6905  276.0256  308.8244 LP  0  0  0  0  0  0  0  0  0  0  0  0  # atno 13521 bound_to 2528
  115.1881  274.3676  308.8810 LP  0  0  0  0  0  0  0  0  0  0  0  0  # atno 13522 bound_to 2528
  113.4201  278.7275  309.3288 LP  0  0  0  0  0  0  0  0  0  0  0  0  # atno 13523 bound_to 2561
  113.2411  277.7882  307.8846 LP  0  0  0  0  0  0  0  0  0  0  0  0  # atno 13524 bound_to 2561
  110.7158  276.7102  308.4442 LP  0  0  0  0  0  0  0  0  0  0  0  0  # atno 13525 bound_to 2698
  112.6658  274.8632  306.8683 LP  0  0  0  0  0  0  0  0  0  0  0  0  # atno 13526 bound_to 2660
  108.7493  276.4941  307.7154 LP  0  0  0  0  0  0  0  0  0  0  0  0  # atno 13527 bound_to 2663
  109.0322  275.3816  309.0124 LP  0  0  0  0  0  0  0  0  0  0  0  0  # atno 13528 bound_to 2663
  112.1490  276.9530  305.5065 LP  0  0  0  0  0  0  0  0  0  0  0  0  # atno 13529 bound_to 2590
  112.5294  278.5673  305.0070 LP  0  0  0  0  0  0  0  0  0  0  0  0  # atno 13530 bound_to 2590
  115.5063  276.4220  305.6713 LP  0  0  0  0  0  0  0  0  0  0  0  0  # atno 13531 bound_to 2631
  107.6183  278.6663  307.1542 LP  0  0  0  0  0  0  0  0  0  0  0  0  # atno 13532 bound_to 2701
  107.5268  278.3218  305.4592 LP  0  0  0  0  0  0  0  0  0  0  0  0  # atno 13533 bound_to 2701
  110.1569  278.4360  305.5208 LP  0  0  0  0  0  0  0  0  0  0  0  0  # atno 13534 bound_to 2721
  114.2821  272.9010  315.7173 LP  0  0  0  0  0  0  0  0  0  0  0  0  # atno 13535 bound_to 1513
  113.6835  272.7564  317.3362 LP  0  0  0  0  0  0  0  0  0  0  0  0  # atno 13536 bound_to 1513
  110.7758  274.3074  306.6523 LP  0  0  0  0  0  0  0  0  0  0  0  0  # atno 13537 bound_to 2634
  111.3995  274.5101  305.0492 LP  0  0  0  0  0  0  0  0  0  0  0  0  # atno 13538 bound_to 2634
  108.8031  274.2228  306.9994 LP  0  0  0  0  0  0  0  0  0  0  0  0  # atno 13539 bound_to 2776
  106.9658  272.0530  310.6173 LP  0  0  0  0  0  0  0  0  0  0  0  0  # atno 13540 bound_to 2779
  108.6082  271.5855  310.9071 LP  0  0  0  0  0  0  0  0  0  0  0  0  # atno 13541 bound_to 2779

> <Gold.Score>
     Fitness  S(hb_ext) S(vdw_ext)  S(hb_int)    S(int)      intcor
     17.92       6.20      11.28       0.00      -3.78      -0.78

> <Gold.Goldscore.Fitness>
17.9239

> <Gold.Goldscore.Internal.Vdw>
-3.4699

> <Gold.Goldscore.Internal.Torsion>
-1.0860

> <Gold.Goldscore.External.Vdw>
11.2762

> <Gold.Goldscore.Internal.HBond>
0.0000

> <Gold.Goldscore.External.HBond>
6.1998

> <Gold.Goldscore.Internal.Correction>
-0.7752

> <Gold.Goldscore.Hbonds>
donor molecule, donor type, donor heavy atom, donor atom, acceptor molecule, acceptor atom, score
      L1  H     8    22       P1  2565  1.00
      L1  H    10    23       P1  1412  0.10

> <Gold.Goldscore.Internal.Vdw.Weighted>
-3.4699

> <Gold.Goldscore.Internal.Torsion.Weighted>
-1.0860

> <Gold.Goldscore.External.Vdw.Weighted>
15.5048

> <Gold.Goldscore.Internal.HBond.Weighted>
0.0000

> <Gold.Goldscore.External.HBond.Weighted>
6.1998

> <Gold.Goldscore.Internal.Correction.Weighted>
-0.7752

> <Gold.Rescore>
     Score     S(PLP)   S(hbond)     S(cho)   S(metal)  DE(clash)   DE(tors)     intcor
     12.59     -13.03       1.00       0.00       0.00       1.24       1.10       ----

> <Gold.PLP.Fitness>
12.5933

> <Gold.PLP.PLP>
-13.0309

> <Gold.PLP.part.hbond>
-0.8401

> <Gold.PLP.part.metal>
0.0000

> <Gold.PLP.part.buried>
-4.4610

> <Gold.PLP.part.nonpolar>
-9.9177

> <Gold.PLP.part.repulsive>
2.3408

> <Gold.PLP.ligand.clash>
1.2395

> <Gold.PLP.ligand.torsion>
1.0990

> <Gold.PLP.Chemscore.Hbond>
1.0000

> <Gold.PLP.Chemscore.CHOScore>
0.0000

> <Gold.PLP.Chemscore.Metal>
0.0000

> <Gold.Chemscore.Hbonds>
donor molecule, donor type, donor heavy atom, donor atom, acceptor molecule, acceptor atom, score
      L1  H     8    22       P1  2565  0.62
      L1  H    10    23       P1  1412  0.59

> <Gold.PLP.Chemscore.Internal.Correction>
   9.000000E+99

#       Name:                CT1002167954
#       Creating user name   hitesit
#       Creation time:       Sun Apr 16 22:53:12 2023


#       File generated by GOLD software.
#

@<TRIPOS>MOLECULE
CT1002167954|ligand_prepared|mol2|1|dock10
    29    30     1
SMALL
NO_CHARGES


@<TRIPOS>ATOM
      1 C1         111.7425 281.4276 314.6511 C.3            1 RES1               0.0000
      2 C2         112.6581 282.1469 315.6625 C.ar           1 RES1               0.0000
      3 C3         112.5323 281.3344 313.3489 C.2            1 RES1               0.0000
      4 C4         111.4015 280.0765 315.2700 C.2            1 RES1               0.0000
      5 C5         110.4167 282.1721 314.3692 C.3            1 RES1               0.0000
      6 C6         112.4143 283.4685 316.0239 C.ar           1 RES1               0.0000
      7 C7         113.7469 281.5022 316.2435 C.ar           1 RES1               0.0000
      8 N8         113.0320 280.1146 312.9990 N.am           1 RES1               0.0000
      9 O9         112.7473 282.3238 312.6597 O.2            1 RES1               0.0000
     10 N10        111.8677 278.9487 314.6467 N.am           1 RES1               0.0000
     11 O11        110.7475 279.9791 316.3011 O.2            1 RES1               0.0000
     12 C12        109.4430 281.3851 313.5062 C.3            1 RES1               0.0000
     13 C13        113.2277 284.1212 316.9354 C.ar           1 RES1               0.0000
     14 C14        114.5592 282.1569 317.1547 C.ar           1 RES1               0.0000
     15 C15        112.6933 278.9078 313.5563 C.2            1 RES1               0.0000
     16 C16        114.3003 283.4658 317.5017 C.ar           1 RES1               0.0000
     17 O17        113.1149 277.8553 313.0856 O.2            1 RES1               0.0000
     18 H18        109.9322 282.4051 315.3254 H              1 RES1               0.0000
     19 H19        110.6443 283.1214 313.8686 H              1 RES1               0.0000
     20 H20        111.5763 284.0012 315.5869 H              1 RES1               0.0000
     21 H21        113.9703 280.4728 315.9846 H              1 RES1               0.0000
     22 H22        113.7213 280.0982 312.2541 H              1 RES1               0.0000
     23 H23        111.5717 278.0571 315.0310 H              1 RES1               0.0000
     24 H24        108.5300 281.9526 313.3390 H              1 RES1               0.0000
     25 H25        109.8830 281.1578 312.5374 H              1 RES1               0.0000
     26 H26        109.1751 280.4457 313.9855 H              1 RES1               0.0000
     27 H27        113.0204 285.1517 317.2041 H              1 RES1               0.0000
     28 H28        115.4026 281.6374 317.5973 H              1 RES1               0.0000
     29 H29        114.9371 283.9772 318.2159 H              1 RES1               0.0000
@<TRIPOS>BOND
    1    1    2 1     
    2    1    3 1     
    3    1    4 1     
    4    1    5 1     
    5    2    6 ar    
    6    2    7 ar    
    7    3    8 1     
    8    3    9 2     
    9    4   10 1     
   10    4   11 2     
   11    5   12 1     
   12    5   18 1     
   13    5   19 1     
   14    6   13 ar    
   15    6   20 1     
   16    7   14 ar    
   17    7   21 1     
   18    8   15 1     
   19    8   22 1     
   20   10   15 1     
   21   10   23 1     
   22   12   24 1     
   23   12   25 1     
   24   12   26 1     
   25   13   16 ar    
   26   13   27 1     
   27   14   16 ar    
   28   14   28 1     
   29   15   17 2     
   30   16   29 1     
@<TRIPOS>SUBSTRUCTURE
      1 RES1           1
@<TRIPOS>SET
DONOR_HYDROGENS      STATIC     ATOMS    <user>   **** ""
2 22 23
ATOM$RED        STATIC     ATOMS    COLORGROUP SYSTEM
2 22 23
@<TRIPOS>COMMENT
> <Gold.Version>
2022.3.0

> <Gold.Id.Protein>
unknown|5adg_clean|pdb

> <Gold.Protein.RotatedTorsions>
[ 1394 1385 1383 1380 ] final  -11.69 input   60.03 | X-H torsion
[ 1425 1409 1410 1411 ] final  -66.12 input  129.35 | X-H torsion
[ 1462 1452 1453 1454 ] final -175.07 input  108.99 | X-H torsion
[ 1488 1477 1478 1479 ] final  -88.37 input  100.07 | X-H torsion
[ 1521 1510 1511 1512 ] final -125.30 input  113.76 | X-H torsion
[ 1570 1551 1552 1553 ] final   -1.58 input  123.58 | X-H torsion
[ 1707 1683 1682 1681 ] final -124.22 input   60.00 | X-H torsion
[ 2445 2428 2429 2430 ] final   15.88 input  119.94 | X-H torsion
[ 2478 2467 2468 2469 ] final   19.10 input  117.54 | X-H torsion
[ 2333 2316 2317 2318 ] final  -68.46 input  118.58 | X-H torsion
[ 2366 2351 2352 2353 ] final -171.29 input  116.99 | X-H torsion
[ 2407 2383 2384 2385 ] final   20.02 input  115.65 | X-H torsion
[ 2510 2497 2498 2499 ] final    6.23 input  121.55 | X-H torsion
[ 2572 2558 2559 2560 ] final   -1.48 input  118.05 | X-H torsion
[ 2541 2525 2526 2527 ] final -131.25 input  116.25 | X-H torsion
[ 2611 2587 2588 2589 ] final -151.81 input  123.81 | X-H torsion
[ 2710 2698 2699 2700 ] final  107.24 input  119.89 | X-H torsion
[ 2679 2660 2661 2662 ] final  -27.31 input  116.13 | X-H torsion
[ 2646 2631 2632 2633 ] final -131.63 input  117.28 | X-H torsion
[ 2736 2721 2722 2723 ] final   51.78 input   88.34 | X-H torsion
[ 2782 2776 2777 2778 ] final  -27.58 input -114.77 | X-H torsion
[ 2619 2595 2594 2593 ] final  -21.57 input   60.00 | X-H torsion
[ 1697 1675 1676 1677 ] final  104.65 input  120.12 | X-H torsion
[ 1635 1616 1617 1618 ] final -140.75 input  110.97 | X-H torsion
[ 2757 2749 2750 2751 ] final  -39.38 input   47.81 | X-H torsion
[ 13465 1382 1381 1380 ] final   63.28 input    0.00 | X-H torsion
[ 13470 1412 1411 1410 ] final   78.75 input    0.00 | X-H torsion
[ 13473 1455 1454 1453 ] final  -57.66 input   -0.00 | X-H torsion
[ 13480 1480 1479 1478 ] final -156.09 input   -0.00 | X-H torsion
[ 13484 1554 1553 1552 ] final  172.97 input    0.00 | X-H torsion
[ 13496 2319 2318 2317 ] final -133.59 input   -0.00 | X-H torsion
[ 13499 2431 2430 2429 ] final -153.28 input    0.00 | X-H torsion
[ 13504 2287 2286 2285 ] final -144.84 input   -0.00 | X-H torsion
[ 13508 2354 2353 2352 ] final  -40.78 input    0.00 | X-H torsion
[ 13511 2386 2385 2384 ] final -111.09 input    0.00 | X-H torsion
[ 13513 2470 2469 2468 ] final  -33.75 input   -0.00 | X-H torsion
[ 13521 2528 2527 2526 ] final  177.19 input    0.00 | X-H torsion
[ 13523 2561 2560 2559 ] final  105.47 input   -0.00 | X-H torsion
[ 13527 2663 2662 2661 ] final  106.87 input    0.00 | X-H torsion
[ 13529 2590 2589 2588 ] final  -60.47 input   -0.00 | X-H torsion
[ 13532 2701 2700 2699 ] final  165.94 input    0.00 | X-H torsion
[ 13535 1513 1512 1511 ] final   85.78 input    0.00 | X-H torsion
[ 13537 2634 2633 2632 ] final   37.97 input    0.00 | X-H torsion
[ 13540 2779 2778 2777 ] final   64.69 input    0.00 | X-H torsion

> <Gold.Protein.ActiveResidues>
 THR355  LYS356  ASP357  GLN358  LEU359  PHE360  PRO361  LEU362  ALA363  LYS364 
 ASP368  PHE377  GLY378  HIS382  MET383  GLU384  ARG385  LEU386  GLU387  GLU388 
 VAL389  ASN390  LYS391  GLU392  ILE393  ASP394  THR395  THR396  SER397 

> <Gold.Protein.RotatedAtoms>
  106.4200  274.9081  317.5645 H   0  0  0  0  0  0  0  0  0  0  0  0  # atno 1394 bound_to 1385
  107.0940  274.5927  314.7500 H   0  0  0  0  0  0  0  0  0  0  0  0  # atno 1425 bound_to 1409
  107.7756  277.8275  315.0491 H   0  0  0  0  0  0  0  0  0  0  0  0  # atno 1462 bound_to 1452
  109.1095  276.8518  318.1530 H   0  0  0  0  0  0  0  0  0  0  0  0  # atno 1488 bound_to 1477
  109.8018  273.6259  317.7828 H   0  0  0  0  0  0  0  0  0  0  0  0  # atno 1521 bound_to 1510
  112.5167  274.6564  316.5999 H   0  0  0  0  0  0  0  0  0  0  0  0  # atno 1570 bound_to 1551
  115.0086  274.1182  319.9025 H   0  0  0  0  0  0  0  0  0  0  0  0  # atno 1635 bound_to 1616
  117.6084  274.1458  316.8697 H   0  0  0  0  0  0  0  0  0  0  0  0  # atno 1697 bound_to 1675
  122.8723  279.0466  319.8587 H   0  0  0  0  0  0  0  0  0  0  0  0  # atno 1707 bound_to 1683
  122.1903  277.5597  319.5935 H   0  0  0  0  0  0  0  0  0  0  0  0  # atno 1708 bound_to 1683
  123.4628  278.0663  318.6597 H   0  0  0  0  0  0  0  0  0  0  0  0  # atno 1709 bound_to 1683
  127.1133  276.9612  311.1674 H   0  0  0  0  0  0  0  0  0  0  0  0  # atno 2333 bound_to 2316
  126.9365  279.0700  308.3993 H   0  0  0  0  0  0  0  0  0  0  0  0  # atno 2366 bound_to 2351
  124.7362  276.7981  308.7200 H   0  0  0  0  0  0  0  0  0  0  0  0  # atno 2407 bound_to 2383
  123.0195  276.6264  309.2231 H   0  0  0  0  0  0  0  0  0  0  0  0  # atno 2445 bound_to 2428
  121.5976  277.5769  309.0179 H   0  0  0  0  0  0  0  0  0  0  0  0  # atno 2478 bound_to 2467
  120.1287  277.4719  307.8382 H   0  0  0  0  0  0  0  0  0  0  0  0  # atno 2510 bound_to 2497
  119.1682  274.8508  307.0755 H   0  0  0  0  0  0  0  0  0  0  0  0  # atno 2541 bound_to 2525
  116.9448  276.4985  308.3586 H   0  0  0  0  0  0  0  0  0  0  0  0  # atno 2572 bound_to 2558
  115.9540  279.2948  307.7733 H   0  0  0  0  0  0  0  0  0  0  0  0  # atno 2611 bound_to 2587
  119.7511  280.6790  303.8454 H   0  0  0  0  0  0  0  0  0  0  0  0  # atno 2619 bound_to 2595
  119.9010  281.4682  302.3952 H   0  0  0  0  0  0  0  0  0  0  0  0  # atno 2620 bound_to 2595
  119.8469  282.3339  303.8086 H   0  0  0  0  0  0  0  0  0  0  0  0  # atno 2621 bound_to 2595
  114.8111  276.9399  305.1477 H   0  0  0  0  0  0  0  0  0  0  0  0  # atno 2646 bound_to 2631
  112.6273  275.5637  306.8327 H   0  0  0  0  0  0  0  0  0  0  0  0  # atno 2679 bound_to 2660
  112.0457  277.5289  307.6640 H   0  0  0  0  0  0  0  0  0  0  0  0  # atno 2710 bound_to 2698
  110.5114  276.8156  305.6567 H   0  0  0  0  0  0  0  0  0  0  0  0  # atno 2736 bound_to 2721
  108.3240  275.6838  305.3876 H   0  0  0  0  0  0  0  0  0  0  0  0  # atno 2757 bound_to 2749
  108.8138  273.7622  306.9214 H   0  0  0  0  0  0  0  0  0  0  0  0  # atno 2782 bound_to 2776
  108.3134  273.2585  315.7690 LP  0  0  0  0  0  0  0  0  0  0  0  0  # atno 13465 bound_to 1382
  108.5171  274.8935  316.3032 LP  0  0  0  0  0  0  0  0  0  0  0  0  # atno 13466 bound_to 1382
  105.0735  275.4904  318.2685 LP  0  0  0  0  0  0  0  0  0  0  0  0  # atno 13467 bound_to 1385
  105.9410  276.4321  317.2548 LP  0  0  0  0  0  0  0  0  0  0  0  0  # atno 13468 bound_to 1385
  106.1284  275.7308  313.8374 LP  0  0  0  0  0  0  0  0  0  0  0  0  # atno 13469 bound_to 1409
  110.7223  277.4215  314.4461 LP  0  0  0  0  0  0  0  0  0  0  0  0  # atno 13470 bound_to 1412
  110.6699  276.1158  315.5829 LP  0  0  0  0  0  0  0  0  0  0  0  0  # atno 13471 bound_to 1412
  108.1978  276.2992  315.7941 LP  0  0  0  0  0  0  0  0  0  0  0  0  # atno 13472 bound_to 1452
  111.1197  277.7393  318.1559 LP  0  0  0  0  0  0  0  0  0  0  0  0  # atno 13473 bound_to 1455
  110.2675  277.4600  319.6377 LP  0  0  0  0  0  0  0  0  0  0  0  0  # atno 13474 bound_to 1455
  107.9645  275.6691  317.5655 LP  0  0  0  0  0  0  0  0  0  0  0  0  # atno 13479 bound_to 1477
  112.3355  273.7437  318.4446 LP  0  0  0  0  0  0  0  0  0  0  0  0  # atno 13480 bound_to 1480
  111.4157  273.6734  319.9106 LP  0  0  0  0  0  0  0  0  0  0  0  0  # atno 13481 bound_to 1480
  110.1572  275.0171  316.7846 LP  0  0  0  0  0  0  0  0  0  0  0  0  # atno 13482 bound_to 1510
  112.0898  275.1075  314.9703 LP  0  0  0  0  0  0  0  0  0  0  0  0  # atno 13483 bound_to 1551
  116.8570  275.1205  317.2992 LP  0  0  0  0  0  0  0  0  0  0  0  0  # atno 13484 bound_to 1554
  116.4474  274.6479  315.6840 LP  0  0  0  0  0  0  0  0  0  0  0  0  # atno 13485 bound_to 1554
  123.8172  278.4590  309.1324 LP  0  0  0  0  0  0  0  0  0  0  0  0  # atno 13496 bound_to 2319
  124.2123  279.9624  309.8964 LP  0  0  0  0  0  0  0  0  0  0  0  0  # atno 13497 bound_to 2319
  123.4195  275.5343  310.5288 LP  0  0  0  0  0  0  0  0  0  0  0  0  # atno 13498 bound_to 2428
  118.9984  277.7412  309.4683 LP  0  0  0  0  0  0  0  0  0  0  0  0  # atno 13499 bound_to 2431
  119.2212  277.2283  311.1076 LP  0  0  0  0  0  0  0  0  0  0  0  0  # atno 13500 bound_to 2431
  121.7125  278.9403  310.1069 LP  0  0  0  0  0  0  0  0  0  0  0  0  # atno 13501 bound_to 2467
  125.1987  276.8234  310.5748 LP  0  0  0  0  0  0  0  0  0  0  0  0  # atno 13504 bound_to 2287
  125.5289  275.6451  311.8006 LP  0  0  0  0  0  0  0  0  0  0  0  0  # atno 13505 bound_to 2287
  128.4792  277.9789  310.7704 LP  0  0  0  0  0  0  0  0  0  0  0  0  # atno 13506 bound_to 2316
  126.1536  277.7157  309.1779 LP  0  0  0  0  0  0  0  0  0  0  0  0  # atno 13507 bound_to 2351
  122.8786  278.0117  306.8301 LP  0  0  0  0  0  0  0  0  0  0  0  0  # atno 13508 bound_to 2354
  122.8644  276.3169  306.4730 LP  0  0  0  0  0  0  0  0  0  0  0  0  # atno 13509 bound_to 2354
  125.4345  275.8677  307.4173 LP  0  0  0  0  0  0  0  0  0  0  0  0  # atno 13510 bound_to 2383
  120.8140  275.7610  308.4683 LP  0  0  0  0  0  0  0  0  0  0  0  0  # atno 13511 bound_to 2386
  121.1376  274.1529  309.0244 LP  0  0  0  0  0  0  0  0  0  0  0  0  # atno 13512 bound_to 2386
  118.0105  279.0812  307.7942 LP  0  0  0  0  0  0  0  0  0  0  0  0  # atno 13513 bound_to 2470
  118.2616  278.4711  306.1927 LP  0  0  0  0  0  0  0  0  0  0  0  0  # atno 13514 bound_to 2470
  121.1984  277.9831  306.5520 LP  0  0  0  0  0  0  0  0  0  0  0  0  # atno 13517 bound_to 2497
  117.6419  276.6738  309.9523 LP  0  0  0  0  0  0  0  0  0  0  0  0  # atno 13518 bound_to 2558
  119.1923  276.2125  308.1738 LP  0  0  0  0  0  0  0  0  0  0  0  0  # atno 13519 bound_to 2525
  115.8642  277.5623  307.5449 LP  0  0  0  0  0  0  0  0  0  0  0  0  # atno 13520 bound_to 2587
  114.6852  275.9819  309.1148 LP  0  0  0  0  0  0  0  0  0  0  0  0  # atno 13521 bound_to 2528
  115.1933  274.4112  308.5906 LP  0  0  0  0  0  0  0  0  0  0  0  0  # atno 13522 bound_to 2528
  113.3294  279.1223  308.5554 LP  0  0  0  0  0  0  0  0  0  0  0  0  # atno 13523 bound_to 2561
  113.3318  277.3933  308.6580 LP  0  0  0  0  0  0  0  0  0  0  0  0  # atno 13524 bound_to 2561
  110.6965  276.6626  308.3614 LP  0  0  0  0  0  0  0  0  0  0  0  0  # atno 13525 bound_to 2698
  113.6535  274.9465  308.1032 LP  0  0  0  0  0  0  0  0  0  0  0  0  # atno 13526 bound_to 2660
  108.8149  276.4424  309.0637 LP  0  0  0  0  0  0  0  0  0  0  0  0  # atno 13527 bound_to 2663
  108.9666  275.4332  307.6642 LP  0  0  0  0  0  0  0  0  0  0  0  0  # atno 13528 bound_to 2663
  112.1817  278.1883  305.9929 LP  0  0  0  0  0  0  0  0  0  0  0  0  # atno 13529 bound_to 2590
  112.4967  277.3320  304.5206 LP  0  0  0  0  0  0  0  0  0  0  0  0  # atno 13530 bound_to 2590
  114.7634  276.5668  306.8560 LP  0  0  0  0  0  0  0  0  0  0  0  0  # atno 13531 bound_to 2631
  107.5273  278.3245  305.4586 LP  0  0  0  0  0  0  0  0  0  0  0  0  # atno 13532 bound_to 2701
  107.6178  278.6636  307.1547 LP  0  0  0  0  0  0  0  0  0  0  0  0  # atno 13533 bound_to 2701
  109.6925  278.3591  305.7770 LP  0  0  0  0  0  0  0  0  0  0  0  0  # atno 13534 bound_to 2721
  113.9957  272.5087  315.7221 LP  0  0  0  0  0  0  0  0  0  0  0  0  # atno 13535 bound_to 1513
  113.9699  273.1487  317.3314 LP  0  0  0  0  0  0  0  0  0  0  0  0  # atno 13536 bound_to 1513
  111.5080  273.8595  305.3295 LP  0  0  0  0  0  0  0  0  0  0  0  0  # atno 13537 bound_to 2634
  110.6674  274.9580  306.3720 LP  0  0  0  0  0  0  0  0  0  0  0  0  # atno 13538 bound_to 2634
  107.2101  274.3789  306.5755 LP  0  0  0  0  0  0  0  0  0  0  0  0  # atno 13539 bound_to 2776
  107.0313  271.5554  310.4316 LP  0  0  0  0  0  0  0  0  0  0  0  0  # atno 13540 bound_to 2779
  108.5427  272.0831  311.0927 LP  0  0  0  0  0  0  0  0  0  0  0  0  # atno 13541 bound_to 2779

> <Gold.Score>
     Fitness  S(hb_ext) S(vdw_ext)  S(hb_int)    S(int)      intcor
     10.11       6.60       3.05       0.00      -0.68      -0.76

> <Gold.Goldscore.Fitness>
10.1094

> <Gold.Goldscore.Internal.Vdw>
-1.0074

> <Gold.Goldscore.Internal.Torsion>
-0.4424

> <Gold.Goldscore.External.Vdw>
3.0503

> <Gold.Goldscore.Internal.HBond>
0.0000

> <Gold.Goldscore.External.HBond>
6.6001

> <Gold.Goldscore.Internal.Correction>
-0.7650

> <Gold.Goldscore.Hbonds>
donor molecule, donor type, donor heavy atom, donor atom, acceptor molecule, acceptor atom, score
      L1  H     8    22       P1  2565  1.00
      L1  H    10    23       P1  1412  0.30

> <Gold.Goldscore.Internal.Vdw.Weighted>
-1.0074

> <Gold.Goldscore.Internal.Torsion.Weighted>
-0.4424

> <Gold.Goldscore.External.Vdw.Weighted>
4.1941

> <Gold.Goldscore.Internal.HBond.Weighted>
0.0000

> <Gold.Goldscore.External.HBond.Weighted>
6.6001

> <Gold.Goldscore.Internal.Correction.Weighted>
-0.7650

> <Gold.Rescore>
     Score     S(PLP)   S(hbond)     S(cho)   S(metal)  DE(clash)   DE(tors)     intcor
      1.33       2.25       1.53       0.00       0.00       0.00       0.50       ----

> <Gold.PLP.Fitness>
1.3294

> <Gold.PLP.PLP>
2.2545

> <Gold.PLP.part.hbond>
-1.5936

> <Gold.PLP.part.metal>
0.0000

> <Gold.PLP.part.buried>
12.6993

> <Gold.PLP.part.nonpolar>
-7.8926

> <Gold.PLP.part.repulsive>
0.6225

> <Gold.PLP.ligand.clash>
0.0000

> <Gold.PLP.ligand.torsion>
0.5031

> <Gold.PLP.Chemscore.Hbond>
1.5300

> <Gold.PLP.Chemscore.CHOScore>
0.0000

> <Gold.PLP.Chemscore.Metal>
0.0000

> <Gold.Chemscore.Hbonds>
donor molecule, donor type, donor heavy atom, donor atom, acceptor molecule, acceptor atom, score
      L1  H     8    22       P1  2565  0.65
      L1  H    10    23       P1  1412  0.88

> <Gold.PLP.Chemscore.Internal.Correction>
   9.000000E+99

