#       Name:                CT1002167954
#       Creating user name   hitesit
#       Creation time:       Sun Apr 16 22:53:07 2023


#       File generated by GOLD software.
#

@<TRIPOS>MOLECULE
CT1002167954|ligand_prepared|mol2|1|dock3
    29    30     1
SMALL
NO_CHARGES


@<TRIPOS>ATOM
      1 C1         111.9557 281.1708 314.2570 C.3            1 RES1               0.0000
      2 C2         110.6419 281.9697 314.1359 C.ar           1 RES1               0.0000
      3 C3         111.5724 279.7947 314.7932 C.2            1 RES1               0.0000
      4 C4         112.5700 281.1459 312.8618 C.2            1 RES1               0.0000
      5 C5         112.9855 281.8043 315.2213 C.3            1 RES1               0.0000
      6 C6         110.6636 283.3568 314.0262 C.ar           1 RES1               0.0000
      7 C7         109.4030 281.3344 314.1296 C.ar           1 RES1               0.0000
      8 N8         111.6040 278.7459 313.9220 N.am           1 RES1               0.0000
      9 O9         111.2099 279.6389 315.9528 O.2            1 RES1               0.0000
     10 N10        112.6661 279.9369 312.2240 N.am           1 RES1               0.0000
     11 O11        112.9565 282.1647 312.3023 O.2            1 RES1               0.0000
     12 C12        114.1873 280.9168 315.5042 C.3            1 RES1               0.0000
     13 C13        109.4895 284.0825 313.9115 C.ar           1 RES1               0.0000
     14 C14        108.2300 282.0620 314.0150 C.ar           1 RES1               0.0000
     15 C15        112.1829 278.7401 312.6784 C.2            1 RES1               0.0000
     16 C16        108.2720 283.4356 313.9053 C.ar           1 RES1               0.0000
     17 O17        112.2588 277.7049 312.0229 O.2            1 RES1               0.0000
     18 H18        113.3381 282.7494 314.7900 H              1 RES1               0.0000
     19 H19        112.4855 282.0347 316.1702 H              1 RES1               0.0000
     20 H20        111.6121 283.8834 314.0317 H              1 RES1               0.0000
     21 H21        109.3457 280.2546 314.2158 H              1 RES1               0.0000
     22 H22        111.1557 277.8864 314.2230 H              1 RES1               0.0000
     23 H23        113.1421 279.9282 311.3276 H              1 RES1               0.0000
     24 H24        114.8781 281.4087 316.1858 H              1 RES1               0.0000
     25 H25        113.8753 279.9779 315.9571 H              1 RES1               0.0000
     26 H26        114.7229 280.6883 314.5851 H              1 RES1               0.0000
     27 H27        109.5279 285.1635 313.8268 H              1 RES1               0.0000
     28 H28        107.2740 281.5488 314.0113 H              1 RES1               0.0000
     29 H29        107.3524 284.0043 313.8151 H              1 RES1               0.0000
@<TRIPOS>BOND
    1    1    2 1     
    2    1    3 1     
    3    1    4 1     
    4    1    5 1     
    5    2    6 ar    
    6    2    7 ar    
    7    3    8 1     
    8    3    9 2     
    9    4   10 1     
   10    4   11 2     
   11    5   12 1     
   12    5   18 1     
   13    5   19 1     
   14    6   13 ar    
   15    6   20 1     
   16    7   14 ar    
   17    7   21 1     
   18    8   15 1     
   19    8   22 1     
   20   10   15 1     
   21   10   23 1     
   22   12   24 1     
   23   12   25 1     
   24   12   26 1     
   25   13   16 ar    
   26   13   27 1     
   27   14   16 ar    
   28   14   28 1     
   29   15   17 2     
   30   16   29 1     
@<TRIPOS>SUBSTRUCTURE
      1 RES1           1
@<TRIPOS>SET
DONOR_HYDROGENS      STATIC     ATOMS    <user>   **** ""
2 22 23
ATOM$RED        STATIC     ATOMS    COLORGROUP SYSTEM
2 22 23
@<TRIPOS>COMMENT
> <Gold.Version>
2022.3.0

> <Gold.Id.Protein>
unknown|5adg_clean|pdb

> <Gold.Protein.RotatedTorsions>
[ 1394 1385 1383 1380 ] final  135.72 input   60.03 | X-H torsion
[ 1425 1409 1410 1411 ] final  125.98 input  129.35 | X-H torsion
[ 1462 1452 1453 1454 ] final  148.62 input  108.99 | X-H torsion
[ 1488 1477 1478 1479 ] final  -66.75 input  100.07 | X-H torsion
[ 1521 1510 1511 1512 ] final -153.02 input  113.76 | X-H torsion
[ 1570 1551 1552 1553 ] final  129.80 input  123.58 | X-H torsion
[ 1707 1683 1682 1681 ] final  -59.22 input   60.00 | X-H torsion
[ 2445 2428 2429 2430 ] final  -62.40 input  119.94 | X-H torsion
[ 2478 2467 2468 2469 ] final -168.82 input  117.54 | X-H torsion
[ 2333 2316 2317 2318 ] final  -26.71 input  118.58 | X-H torsion
[ 2366 2351 2352 2353 ] final   57.65 input  116.99 | X-H torsion
[ 2407 2383 2384 2385 ] final   76.68 input  115.65 | X-H torsion
[ 2510 2497 2498 2499 ] final  -16.32 input  121.55 | X-H torsion
[ 2572 2558 2559 2560 ] final  -45.63 input  118.05 | X-H torsion
[ 2541 2525 2526 2527 ] final -125.52 input  116.25 | X-H torsion
[ 2611 2587 2588 2589 ] final  132.15 input  123.81 | X-H torsion
[ 2710 2698 2699 2700 ] final -151.63 input  119.89 | X-H torsion
[ 2679 2660 2661 2662 ] final  -47.53 input  116.13 | X-H torsion
[ 2646 2631 2632 2633 ] final  128.52 input  117.28 | X-H torsion
[ 2736 2721 2722 2723 ] final  -31.29 input   88.34 | X-H torsion
[ 2782 2776 2777 2778 ] final  101.75 input -114.77 | X-H torsion
[ 2619 2595 2594 2593 ] final -167.90 input   60.00 | X-H torsion
[ 1697 1675 1676 1677 ] final -114.96 input  120.12 | X-H torsion
[ 1635 1616 1617 1618 ] final  162.79 input  110.97 | X-H torsion
[ 2757 2749 2750 2751 ] final -121.15 input   47.81 | X-H torsion
[ 13465 1382 1381 1380 ] final  -79.19 input    0.00 | X-H torsion
[ 13470 1412 1411 1410 ] final  -87.58 input    0.00 | X-H torsion
[ 13473 1455 1454 1453 ] final  133.45 input   -0.00 | X-H torsion
[ 13480 1480 1479 1478 ] final  -91.30 input   -0.00 | X-H torsion
[ 13484 1554 1553 1552 ] final -176.11 input    0.00 | X-H torsion
[ 13496 2319 2318 2317 ] final  104.92 input   -0.00 | X-H torsion
[ 13499 2431 2430 2429 ] final -100.31 input    0.00 | X-H torsion
[ 13504 2287 2286 2285 ] final   67.10 input   -0.00 | X-H torsion
[ 13508 2354 2353 2352 ] final    1.87 input    0.00 | X-H torsion
[ 13511 2386 2385 2384 ] final  176.67 input    0.00 | X-H torsion
[ 13513 2470 2469 2468 ] final -107.08 input   -0.00 | X-H torsion
[ 13521 2528 2527 2526 ] final   90.98 input    0.00 | X-H torsion
[ 13523 2561 2560 2559 ] final   40.35 input   -0.00 | X-H torsion
[ 13527 2663 2662 2661 ] final  -39.87 input    0.00 | X-H torsion
[ 13529 2590 2589 2588 ] final   77.96 input   -0.00 | X-H torsion
[ 13532 2701 2700 2699 ] final  -27.07 input    0.00 | X-H torsion
[ 13535 1513 1512 1511 ] final -156.63 input    0.00 | X-H torsion
[ 13537 2634 2633 2632 ] final    5.21 input    0.00 | X-H torsion
[ 13540 2779 2778 2777 ] final -143.66 input    0.00 | X-H torsion

> <Gold.Protein.ActiveResidues>
 THR355  LYS356  ASP357  GLN358  LEU359  PHE360  PRO361  LEU362  ALA363  LYS364 
 ASP368  PHE377  GLY378  HIS382  MET383  GLU384  ARG385  LEU386  GLU387  GLU388 
 VAL389  ASN390  LYS391  GLU392  ILE393  ASP394  THR395  THR396  SER397 

> <Gold.Protein.RotatedAtoms>
  105.5679  276.4884  317.4910 H   0  0  0  0  0  0  0  0  0  0  0  0  # atno 1394 bound_to 1385
  106.1502  275.6332  313.6791 H   0  0  0  0  0  0  0  0  0  0  0  0  # atno 1425 bound_to 1409
  107.3383  277.6523  315.3451 H   0  0  0  0  0  0  0  0  0  0  0  0  # atno 1462 bound_to 1452
  109.2775  276.7243  317.8972 H   0  0  0  0  0  0  0  0  0  0  0  0  # atno 1488 bound_to 1477
  109.5143  273.6037  317.4713 H   0  0  0  0  0  0  0  0  0  0  0  0  # atno 1521 bound_to 1510
  111.9454  275.6155  315.4570 H   0  0  0  0  0  0  0  0  0  0  0  0  # atno 1570 bound_to 1551
  114.2935  273.8831  319.5401 H   0  0  0  0  0  0  0  0  0  0  0  0  # atno 1635 bound_to 1616
  118.3524  273.3461  315.6079 H   0  0  0  0  0  0  0  0  0  0  0  0  # atno 1697 bound_to 1675
  122.1892  278.3072  320.0654 H   0  0  0  0  0  0  0  0  0  0  0  0  # atno 1707 bound_to 1683
  122.8753  277.4307  318.8377 H   0  0  0  0  0  0  0  0  0  0  0  0  # atno 1708 bound_to 1683
  123.4613  278.9362  319.2091 H   0  0  0  0  0  0  0  0  0  0  0  0  # atno 1709 bound_to 1683
  127.2332  276.9454  310.5471 H   0  0  0  0  0  0  0  0  0  0  0  0  # atno 2333 bound_to 2316
  126.7598  277.5299  308.8282 H   0  0  0  0  0  0  0  0  0  0  0  0  # atno 2366 bound_to 2351
  125.3637  276.2743  308.8982 H   0  0  0  0  0  0  0  0  0  0  0  0  # atno 2407 bound_to 2383
  122.6152  275.6061  309.4390 H   0  0  0  0  0  0  0  0  0  0  0  0  # atno 2445 bound_to 2428
  121.8090  278.9948  310.0523 H   0  0  0  0  0  0  0  0  0  0  0  0  # atno 2478 bound_to 2467
  119.9439  277.7276  307.6939 H   0  0  0  0  0  0  0  0  0  0  0  0  # atno 2510 bound_to 2497
  119.1083  274.8958  307.0281 H   0  0  0  0  0  0  0  0  0  0  0  0  # atno 2541 bound_to 2525
  116.6602  276.0917  308.8024 H   0  0  0  0  0  0  0  0  0  0  0  0  # atno 2572 bound_to 2558
  116.6524  278.6493  307.2320 H   0  0  0  0  0  0  0  0  0  0  0  0  # atno 2611 bound_to 2587
  119.8845  282.4492  303.3892 H   0  0  0  0  0  0  0  0  0  0  0  0  # atno 2619 bound_to 2595
  119.7455  280.9858  304.1558 H   0  0  0  0  0  0  0  0  0  0  0  0  # atno 2620 bound_to 2595
  119.8691  281.0477  302.5033 H   0  0  0  0  0  0  0  0  0  0  0  0  # atno 2621 bound_to 2595
  115.5385  276.2852  306.0889 H   0  0  0  0  0  0  0  0  0  0  0  0  # atno 2646 bound_to 2631
  112.5947  275.2596  306.7860 H   0  0  0  0  0  0  0  0  0  0  0  0  # atno 2679 bound_to 2660
  111.3619  277.4106  308.8427 H   0  0  0  0  0  0  0  0  0  0  0  0  # atno 2710 bound_to 2698
  109.4701  277.1158  306.1296 H   0  0  0  0  0  0  0  0  0  0  0  0  # atno 2736 bound_to 2721
  108.4171  275.6674  304.2284 H   0  0  0  0  0  0  0  0  0  0  0  0  # atno 2757 bound_to 2749
  107.2749  273.6420  306.4451 H   0  0  0  0  0  0  0  0  0  0  0  0  # atno 2782 bound_to 2776
  108.1993  274.6227  316.6721 LP  0  0  0  0  0  0  0  0  0  0  0  0  # atno 13465 bound_to 1382
  108.6312  273.5294  315.4001 LP  0  0  0  0  0  0  0  0  0  0  0  0  # atno 13466 bound_to 1382
  106.5874  275.2332  317.3106 LP  0  0  0  0  0  0  0  0  0  0  0  0  # atno 13467 bound_to 1385
  105.2854  275.0975  318.2867 LP  0  0  0  0  0  0  0  0  0  0  0  0  # atno 13468 bound_to 1385
  107.0436  274.7218  314.8758 LP  0  0  0  0  0  0  0  0  0  0  0  0  # atno 13469 bound_to 1409
  110.6813  275.9998  315.4129 LP  0  0  0  0  0  0  0  0  0  0  0  0  # atno 13470 bound_to 1412
  110.7109  277.5375  314.6161 LP  0  0  0  0  0  0  0  0  0  0  0  0  # atno 13471 bound_to 1412
  108.6185  276.4678  315.5094 LP  0  0  0  0  0  0  0  0  0  0  0  0  # atno 13472 bound_to 1452
  110.3307  277.3053  319.6259 LP  0  0  0  0  0  0  0  0  0  0  0  0  # atno 13473 bound_to 1455
  111.0565  277.8940  318.1677 LP  0  0  0  0  0  0  0  0  0  0  0  0  # atno 13474 bound_to 1455
  107.8004  275.7936  317.8154 LP  0  0  0  0  0  0  0  0  0  0  0  0  # atno 13479 bound_to 1477
  112.2525  274.4711  319.0150 LP  0  0  0  0  0  0  0  0  0  0  0  0  # atno 13480 bound_to 1480
  111.4987  272.9460  319.3403 LP  0  0  0  0  0  0  0  0  0  0  0  0  # atno 13481 bound_to 1480
  110.4370  275.0388  317.0877 LP  0  0  0  0  0  0  0  0  0  0  0  0  # atno 13482 bound_to 1510
  112.6551  274.1585  316.1011 LP  0  0  0  0  0  0  0  0  0  0  0  0  # atno 13483 bound_to 1551
  116.8003  274.9712  317.3405 LP  0  0  0  0  0  0  0  0  0  0  0  0  # atno 13484 bound_to 1554
  116.5041  274.7971  315.6428 LP  0  0  0  0  0  0  0  0  0  0  0  0  # atno 13485 bound_to 1554
  124.1762  279.9246  309.0515 LP  0  0  0  0  0  0  0  0  0  0  0  0  # atno 13496 bound_to 2319
  123.8534  278.4968  309.9773 LP  0  0  0  0  0  0  0  0  0  0  0  0  # atno 13497 bound_to 2319
  123.8131  276.5275  310.3186 LP  0  0  0  0  0  0  0  0  0  0  0  0  # atno 13498 bound_to 2428
  119.0989  276.9837  309.5816 LP  0  0  0  0  0  0  0  0  0  0  0  0  # atno 13499 bound_to 2431
  119.1207  277.9858  310.9942 LP  0  0  0  0  0  0  0  0  0  0  0  0  # atno 13500 bound_to 2431
  121.5068  277.5598  309.0997 LP  0  0  0  0  0  0  0  0  0  0  0  0  # atno 13501 bound_to 2467
  125.4424  276.0532  312.0309 LP  0  0  0  0  0  0  0  0  0  0  0  0  # atno 13504 bound_to 2287
  125.2852  276.4153  310.3445 LP  0  0  0  0  0  0  0  0  0  0  0  0  # atno 13505 bound_to 2287
  128.3627  277.9942  311.3734 LP  0  0  0  0  0  0  0  0  0  0  0  0  # atno 13506 bound_to 2316
  126.3264  279.2212  308.7587 LP  0  0  0  0  0  0  0  0  0  0  0  0  # atno 13507 bound_to 2351
  123.1312  277.8945  306.2651 LP  0  0  0  0  0  0  0  0  0  0  0  0  # atno 13508 bound_to 2354
  122.6118  276.4341  307.0380 LP  0  0  0  0  0  0  0  0  0  0  0  0  # atno 13509 bound_to 2354
  124.8188  276.3818  307.2424 LP  0  0  0  0  0  0  0  0  0  0  0  0  # atno 13510 bound_to 2383
  120.6665  275.4109  309.4159 LP  0  0  0  0  0  0  0  0  0  0  0  0  # atno 13511 bound_to 2386
  121.2851  274.5030  308.0768 LP  0  0  0  0  0  0  0  0  0  0  0  0  # atno 13512 bound_to 2386
  117.8821  278.1048  307.4781 LP  0  0  0  0  0  0  0  0  0  0  0  0  # atno 13513 bound_to 2470
  118.3899  279.4474  306.5088 LP  0  0  0  0  0  0  0  0  0  0  0  0  # atno 13514 bound_to 2470
  121.3780  277.7347  306.6922 LP  0  0  0  0  0  0  0  0  0  0  0  0  # atno 13517 bound_to 2497
  117.9190  277.0698  309.5202 LP  0  0  0  0  0  0  0  0  0  0  0  0  # atno 13518 bound_to 2558
  119.2504  276.1688  308.2199 LP  0  0  0  0  0  0  0  0  0  0  0  0  # atno 13519 bound_to 2525
  115.1869  278.1883  308.0698 LP  0  0  0  0  0  0  0  0  0  0  0  0  # atno 13520 bound_to 2587
  114.9505  274.9833  309.6919 LP  0  0  0  0  0  0  0  0  0  0  0  0  # atno 13521 bound_to 2528
  114.9281  275.4099  308.0134 LP  0  0  0  0  0  0  0  0  0  0  0  0  # atno 13522 bound_to 2528
  113.4239  278.6679  309.3637 LP  0  0  0  0  0  0  0  0  0  0  0  0  # atno 13523 bound_to 2561
  113.2372  277.8478  307.8496 LP  0  0  0  0  0  0  0  0  0  0  0  0  # atno 13524 bound_to 2561
  111.3629  276.7780  307.2127 LP  0  0  0  0  0  0  0  0  0  0  0  0  # atno 13525 bound_to 2698
  113.6855  275.2450  308.1491 LP  0  0  0  0  0  0  0  0  0  0  0  0  # atno 13526 bound_to 2660
  109.0429  275.1421  308.0579 LP  0  0  0  0  0  0  0  0  0  0  0  0  # atno 13527 bound_to 2663
  108.7386  276.7336  308.6699 LP  0  0  0  0  0  0  0  0  0  0  0  0  # atno 13528 bound_to 2663
  112.6039  277.9333  304.4506 LP  0  0  0  0  0  0  0  0  0  0  0  0  # atno 13529 bound_to 2590
  112.0746  277.5871  306.0630 LP  0  0  0  0  0  0  0  0  0  0  0  0  # atno 13530 bound_to 2590
  114.0567  277.2029  305.9415 LP  0  0  0  0  0  0  0  0  0  0  0  0  # atno 13531 bound_to 2631
  107.5781  278.4722  307.1724 LP  0  0  0  0  0  0  0  0  0  0  0  0  # atno 13532 bound_to 2701
  107.5670  278.5158  305.4410 LP  0  0  0  0  0  0  0  0  0  0  0  0  # atno 13533 bound_to 2701
  110.6964  278.0697  305.3211 LP  0  0  0  0  0  0  0  0  0  0  0  0  # atno 13534 bound_to 2721
  114.4516  273.5399  316.6831 LP  0  0  0  0  0  0  0  0  0  0  0  0  # atno 13535 bound_to 1513
  113.5139  272.1176  316.3704 LP  0  0  0  0  0  0  0  0  0  0  0  0  # atno 13536 bound_to 1513
  111.4666  274.2791  305.0829 LP  0  0  0  0  0  0  0  0  0  0  0  0  # atno 13537 bound_to 2634
  110.7088  274.5384  306.6186 LP  0  0  0  0  0  0  0  0  0  0  0  0  # atno 13538 bound_to 2634
  108.6888  274.4944  307.0333 LP  0  0  0  0  0  0  0  0  0  0  0  0  # atno 13539 bound_to 2776
  108.6216  271.6902  310.9541 LP  0  0  0  0  0  0  0  0  0  0  0  0  # atno 13540 bound_to 2779
  106.9524  271.9483  310.5703 LP  0  0  0  0  0  0  0  0  0  0  0  0  # atno 13541 bound_to 2779

> <Gold.Score>
     Fitness  S(hb_ext) S(vdw_ext)  S(hb_int)    S(int)      intcor
     23.15       2.31      15.97       0.00      -1.12      -0.78

> <Gold.Goldscore.Fitness>
23.1521

> <Gold.Goldscore.Internal.Vdw>
-1.3976

> <Gold.Goldscore.Internal.Torsion>
-0.4945

> <Gold.Goldscore.External.Vdw>
15.9729

> <Gold.Goldscore.Internal.HBond>
0.0000

> <Gold.Goldscore.External.HBond>
2.3062

> <Gold.Goldscore.Internal.Correction>
-0.7752

> <Gold.Goldscore.Hbonds>
donor molecule, donor type, donor heavy atom, donor atom, acceptor molecule, acceptor atom, score
      P1  H  2698  2710       L1    17  0.06
      L1  H     8    22       P1  1412  0.97
      L1  H    10    23       P1  2565  0.04

> <Gold.Goldscore.Internal.Vdw.Weighted>
-1.3976

> <Gold.Goldscore.Internal.Torsion.Weighted>
-0.4945

> <Gold.Goldscore.External.Vdw.Weighted>
21.9627

> <Gold.Goldscore.Internal.HBond.Weighted>
0.0000

> <Gold.Goldscore.External.HBond.Weighted>
2.3062

> <Gold.Goldscore.Internal.Correction.Weighted>
-0.7752

> <Gold.Rescore>
     Score     S(PLP)   S(hbond)     S(cho)   S(metal)  DE(clash)   DE(tors)     intcor
     18.19     -15.89       1.48       0.00       0.00       0.00       1.07       ----

> <Gold.PLP.Fitness>
18.1904

> <Gold.PLP.PLP>
-15.8870

> <Gold.PLP.part.hbond>
-2.8194

> <Gold.PLP.part.metal>
0.0000

> <Gold.PLP.part.buried>
-0.9933

> <Gold.PLP.part.nonpolar>
-14.5165

> <Gold.PLP.part.repulsive>
1.7107

> <Gold.PLP.ligand.clash>
0.0000

> <Gold.PLP.ligand.torsion>
1.0683

> <Gold.PLP.Chemscore.Hbond>
1.4800

> <Gold.PLP.Chemscore.CHOScore>
0.0000

> <Gold.PLP.Chemscore.Metal>
0.0000

> <Gold.Chemscore.Hbonds>
donor molecule, donor type, donor heavy atom, donor atom, acceptor molecule, acceptor atom, score
      L1  H     8    22       P1  1412  1.00
      L1  H    10    23       P1  2565  0.45

> <Gold.PLP.Chemscore.Internal.Correction>
   9.000000E+99

