#       Name:                CT1002167954
#       Creating user name   hitesit
#       Creation time:       Sun Apr 16 22:53:07 2023


#       File generated by GOLD software.
#

@<TRIPOS>MOLECULE
CT1002167954|ligand_prepared|mol2|1|dock2
    29    30     1
SMALL
NO_CHARGES


@<TRIPOS>ATOM
      1 C1         112.3283 281.5032 313.0988 C.3            1 RES1               0.0000
      2 C2         113.7407 281.8334 313.6231 C.ar           1 RES1               0.0000
      3 C3         112.5016 281.0656 311.6473 C.2            1 RES1               0.0000
      4 C4         111.7765 280.4164 314.0147 C.2            1 RES1               0.0000
      5 C5         111.3517 282.7017 313.1372 C.3            1 RES1               0.0000
      6 C6         114.4471 282.9215 313.1194 C.ar           1 RES1               0.0000
      7 C7         114.3482 281.0620 314.6103 C.ar           1 RES1               0.0000
      8 N8         112.3680 279.7375 311.3676 N.am           1 RES1               0.0000
      9 O9         112.7901 281.8680 310.7680 O.2            1 RES1               0.0000
     10 N10        111.5477 279.1775 313.4756 N.am           1 RES1               0.0000
     11 O11        111.5535 280.6170 315.2022 O.2            1 RES1               0.0000
     12 C12        109.9659 282.3808 312.5997 C.3            1 RES1               0.0000
     13 C13        115.7138 283.2292 313.5878 C.ar           1 RES1               0.0000
     14 C14        115.6151 281.3713 315.0770 C.ar           1 RES1               0.0000
     15 C15        111.8474 278.7803 312.2009 C.2            1 RES1               0.0000
     16 C16        116.2984 282.4547 314.5671 C.ar           1 RES1               0.0000
     17 O17        111.6625 277.6329 311.8055 O.2            1 RES1               0.0000
     18 H18        111.2570 283.0469 314.1741 H              1 RES1               0.0000
     19 H19        111.7774 283.5232 312.5479 H              1 RES1               0.0000
     20 H20        114.0043 283.5410 312.3467 H              1 RES1               0.0000
     21 H21        113.8298 280.2043 315.0253 H              1 RES1               0.0000
     22 H22        112.6846 279.4273 310.4545 H              1 RES1               0.0000
     23 H23        111.1137 278.4875 314.0804 H              1 RES1               0.0000
     24 H24        109.3208 283.2555 312.6494 H              1 RES1               0.0000
     25 H25        110.0198 282.0580 311.5621 H              1 RES1               0.0000
     26 H26        109.5025 281.5846 313.1787 H              1 RES1               0.0000
     27 H27        116.2479 284.0821 313.1822 H              1 RES1               0.0000
     28 H28        116.0716 280.7586 315.8474 H              1 RES1               0.0000
     29 H29        117.2904 282.6962 314.9340 H              1 RES1               0.0000
@<TRIPOS>BOND
    1    1    2 1     
    2    1    3 1     
    3    1    4 1     
    4    1    5 1     
    5    2    6 ar    
    6    2    7 ar    
    7    3    8 1     
    8    3    9 2     
    9    4   10 1     
   10    4   11 2     
   11    5   12 1     
   12    5   18 1     
   13    5   19 1     
   14    6   13 ar    
   15    6   20 1     
   16    7   14 ar    
   17    7   21 1     
   18    8   15 1     
   19    8   22 1     
   20   10   15 1     
   21   10   23 1     
   22   12   24 1     
   23   12   25 1     
   24   12   26 1     
   25   13   16 ar    
   26   13   27 1     
   27   14   16 ar    
   28   14   28 1     
   29   15   17 2     
   30   16   29 1     
@<TRIPOS>SUBSTRUCTURE
      1 RES1           1
@<TRIPOS>SET
DONOR_HYDROGENS      STATIC     ATOMS    <user>   **** ""
2 22 23
ATOM$RED        STATIC     ATOMS    COLORGROUP SYSTEM
2 22 23
@<TRIPOS>COMMENT
> <Gold.Version>
2022.3.0

> <Gold.Id.Protein>
unknown|5adg_clean|pdb

> <Gold.Protein.RotatedTorsions>
[ 1394 1385 1383 1380 ] final  149.46 input   60.03 | X-H torsion
[ 1425 1409 1410 1411 ] final   79.82 input  129.35 | X-H torsion
[ 1462 1452 1453 1454 ] final    4.69 input  108.99 | X-H torsion
[ 1488 1477 1478 1479 ] final  146.40 input  100.07 | X-H torsion
[ 1521 1510 1511 1512 ] final  165.44 input  113.76 | X-H torsion
[ 1570 1551 1552 1553 ] final  -42.53 input  123.58 | X-H torsion
[ 1707 1683 1682 1681 ] final  -63.90 input   60.00 | X-H torsion
[ 2445 2428 2429 2430 ] final   90.43 input  119.94 | X-H torsion
[ 2478 2467 2468 2469 ] final   52.96 input  117.54 | X-H torsion
[ 2333 2316 2317 2318 ] final   82.07 input  118.58 | X-H torsion
[ 2366 2351 2352 2353 ] final  163.66 input  116.99 | X-H torsion
[ 2407 2383 2384 2385 ] final   38.17 input  115.65 | X-H torsion
[ 2510 2497 2498 2499 ] final  -17.83 input  121.55 | X-H torsion
[ 2572 2558 2559 2560 ] final  -39.37 input  118.05 | X-H torsion
[ 2541 2525 2526 2527 ] final   75.35 input  116.25 | X-H torsion
[ 2611 2587 2588 2589 ] final -159.27 input  123.81 | X-H torsion
[ 2710 2698 2699 2700 ] final  132.28 input  119.89 | X-H torsion
[ 2679 2660 2661 2662 ] final   56.84 input  116.13 | X-H torsion
[ 2646 2631 2632 2633 ] final   33.94 input  117.28 | X-H torsion
[ 2736 2721 2722 2723 ] final   47.14 input   88.34 | X-H torsion
[ 2782 2776 2777 2778 ] final  178.86 input -114.77 | X-H torsion
[ 2619 2595 2594 2593 ] final -170.88 input   60.00 | X-H torsion
[ 1697 1675 1676 1677 ] final  101.40 input  120.12 | X-H torsion
[ 1635 1616 1617 1618 ] final  -37.03 input  110.97 | X-H torsion
[ 2757 2749 2750 2751 ] final -131.03 input   47.81 | X-H torsion
[ 13465 1382 1381 1380 ] final   57.31 input    0.00 | X-H torsion
[ 13470 1412 1411 1410 ] final  -76.59 input    0.00 | X-H torsion
[ 13473 1455 1454 1453 ] final -143.74 input   -0.00 | X-H torsion
[ 13480 1480 1479 1478 ] final  174.18 input   -0.00 | X-H torsion
[ 13484 1554 1553 1552 ] final  119.32 input    0.00 | X-H torsion
[ 13496 2319 2318 2317 ] final -146.07 input   -0.00 | X-H torsion
[ 13499 2431 2430 2429 ] final   13.93 input    0.00 | X-H torsion
[ 13504 2287 2286 2285 ] final   16.46 input   -0.00 | X-H torsion
[ 13508 2354 2353 2352 ] final  102.59 input    0.00 | X-H torsion
[ 13511 2386 2385 2384 ] final  -15.77 input    0.00 | X-H torsion
[ 13513 2470 2469 2468 ] final -147.81 input   -0.00 | X-H torsion
[ 13521 2528 2527 2526 ] final  171.31 input    0.00 | X-H torsion
[ 13523 2561 2560 2559 ] final    8.40 input   -0.00 | X-H torsion
[ 13527 2663 2662 2661 ] final    8.15 input    0.00 | X-H torsion
[ 13529 2590 2589 2588 ] final   82.81 input   -0.00 | X-H torsion
[ 13532 2701 2700 2699 ] final   25.14 input    0.00 | X-H torsion
[ 13535 1513 1512 1511 ] final  -18.41 input    0.00 | X-H torsion
[ 13537 2634 2633 2632 ] final  116.48 input    0.00 | X-H torsion
[ 13540 2779 2778 2777 ] final   57.54 input    0.00 | X-H torsion

> <Gold.Protein.ActiveResidues>
 THR355  LYS356  ASP357  GLN358  LEU359  PHE360  PRO361  LEU362  ALA363  LYS364 
 ASP368  PHE377  GLY378  HIS382  MET383  GLU384  ARG385  LEU386  GLU387  GLU388 
 VAL389  ASN390  LYS391  GLU392  ILE393  ASP394  THR395  THR396  SER397 

> <Gold.Protein.RotatedAtoms>
  105.3977  276.4448  317.6297 H   0  0  0  0  0  0  0  0  0  0  0  0  # atno 1394 bound_to 1385
  106.1818  275.9520  314.2976 H   0  0  0  0  0  0  0  0  0  0  0  0  # atno 1425 bound_to 1409
  108.2197  276.2853  315.8315 H   0  0  0  0  0  0  0  0  0  0  0  0  # atno 1462 bound_to 1452
  107.7348  276.0954  318.2075 H   0  0  0  0  0  0  0  0  0  0  0  0  # atno 1488 bound_to 1477
  109.2999  273.8725  316.9450 H   0  0  0  0  0  0  0  0  0  0  0  0  # atno 1521 bound_to 1510
  112.6406  274.1985  316.2110 H   0  0  0  0  0  0  0  0  0  0  0  0  # atno 1570 bound_to 1551
  115.8266  274.2051  318.7833 H   0  0  0  0  0  0  0  0  0  0  0  0  # atno 1635 bound_to 1616
  117.6156  274.1191  316.9116 H   0  0  0  0  0  0  0  0  0  0  0  0  # atno 1697 bound_to 1675
  122.2189  278.3777  320.0806 H   0  0  0  0  0  0  0  0  0  0  0  0  # atno 1707 bound_to 1683
  122.8154  277.4037  318.8798 H   0  0  0  0  0  0  0  0  0  0  0  0  # atno 1708 bound_to 1683
  123.4915  278.8925  319.1518 H   0  0  0  0  0  0  0  0  0  0  0  0  # atno 1709 bound_to 1683
  128.3603  277.8267  310.3686 H   0  0  0  0  0  0  0  0  0  0  0  0  # atno 2333 bound_to 2316
  127.1694  278.7782  308.3126 H   0  0  0  0  0  0  0  0  0  0  0  0  # atno 2366 bound_to 2351
  124.9283  276.6582  308.8641 H   0  0  0  0  0  0  0  0  0  0  0  0  # atno 2407 bound_to 2383
  123.7192  276.7941  310.0195 H   0  0  0  0  0  0  0  0  0  0  0  0  # atno 2445 bound_to 2428
  122.0153  277.8459  308.8783 H   0  0  0  0  0  0  0  0  0  0  0  0  # atno 2478 bound_to 2467
  119.9353  277.7452  307.6811 H   0  0  0  0  0  0  0  0  0  0  0  0  # atno 2510 bound_to 2497
  119.4508  275.9672  308.3631 H   0  0  0  0  0  0  0  0  0  0  0  0  # atno 2541 bound_to 2525
  116.6805  276.1363  308.7189 H   0  0  0  0  0  0  0  0  0  0  0  0  # atno 2572 bound_to 2558
  116.0521  279.2902  307.7124 H   0  0  0  0  0  0  0  0  0  0  0  0  # atno 2611 bound_to 2587
  119.8881  282.4498  303.3396 H   0  0  0  0  0  0  0  0  0  0  0  0  # atno 2619 bound_to 2595
  119.7461  281.0286  304.1813 H   0  0  0  0  0  0  0  0  0  0  0  0  # atno 2620 bound_to 2595
  119.8648  281.0044  302.5275 H   0  0  0  0  0  0  0  0  0  0  0  0  # atno 2621 bound_to 2595
  114.5647  276.6638  306.8687 H   0  0  0  0  0  0  0  0  0  0  0  0  # atno 2646 bound_to 2631
  113.2785  276.1038  307.6565 H   0  0  0  0  0  0  0  0  0  0  0  0  # atno 2679 bound_to 2660
  112.0392  277.6612  308.0244 H   0  0  0  0  0  0  0  0  0  0  0  0  # atno 2710 bound_to 2698
  110.4555  276.7865  305.6918 H   0  0  0  0  0  0  0  0  0  0  0  0  # atno 2736 bound_to 2721
  108.5269  275.6248  304.1308 H   0  0  0  0  0  0  0  0  0  0  0  0  # atno 2757 bound_to 2749
  107.3684  274.7131  306.7365 H   0  0  0  0  0  0  0  0  0  0  0  0  # atno 2782 bound_to 2776
  108.2633  273.2456  315.8430 LP  0  0  0  0  0  0  0  0  0  0  0  0  # atno 13465 bound_to 1382
  108.5672  274.9065  316.2293 LP  0  0  0  0  0  0  0  0  0  0  0  0  # atno 13466 bound_to 1382
  106.6040  275.4355  317.2126 LP  0  0  0  0  0  0  0  0  0  0  0  0  # atno 13467 bound_to 1385
  105.4403  274.9391  318.2451 LP  0  0  0  0  0  0  0  0  0  0  0  0  # atno 13468 bound_to 1385
  107.0130  274.4127  314.2761 LP  0  0  0  0  0  0  0  0  0  0  0  0  # atno 13469 bound_to 1409
  110.6911  275.9379  315.2592 LP  0  0  0  0  0  0  0  0  0  0  0  0  # atno 13470 bound_to 1412
  110.7011  277.5994  314.7697 LP  0  0  0  0  0  0  0  0  0  0  0  0  # atno 13471 bound_to 1412
  107.7705  277.7829  315.0414 LP  0  0  0  0  0  0  0  0  0  0  0  0  # atno 13472 bound_to 1452
  111.0086  276.7939  318.8570 LP  0  0  0  0  0  0  0  0  0  0  0  0  # atno 13473 bound_to 1455
  110.3786  278.4054  318.9366 LP  0  0  0  0  0  0  0  0  0  0  0  0  # atno 13474 bound_to 1455
  109.3077  276.4081  317.5123 LP  0  0  0  0  0  0  0  0  0  0  0  0  # atno 13479 bound_to 1477
  112.1758  273.3294  318.4592 LP  0  0  0  0  0  0  0  0  0  0  0  0  # atno 13480 bound_to 1480
  111.5755  274.0877  319.8961 LP  0  0  0  0  0  0  0  0  0  0  0  0  # atno 13481 bound_to 1480
  110.6455  274.7772  317.5998 LP  0  0  0  0  0  0  0  0  0  0  0  0  # atno 13482 bound_to 1510
  111.9673  275.5606  315.3550 LP  0  0  0  0  0  0  0  0  0  0  0  0  # atno 13483 bound_to 1551
  116.9988  275.6402  316.7330 LP  0  0  0  0  0  0  0  0  0  0  0  0  # atno 13484 bound_to 1554
  116.3056  274.1282  316.2502 LP  0  0  0  0  0  0  0  0  0  0  0  0  # atno 13485 bound_to 1554
  123.8366  278.5581  308.9737 LP  0  0  0  0  0  0  0  0  0  0  0  0  # atno 13496 bound_to 2319
  124.1929  279.8633  310.0551 LP  0  0  0  0  0  0  0  0  0  0  0  0  # atno 13497 bound_to 2319
  122.7384  275.3711  309.7536 LP  0  0  0  0  0  0  0  0  0  0  0  0  # atno 13498 bound_to 2428
  119.2340  277.0530  311.0283 LP  0  0  0  0  0  0  0  0  0  0  0  0  # atno 13499 bound_to 2431
  118.9856  277.9166  309.5476 LP  0  0  0  0  0  0  0  0  0  0  0  0  # atno 13500 bound_to 2431
  121.3059  278.6784  310.2427 LP  0  0  0  0  0  0  0  0  0  0  0  0  # atno 13501 bound_to 2467
  125.5575  275.4830  311.5725 LP  0  0  0  0  0  0  0  0  0  0  0  0  # atno 13504 bound_to 2287
  125.1701  276.9855  310.8029 LP  0  0  0  0  0  0  0  0  0  0  0  0  # atno 13505 bound_to 2287
  127.2670  277.1376  311.5469 LP  0  0  0  0  0  0  0  0  0  0  0  0  # atno 13506 bound_to 2316
  125.9260  278.0009  309.2627 LP  0  0  0  0  0  0  0  0  0  0  0  0  # atno 13507 bound_to 2351
  123.0899  276.5784  306.0524 LP  0  0  0  0  0  0  0  0  0  0  0  0  # atno 13508 bound_to 2354
  122.6531  277.7502  307.2507 LP  0  0  0  0  0  0  0  0  0  0  0  0  # atno 13509 bound_to 2354
  125.2460  276.0050  307.2759 LP  0  0  0  0  0  0  0  0  0  0  0  0  # atno 13510 bound_to 2383
  121.2626  274.6643  307.9834 LP  0  0  0  0  0  0  0  0  0  0  0  0  # atno 13511 bound_to 2386
  120.6890  275.2496  309.5093 LP  0  0  0  0  0  0  0  0  0  0  0  0  # atno 13512 bound_to 2386
  117.9796  277.9285  306.9099 LP  0  0  0  0  0  0  0  0  0  0  0  0  # atno 13513 bound_to 2470
  118.2925  279.6238  307.0770 LP  0  0  0  0  0  0  0  0  0  0  0  0  # atno 13514 bound_to 2470
  121.3864  277.7175  306.7046 LP  0  0  0  0  0  0  0  0  0  0  0  0  # atno 13517 bound_to 2497
  117.8992  277.0264  309.6015 LP  0  0  0  0  0  0  0  0  0  0  0  0  # atno 13518 bound_to 2558
  118.9178  275.1282  306.9233 LP  0  0  0  0  0  0  0  0  0  0  0  0  # atno 13519 bound_to 2525
  115.7691  277.5668  307.6040 LP  0  0  0  0  0  0  0  0  0  0  0  0  # atno 13520 bound_to 2587
  114.6894  275.9506  309.1978 LP  0  0  0  0  0  0  0  0  0  0  0  0  # atno 13521 bound_to 2528
  115.1891  274.4426  308.5076 LP  0  0  0  0  0  0  0  0  0  0  0  0  # atno 13522 bound_to 2528
  113.4334  278.2021  309.4648 LP  0  0  0  0  0  0  0  0  0  0  0  0  # atno 13523 bound_to 2561
  113.2278  278.3135  307.7486 LP  0  0  0  0  0  0  0  0  0  0  0  0  # atno 13524 bound_to 2561
  110.7028  276.5337  308.0102 LP  0  0  0  0  0  0  0  0  0  0  0  0  # atno 13525 bound_to 2698
  113.0144  274.4164  307.2946 LP  0  0  0  0  0  0  0  0  0  0  0  0  # atno 13526 bound_to 2660
  109.0621  275.1875  308.7609 LP  0  0  0  0  0  0  0  0  0  0  0  0  # atno 13527 bound_to 2663
  108.7194  276.6882  307.9669 LP  0  0  0  0  0  0  0  0  0  0  0  0  # atno 13528 bound_to 2663
  112.5978  277.8616  304.4365 LP  0  0  0  0  0  0  0  0  0  0  0  0  # atno 13529 bound_to 2590
  112.0807  277.6588  306.0771 LP  0  0  0  0  0  0  0  0  0  0  0  0  # atno 13530 bound_to 2590
  115.0029  276.8351  305.1839 LP  0  0  0  0  0  0  0  0  0  0  0  0  # atno 13531 bound_to 2631
  107.7158  279.1505  306.8531 LP  0  0  0  0  0  0  0  0  0  0  0  0  # atno 13532 bound_to 2701
  107.4293  277.8376  305.7603 LP  0  0  0  0  0  0  0  0  0  0  0  0  # atno 13533 bound_to 2701
  109.7464  278.3872  305.7431 LP  0  0  0  0  0  0  0  0  0  0  0  0  # atno 13534 bound_to 2721
  113.4602  272.2914  316.9607 LP  0  0  0  0  0  0  0  0  0  0  0  0  # atno 13535 bound_to 1513
  114.5053  273.3660  316.0928 LP  0  0  0  0  0  0  0  0  0  0  0  0  # atno 13536 bound_to 1513
  111.1253  273.6977  306.3437 LP  0  0  0  0  0  0  0  0  0  0  0  0  # atno 13537 bound_to 2634
  111.0501  275.1198  305.3578 LP  0  0  0  0  0  0  0  0  0  0  0  0  # atno 13538 bound_to 2634
  108.5990  273.4652  306.7533 LP  0  0  0  0  0  0  0  0  0  0  0  0  # atno 13539 bound_to 2776
  106.9927  271.6522  310.4601 LP  0  0  0  0  0  0  0  0  0  0  0  0  # atno 13540 bound_to 2779
  108.5813  271.9863  311.0642 LP  0  0  0  0  0  0  0  0  0  0  0  0  # atno 13541 bound_to 2779

> <Gold.Score>
     Fitness  S(hb_ext) S(vdw_ext)  S(hb_int)    S(int)      intcor
     22.33       2.93      15.74       0.00      -2.24      -0.86

> <Gold.Goldscore.Fitness>
22.3349

> <Gold.Goldscore.Internal.Vdw>
-2.7341

> <Gold.Goldscore.Internal.Torsion>
-0.3684

> <Gold.Goldscore.External.Vdw>
15.7431

> <Gold.Goldscore.Internal.HBond>
0.0000

> <Gold.Goldscore.External.HBond>
2.9324

> <Gold.Goldscore.Internal.Correction>
-0.8582

> <Gold.Goldscore.Hbonds>
donor molecule, donor type, donor heavy atom, donor atom, acceptor molecule, acceptor atom, score
      L1  H     8    22       P1  2561  0.58
      L1  H    10    23       P1  1412  0.89

> <Gold.Goldscore.Internal.Vdw.Weighted>
-2.7341

> <Gold.Goldscore.Internal.Torsion.Weighted>
-0.3684

> <Gold.Goldscore.External.Vdw.Weighted>
21.6468

> <Gold.Goldscore.Internal.HBond.Weighted>
0.0000

> <Gold.Goldscore.External.HBond.Weighted>
2.9324

> <Gold.Goldscore.Internal.Correction.Weighted>
-0.8582

> <Gold.Rescore>
     Score     S(PLP)   S(hbond)     S(cho)   S(metal)  DE(clash)   DE(tors)     intcor
     27.92     -24.49       1.93       0.00       0.00       0.42       0.97       ----

> <Gold.PLP.Fitness>
27.9216

> <Gold.PLP.PLP>
-24.4921

> <Gold.PLP.part.hbond>
-2.0000

> <Gold.PLP.part.metal>
0.0000

> <Gold.PLP.part.buried>
-4.8942

> <Gold.PLP.part.nonpolar>
-19.9477

> <Gold.PLP.part.repulsive>
0.5464

> <Gold.PLP.ligand.clash>
0.4213

> <Gold.PLP.ligand.torsion>
0.9666

> <Gold.PLP.Chemscore.Hbond>
1.9280

> <Gold.PLP.Chemscore.CHOScore>
0.0000

> <Gold.PLP.Chemscore.Metal>
0.0000

> <Gold.Chemscore.Hbonds>
donor molecule, donor type, donor heavy atom, donor atom, acceptor molecule, acceptor atom, score
      L1  H    10    23       P1  1412  0.86
      P1  H  2564  2576       L1     9  0.01

> <Gold.PLP.Chemscore.Internal.Correction>
   9.000000E+99

