#       Name:                CT1002167954
#       Creating user name   hitesit
#       Creation time:       Sun Apr 16 22:53:08 2023


#       File generated by GOLD software.
#

@<TRIPOS>MOLECULE
CT1002167954|ligand_prepared|mol2|1|dock4
    29    30     1
SMALL
NO_CHARGES


@<TRIPOS>ATOM
      1 C1         112.1482 281.3251 313.7516 C.3            1 RES1               0.0000
      2 C2         110.8920 282.2116 313.8737 C.ar           1 RES1               0.0000
      3 C3         111.7927 279.9874 314.3938 C.2            1 RES1               0.0000
      4 C4         112.4643 281.2359 312.2627 C.2            1 RES1               0.0000
      5 C5         113.3910 281.9001 314.4702 C.3            1 RES1               0.0000
      6 C6         110.8634 283.2813 314.7635 C.ar           1 RES1               0.0000
      7 C7         109.7572 281.9741 313.1028 C.ar           1 RES1               0.0000
      8 N8         111.5788 278.9256 313.5650 N.am           1 RES1               0.0000
      9 O9         111.6631 279.8752 315.6066 O.2            1 RES1               0.0000
     10 N10        112.3503 280.0134 311.6542 N.am           1 RES1               0.0000
     11 O11        112.7950 282.2165 311.6074 O.2            1 RES1               0.0000
     12 C12        114.6733 281.1345 314.1846 C.3            1 RES1               0.0000
     13 C13        109.7420 284.0863 314.8764 C.ar           1 RES1               0.0000
     14 C14        108.6367 282.7803 313.2174 C.ar           1 RES1               0.0000
     15 C15        111.8922 278.8604 312.2311 C.2            1 RES1               0.0000
     16 C16        108.6282 283.8367 314.1032 C.ar           1 RES1               0.0000
     17 O17        111.7661 277.8124 311.6042 O.2            1 RES1               0.0000
     18 H18        113.5265 282.9437 314.1608 H              1 RES1               0.0000
     19 H19        113.2086 281.8921 315.5519 H              1 RES1               0.0000
     20 H20        111.7296 283.4916 315.3819 H              1 RES1               0.0000
     21 H21        109.7409 281.1480 312.4000 H              1 RES1               0.0000
     22 H22        111.1457 278.1042 313.9749 H              1 RES1               0.0000
     23 H23        112.6333 279.9578 310.6810 H              1 RES1               0.0000
     24 H24        115.5140 281.5793 314.7130 H              1 RES1               0.0000
     25 H25        114.5829 280.0981 314.5032 H              1 RES1               0.0000
     26 H26        114.8990 281.1434 313.1203 H              1 RES1               0.0000
     27 H27        109.7399 284.9156 315.5760 H              1 RES1               0.0000
     28 H28        107.7621 282.5798 312.6074 H              1 RES1               0.0000
     29 H29        107.7500 284.4677 314.1916 H              1 RES1               0.0000
@<TRIPOS>BOND
    1    1    2 1     
    2    1    3 1     
    3    1    4 1     
    4    1    5 1     
    5    2    6 ar    
    6    2    7 ar    
    7    3    8 1     
    8    3    9 2     
    9    4   10 1     
   10    4   11 2     
   11    5   12 1     
   12    5   18 1     
   13    5   19 1     
   14    6   13 ar    
   15    6   20 1     
   16    7   14 ar    
   17    7   21 1     
   18    8   15 1     
   19    8   22 1     
   20   10   15 1     
   21   10   23 1     
   22   12   24 1     
   23   12   25 1     
   24   12   26 1     
   25   13   16 ar    
   26   13   27 1     
   27   14   16 ar    
   28   14   28 1     
   29   15   17 2     
   30   16   29 1     
@<TRIPOS>SUBSTRUCTURE
      1 RES1           1
@<TRIPOS>SET
DONOR_HYDROGENS      STATIC     ATOMS    <user>   **** ""
2 22 23
ATOM$RED        STATIC     ATOMS    COLORGROUP SYSTEM
2 22 23
@<TRIPOS>COMMENT
> <Gold.Version>
2022.3.0

> <Gold.Id.Protein>
unknown|5adg_clean|pdb

> <Gold.Protein.RotatedTorsions>
[ 1394 1385 1383 1380 ] final  -88.48 input   60.03 | X-H torsion
[ 1425 1409 1410 1411 ] final  159.17 input  129.35 | X-H torsion
[ 1462 1452 1453 1454 ] final  105.93 input  108.99 | X-H torsion
[ 1488 1477 1478 1479 ] final   10.76 input  100.07 | X-H torsion
[ 1521 1510 1511 1512 ] final   68.82 input  113.76 | X-H torsion
[ 1570 1551 1552 1553 ] final  160.81 input  123.58 | X-H torsion
[ 1707 1683 1682 1681 ] final -145.49 input   60.00 | X-H torsion
[ 2445 2428 2429 2430 ] final  161.93 input  119.94 | X-H torsion
[ 2478 2467 2468 2469 ] final  -33.93 input  117.54 | X-H torsion
[ 2333 2316 2317 2318 ] final    4.46 input  118.58 | X-H torsion
[ 2366 2351 2352 2353 ] final  -78.96 input  116.99 | X-H torsion
[ 2407 2383 2384 2385 ] final -132.89 input  115.65 | X-H torsion
[ 2510 2497 2498 2499 ] final   93.16 input  121.55 | X-H torsion
[ 2572 2558 2559 2560 ] final  -68.84 input  118.05 | X-H torsion
[ 2541 2525 2526 2527 ] final -121.26 input  116.25 | X-H torsion
[ 2611 2587 2588 2589 ] final  -14.65 input  123.81 | X-H torsion
[ 2710 2698 2699 2700 ] final  176.00 input  119.89 | X-H torsion
[ 2679 2660 2661 2662 ] final  -72.17 input  116.13 | X-H torsion
[ 2646 2631 2632 2633 ] final  -90.84 input  117.28 | X-H torsion
[ 2736 2721 2722 2723 ] final  -83.21 input   88.34 | X-H torsion
[ 2782 2776 2777 2778 ] final -167.07 input -114.77 | X-H torsion
[ 2619 2595 2594 2593 ] final -144.11 input   60.00 | X-H torsion
[ 1697 1675 1676 1677 ] final -158.15 input  120.12 | X-H torsion
[ 1635 1616 1617 1618 ] final  100.90 input  110.97 | X-H torsion
[ 2757 2749 2750 2751 ] final -174.33 input   47.81 | X-H torsion
[ 13465 1382 1381 1380 ] final  167.40 input    0.00 | X-H torsion
[ 13470 1412 1411 1410 ] final  -78.16 input    0.00 | X-H torsion
[ 13473 1455 1454 1453 ] final -164.11 input   -0.00 | X-H torsion
[ 13480 1480 1479 1478 ] final -117.43 input   -0.00 | X-H torsion
[ 13484 1554 1553 1552 ] final  110.67 input    0.00 | X-H torsion
[ 13496 2319 2318 2317 ] final  -50.02 input   -0.00 | X-H torsion
[ 13499 2431 2430 2429 ] final   30.55 input    0.00 | X-H torsion
[ 13504 2287 2286 2285 ] final  165.58 input   -0.00 | X-H torsion
[ 13508 2354 2353 2352 ] final  157.96 input    0.00 | X-H torsion
[ 13511 2386 2385 2384 ] final  111.42 input    0.00 | X-H torsion
[ 13513 2470 2469 2468 ] final  -61.94 input   -0.00 | X-H torsion
[ 13521 2528 2527 2526 ] final   40.86 input    0.00 | X-H torsion
[ 13523 2561 2560 2559 ] final -162.18 input   -0.00 | X-H torsion
[ 13527 2663 2662 2661 ] final    2.72 input    0.00 | X-H torsion
[ 13529 2590 2589 2588 ] final  154.79 input   -0.00 | X-H torsion
[ 13532 2701 2700 2699 ] final   46.36 input    0.00 | X-H torsion
[ 13535 1513 1512 1511 ] final    1.47 input    0.00 | X-H torsion
[ 13537 2634 2633 2632 ] final   75.00 input    0.00 | X-H torsion
[ 13540 2779 2778 2777 ] final  -65.64 input    0.00 | X-H torsion

> <Gold.Protein.ActiveResidues>
 THR355  LYS356  ASP357  GLN358  LEU359  PHE360  PRO361  LEU362  ALA363  LYS364 
 ASP368  PHE377  GLY378  HIS382  MET383  GLU384  ARG385  LEU386  GLU387  GLU388 
 VAL389  ASN390  LYS391  GLU392  ILE393  ASP394  THR395  THR396  SER397 

> <Gold.Protein.RotatedAtoms>
  105.4669  274.9227  318.2305 H   0  0  0  0  0  0  0  0  0  0  0  0  # atno 1394 bound_to 1385
  106.3090  275.2096  313.4497 H   0  0  0  0  0  0  0  0  0  0  0  0  # atno 1425 bound_to 1409
  107.1581  277.1613  315.7307 H   0  0  0  0  0  0  0  0  0  0  0  0  # atno 1462 bound_to 1452
  108.9989  275.9284  317.1803 H   0  0  0  0  0  0  0  0  0  0  0  0  # atno 1488 bound_to 1477
  110.0021  274.9544  316.6470 H   0  0  0  0  0  0  0  0  0  0  0  0  # atno 1521 bound_to 1510
  112.0024  275.3307  315.0891 H   0  0  0  0  0  0  0  0  0  0  0  0  # atno 1570 bound_to 1551
  114.2448  273.7635  318.6413 H   0  0  0  0  0  0  0  0  0  0  0  0  # atno 1635 bound_to 1616
  118.0150  273.9048  315.6260 H   0  0  0  0  0  0  0  0  0  0  0  0  # atno 1697 bound_to 1675
  123.1365  279.0966  319.6300 H   0  0  0  0  0  0  0  0  0  0  0  0  # atno 1707 bound_to 1683
  122.1109  277.8103  319.8294 H   0  0  0  0  0  0  0  0  0  0  0  0  # atno 1708 bound_to 1683
  123.2775  277.7654  318.6526 H   0  0  0  0  0  0  0  0  0  0  0  0  # atno 1709 bound_to 1683
  127.5206  277.1166  310.2078 H   0  0  0  0  0  0  0  0  0  0  0  0  # atno 2333 bound_to 2316
  125.8855  278.8931  309.0987 H   0  0  0  0  0  0  0  0  0  0  0  0  # atno 2366 bound_to 2351
  125.1488  276.0827  307.2183 H   0  0  0  0  0  0  0  0  0  0  0  0  # atno 2407 bound_to 2383
  123.7040  275.9493  310.6180 H   0  0  0  0  0  0  0  0  0  0  0  0  # atno 2445 bound_to 2428
  121.0344  277.6362  309.5700 H   0  0  0  0  0  0  0  0  0  0  0  0  # atno 2478 bound_to 2467
  121.2281  277.0981  307.4621 H   0  0  0  0  0  0  0  0  0  0  0  0  # atno 2510 bound_to 2497
  119.0640  274.9336  306.9966 H   0  0  0  0  0  0  0  0  0  0  0  0  # atno 2541 bound_to 2525
  116.6518  275.9819  309.1413 H   0  0  0  0  0  0  0  0  0  0  0  0  # atno 2572 bound_to 2558
  115.3515  277.7577  307.8737 H   0  0  0  0  0  0  0  0  0  0  0  0  # atno 2611 bound_to 2587
  119.8513  282.3536  303.7708 H   0  0  0  0  0  0  0  0  0  0  0  0  # atno 2619 bound_to 2595
  119.7495  280.7026  303.8812 H   0  0  0  0  0  0  0  0  0  0  0  0  # atno 2620 bound_to 2595
  119.8983  281.4266  302.3968 H   0  0  0  0  0  0  0  0  0  0  0  0  # atno 2621 bound_to 2595
  114.3007  277.1752  305.4055 H   0  0  0  0  0  0  0  0  0  0  0  0  # atno 2646 bound_to 2631
  112.6465  274.8917  306.8434 H   0  0  0  0  0  0  0  0  0  0  0  0  # atno 2679 bound_to 2660
  111.7359  277.6324  308.6093 H   0  0  0  0  0  0  0  0  0  0  0  0  # atno 2710 bound_to 2698
  109.3126  277.8759  306.0475 H   0  0  0  0  0  0  0  0  0  0  0  0  # atno 2736 bound_to 2721
  109.1200  275.3876  303.9830 H   0  0  0  0  0  0  0  0  0  0  0  0  # atno 2757 bound_to 2749
  107.5313  274.8371  306.8143 H   0  0  0  0  0  0  0  0  0  0  0  0  # atno 2782 bound_to 2776
  108.9124  274.4373  315.4259 LP  0  0  0  0  0  0  0  0  0  0  0  0  # atno 13465 bound_to 1382
  107.9181  273.7148  316.6463 LP  0  0  0  0  0  0  0  0  0  0  0  0  # atno 13466 bound_to 1382
  105.3720  276.4407  317.6524 LP  0  0  0  0  0  0  0  0  0  0  0  0  # atno 13467 bound_to 1385
  106.6025  275.4671  317.2001 LP  0  0  0  0  0  0  0  0  0  0  0  0  # atno 13468 bound_to 1385
  106.8896  275.1325  315.0983 LP  0  0  0  0  0  0  0  0  0  0  0  0  # atno 13469 bound_to 1409
  110.6896  275.9450  315.2819 LP  0  0  0  0  0  0  0  0  0  0  0  0  # atno 13470 bound_to 1412
  110.7026  277.5923  314.7471 LP  0  0  0  0  0  0  0  0  0  0  0  0  # atno 13471 bound_to 1412
  108.7918  276.9401  315.1384 LP  0  0  0  0  0  0  0  0  0  0  0  0  # atno 13472 bound_to 1452
  110.8478  276.7764  319.1170 LP  0  0  0  0  0  0  0  0  0  0  0  0  # atno 13473 bound_to 1455
  110.5395  278.4229  318.6765 LP  0  0  0  0  0  0  0  0  0  0  0  0  # atno 13474 bound_to 1455
  108.0726  276.5713  318.5158 LP  0  0  0  0  0  0  0  0  0  0  0  0  # atno 13479 bound_to 1477
  112.3597  274.2522  318.7085 LP  0  0  0  0  0  0  0  0  0  0  0  0  # atno 13480 bound_to 1480
  111.3915  273.1649  319.6468 LP  0  0  0  0  0  0  0  0  0  0  0  0  # atno 13481 bound_to 1480
  109.9623  273.7247  317.8897 LP  0  0  0  0  0  0  0  0  0  0  0  0  # atno 13482 bound_to 1510
  112.5987  274.4404  316.4651 LP  0  0  0  0  0  0  0  0  0  0  0  0  # atno 13483 bound_to 1551
  116.9950  275.6712  316.6061 LP  0  0  0  0  0  0  0  0  0  0  0  0  # atno 13484 bound_to 1554
  116.3094  274.0972  316.3771 LP  0  0  0  0  0  0  0  0  0  0  0  0  # atno 13485 bound_to 1554
  123.9248  278.7521  310.2435 LP  0  0  0  0  0  0  0  0  0  0  0  0  # atno 13496 bound_to 2319
  124.1047  279.6693  308.7853 LP  0  0  0  0  0  0  0  0  0  0  0  0  # atno 13497 bound_to 2319
  122.7532  276.1934  309.1709 LP  0  0  0  0  0  0  0  0  0  0  0  0  # atno 13498 bound_to 2428
  119.2162  277.2838  311.1236 LP  0  0  0  0  0  0  0  0  0  0  0  0  # atno 13499 bound_to 2431
  119.0034  277.6857  309.4523 LP  0  0  0  0  0  0  0  0  0  0  0  0  # atno 13500 bound_to 2431
  122.2610  278.8826  309.5692 LP  0  0  0  0  0  0  0  0  0  0  0  0  # atno 13501 bound_to 2467
  125.1682  277.0752  311.2553 LP  0  0  0  0  0  0  0  0  0  0  0  0  # atno 13504 bound_to 2287
  125.5594  275.3933  311.1200 LP  0  0  0  0  0  0  0  0  0  0  0  0  # atno 13505 bound_to 2287
  128.0833  277.8278  311.7032 LP  0  0  0  0  0  0  0  0  0  0  0  0  # atno 13506 bound_to 2316
  127.1811  277.8886  308.4943 LP  0  0  0  0  0  0  0  0  0  0  0  0  # atno 13507 bound_to 2351
  122.7442  276.3111  306.7280 LP  0  0  0  0  0  0  0  0  0  0  0  0  # atno 13508 bound_to 2354
  122.9988  278.0175  306.5751 LP  0  0  0  0  0  0  0  0  0  0  0  0  # atno 13509 bound_to 2354
  125.0297  276.5699  308.8911 LP  0  0  0  0  0  0  0  0  0  0  0  0  # atno 13510 bound_to 2383
  120.9106  274.5123  309.4866 LP  0  0  0  0  0  0  0  0  0  0  0  0  # atno 13511 bound_to 2386
  121.0410  275.4016  308.0060 LP  0  0  0  0  0  0  0  0  0  0  0  0  # atno 13512 bound_to 2386
  117.9179  278.6708  307.8249 LP  0  0  0  0  0  0  0  0  0  0  0  0  # atno 13513 bound_to 2470
  118.3541  278.8815  306.1620 LP  0  0  0  0  0  0  0  0  0  0  0  0  # atno 13514 bound_to 2470
  120.1302  278.3464  306.9174 LP  0  0  0  0  0  0  0  0  0  0  0  0  # atno 13517 bound_to 2497
  117.9271  277.1768  309.1902 LP  0  0  0  0  0  0  0  0  0  0  0  0  # atno 13518 bound_to 2558
  119.2934  276.1321  308.2504 LP  0  0  0  0  0  0  0  0  0  0  0  0  # atno 13519 bound_to 2525
  116.4484  279.0527  307.4476 LP  0  0  0  0  0  0  0  0  0  0  0  0  # atno 13520 bound_to 2587
  115.1424  274.4450  309.2319 LP  0  0  0  0  0  0  0  0  0  0  0  0  # atno 13521 bound_to 2528
  114.7362  275.9482  308.4734 LP  0  0  0  0  0  0  0  0  0  0  0  0  # atno 13522 bound_to 2528
  113.2273  278.1713  307.7512 LP  0  0  0  0  0  0  0  0  0  0  0  0  # atno 13523 bound_to 2561
  113.4339  278.3444  309.4621 LP  0  0  0  0  0  0  0  0  0  0  0  0  # atno 13524 bound_to 2561
  110.9984  276.5618  307.4401 LP  0  0  0  0  0  0  0  0  0  0  0  0  # atno 13525 bound_to 2698
  113.6347  275.6061  308.0928 LP  0  0  0  0  0  0  0  0  0  0  0  0  # atno 13526 bound_to 2660
  109.0661  275.1534  308.6864 LP  0  0  0  0  0  0  0  0  0  0  0  0  # atno 13527 bound_to 2663
  108.7154  276.7222  308.0414 LP  0  0  0  0  0  0  0  0  0  0  0  0  # atno 13528 bound_to 2663
  112.3401  276.9814  304.8780 LP  0  0  0  0  0  0  0  0  0  0  0  0  # atno 13529 bound_to 2590
  112.3384  278.5390  305.6356 LP  0  0  0  0  0  0  0  0  0  0  0  0  # atno 13530 bound_to 2590
  115.2593  276.3382  306.6056 LP  0  0  0  0  0  0  0  0  0  0  0  0  # atno 13531 bound_to 2631
  107.7437  279.3001  306.5730 LP  0  0  0  0  0  0  0  0  0  0  0  0  # atno 13532 bound_to 2701
  107.4014  277.6879  306.0404 LP  0  0  0  0  0  0  0  0  0  0  0  0  # atno 13533 bound_to 2701
  110.8482  277.3368  305.4002 LP  0  0  0  0  0  0  0  0  0  0  0  0  # atno 13534 bound_to 2721
  113.4510  272.1650  316.6898 LP  0  0  0  0  0  0  0  0  0  0  0  0  # atno 13535 bound_to 1513
  114.5146  273.4925  316.3637 LP  0  0  0  0  0  0  0  0  0  0  0  0  # atno 13536 bound_to 1513
  111.3948  273.6005  305.8014 LP  0  0  0  0  0  0  0  0  0  0  0  0  # atno 13537 bound_to 2634
  110.7805  275.2170  305.9001 LP  0  0  0  0  0  0  0  0  0  0  0  0  # atno 13538 bound_to 2634
  108.4425  273.3461  306.6784 LP  0  0  0  0  0  0  0  0  0  0  0  0  # atno 13539 bound_to 2776
  108.0040  272.5701  311.1351 LP  0  0  0  0  0  0  0  0  0  0  0  0  # atno 13540 bound_to 2779
  107.5700  271.0684  310.3892 LP  0  0  0  0  0  0  0  0  0  0  0  0  # atno 13541 bound_to 2779

> <Gold.Score>
     Fitness  S(hb_ext) S(vdw_ext)  S(hb_int)    S(int)      intcor
     21.81       2.09      14.84       0.00      -0.68      -0.78

> <Gold.Goldscore.Fitness>
21.8084

> <Gold.Goldscore.Internal.Vdw>
-0.9806

> <Gold.Goldscore.Internal.Torsion>
-0.4737

> <Gold.Goldscore.External.Vdw>
14.8373

> <Gold.Goldscore.Internal.HBond>
0.0000

> <Gold.Goldscore.External.HBond>
2.0861

> <Gold.Goldscore.Internal.Correction>
-0.7752

> <Gold.Goldscore.Hbonds>
donor molecule, donor type, donor heavy atom, donor atom, acceptor molecule, acceptor atom, score
      L1  H     8    22       P1  1412  1.00
      L1  H    10    23       P1  2561  0.04

> <Gold.Goldscore.Internal.Vdw.Weighted>
-0.9806

> <Gold.Goldscore.Internal.Torsion.Weighted>
-0.4737

> <Gold.Goldscore.External.Vdw.Weighted>
20.4013

> <Gold.Goldscore.Internal.HBond.Weighted>
0.0000

> <Gold.Goldscore.External.HBond.Weighted>
2.0861

> <Gold.Goldscore.Internal.Correction.Weighted>
-0.7752

> <Gold.Rescore>
     Score     S(PLP)   S(hbond)     S(cho)   S(metal)  DE(clash)   DE(tors)     intcor
     19.16     -16.64       1.10       0.00       0.00       0.00       0.39       ----

> <Gold.PLP.Fitness>
19.1607

> <Gold.PLP.PLP>
-16.6441

> <Gold.PLP.part.hbond>
-2.6108

> <Gold.PLP.part.metal>
0.0000

> <Gold.PLP.part.buried>
-3.2008

> <Gold.PLP.part.nonpolar>
-12.1874

> <Gold.PLP.part.repulsive>
0.7171

> <Gold.PLP.ligand.clash>
0.0000

> <Gold.PLP.ligand.torsion>
0.3884

> <Gold.PLP.Chemscore.Hbond>
1.0978

> <Gold.PLP.Chemscore.CHOScore>
0.0000

> <Gold.PLP.Chemscore.Metal>
0.0000

> <Gold.Chemscore.Hbonds>
donor molecule, donor type, donor heavy atom, donor atom, acceptor molecule, acceptor atom, score
      L1  H     8    22       P1  1412  1.00
      L1  H    10    23       P1  2704  0.01

> <Gold.PLP.Chemscore.Internal.Correction>
   9.000000E+99

