#       Name:                CT1002167954
#       Creating user name   hitesit
#       Creation time:       Sun Apr 16 22:53:12 2023


#       File generated by GOLD software.
#

@<TRIPOS>MOLECULE
CT1002167954|ligand_prepared|mol2|1|dock10
    29    30     1
SMALL
NO_CHARGES


@<TRIPOS>ATOM
      1 C1         111.7425 281.4276 314.6511 C.3            1 RES1               0.0000
      2 C2         112.6581 282.1469 315.6625 C.ar           1 RES1               0.0000
      3 C3         112.5323 281.3344 313.3489 C.2            1 RES1               0.0000
      4 C4         111.4015 280.0765 315.2700 C.2            1 RES1               0.0000
      5 C5         110.4167 282.1721 314.3692 C.3            1 RES1               0.0000
      6 C6         112.4143 283.4685 316.0239 C.ar           1 RES1               0.0000
      7 C7         113.7469 281.5022 316.2435 C.ar           1 RES1               0.0000
      8 N8         113.0320 280.1146 312.9990 N.am           1 RES1               0.0000
      9 O9         112.7473 282.3238 312.6597 O.2            1 RES1               0.0000
     10 N10        111.8677 278.9487 314.6467 N.am           1 RES1               0.0000
     11 O11        110.7475 279.9791 316.3011 O.2            1 RES1               0.0000
     12 C12        109.4430 281.3851 313.5062 C.3            1 RES1               0.0000
     13 C13        113.2277 284.1212 316.9354 C.ar           1 RES1               0.0000
     14 C14        114.5592 282.1569 317.1547 C.ar           1 RES1               0.0000
     15 C15        112.6933 278.9078 313.5563 C.2            1 RES1               0.0000
     16 C16        114.3003 283.4658 317.5017 C.ar           1 RES1               0.0000
     17 O17        113.1149 277.8553 313.0856 O.2            1 RES1               0.0000
     18 H18        109.9322 282.4051 315.3254 H              1 RES1               0.0000
     19 H19        110.6443 283.1214 313.8686 H              1 RES1               0.0000
     20 H20        111.5763 284.0012 315.5869 H              1 RES1               0.0000
     21 H21        113.9703 280.4728 315.9846 H              1 RES1               0.0000
     22 H22        113.7213 280.0982 312.2541 H              1 RES1               0.0000
     23 H23        111.5717 278.0571 315.0310 H              1 RES1               0.0000
     24 H24        108.5300 281.9526 313.3390 H              1 RES1               0.0000
     25 H25        109.8830 281.1578 312.5374 H              1 RES1               0.0000
     26 H26        109.1751 280.4457 313.9855 H              1 RES1               0.0000
     27 H27        113.0204 285.1517 317.2041 H              1 RES1               0.0000
     28 H28        115.4026 281.6374 317.5973 H              1 RES1               0.0000
     29 H29        114.9371 283.9772 318.2159 H              1 RES1               0.0000
@<TRIPOS>BOND
    1    1    2 1     
    2    1    3 1     
    3    1    4 1     
    4    1    5 1     
    5    2    6 ar    
    6    2    7 ar    
    7    3    8 1     
    8    3    9 2     
    9    4   10 1     
   10    4   11 2     
   11    5   12 1     
   12    5   18 1     
   13    5   19 1     
   14    6   13 ar    
   15    6   20 1     
   16    7   14 ar    
   17    7   21 1     
   18    8   15 1     
   19    8   22 1     
   20   10   15 1     
   21   10   23 1     
   22   12   24 1     
   23   12   25 1     
   24   12   26 1     
   25   13   16 ar    
   26   13   27 1     
   27   14   16 ar    
   28   14   28 1     
   29   15   17 2     
   30   16   29 1     
@<TRIPOS>SUBSTRUCTURE
      1 RES1           1
@<TRIPOS>SET
DONOR_HYDROGENS      STATIC     ATOMS    <user>   **** ""
2 22 23
ATOM$RED        STATIC     ATOMS    COLORGROUP SYSTEM
2 22 23
@<TRIPOS>COMMENT
> <Gold.Version>
2022.3.0

> <Gold.Id.Protein>
unknown|5adg_clean|pdb

> <Gold.Protein.RotatedTorsions>
[ 1394 1385 1383 1380 ] final  -11.69 input   60.03 | X-H torsion
[ 1425 1409 1410 1411 ] final  -66.12 input  129.35 | X-H torsion
[ 1462 1452 1453 1454 ] final -175.07 input  108.99 | X-H torsion
[ 1488 1477 1478 1479 ] final  -88.37 input  100.07 | X-H torsion
[ 1521 1510 1511 1512 ] final -125.30 input  113.76 | X-H torsion
[ 1570 1551 1552 1553 ] final   -1.58 input  123.58 | X-H torsion
[ 1707 1683 1682 1681 ] final -124.22 input   60.00 | X-H torsion
[ 2445 2428 2429 2430 ] final   15.88 input  119.94 | X-H torsion
[ 2478 2467 2468 2469 ] final   19.10 input  117.54 | X-H torsion
[ 2333 2316 2317 2318 ] final  -68.46 input  118.58 | X-H torsion
[ 2366 2351 2352 2353 ] final -171.29 input  116.99 | X-H torsion
[ 2407 2383 2384 2385 ] final   20.02 input  115.65 | X-H torsion
[ 2510 2497 2498 2499 ] final    6.23 input  121.55 | X-H torsion
[ 2572 2558 2559 2560 ] final   -1.48 input  118.05 | X-H torsion
[ 2541 2525 2526 2527 ] final -131.25 input  116.25 | X-H torsion
[ 2611 2587 2588 2589 ] final -151.81 input  123.81 | X-H torsion
[ 2710 2698 2699 2700 ] final  107.24 input  119.89 | X-H torsion
[ 2679 2660 2661 2662 ] final  -27.31 input  116.13 | X-H torsion
[ 2646 2631 2632 2633 ] final -131.63 input  117.28 | X-H torsion
[ 2736 2721 2722 2723 ] final   51.78 input   88.34 | X-H torsion
[ 2782 2776 2777 2778 ] final  -27.58 input -114.77 | X-H torsion
[ 2619 2595 2594 2593 ] final  -21.57 input   60.00 | X-H torsion
[ 1697 1675 1676 1677 ] final  104.65 input  120.12 | X-H torsion
[ 1635 1616 1617 1618 ] final -140.75 input  110.97 | X-H torsion
[ 2757 2749 2750 2751 ] final  -39.38 input   47.81 | X-H torsion
[ 13465 1382 1381 1380 ] final   63.28 input    0.00 | X-H torsion
[ 13470 1412 1411 1410 ] final   78.75 input    0.00 | X-H torsion
[ 13473 1455 1454 1453 ] final  -57.66 input   -0.00 | X-H torsion
[ 13480 1480 1479 1478 ] final -156.09 input   -0.00 | X-H torsion
[ 13484 1554 1553 1552 ] final  172.97 input    0.00 | X-H torsion
[ 13496 2319 2318 2317 ] final -133.59 input   -0.00 | X-H torsion
[ 13499 2431 2430 2429 ] final -153.28 input    0.00 | X-H torsion
[ 13504 2287 2286 2285 ] final -144.84 input   -0.00 | X-H torsion
[ 13508 2354 2353 2352 ] final  -40.78 input    0.00 | X-H torsion
[ 13511 2386 2385 2384 ] final -111.09 input    0.00 | X-H torsion
[ 13513 2470 2469 2468 ] final  -33.75 input   -0.00 | X-H torsion
[ 13521 2528 2527 2526 ] final  177.19 input    0.00 | X-H torsion
[ 13523 2561 2560 2559 ] final  105.47 input   -0.00 | X-H torsion
[ 13527 2663 2662 2661 ] final  106.87 input    0.00 | X-H torsion
[ 13529 2590 2589 2588 ] final  -60.47 input   -0.00 | X-H torsion
[ 13532 2701 2700 2699 ] final  165.94 input    0.00 | X-H torsion
[ 13535 1513 1512 1511 ] final   85.78 input    0.00 | X-H torsion
[ 13537 2634 2633 2632 ] final   37.97 input    0.00 | X-H torsion
[ 13540 2779 2778 2777 ] final   64.69 input    0.00 | X-H torsion

> <Gold.Protein.ActiveResidues>
 THR355  LYS356  ASP357  GLN358  LEU359  PHE360  PRO361  LEU362  ALA363  LYS364 
 ASP368  PHE377  GLY378  HIS382  MET383  GLU384  ARG385  LEU386  GLU387  GLU388 
 VAL389  ASN390  LYS391  GLU392  ILE393  ASP394  THR395  THR396  SER397 

> <Gold.Protein.RotatedAtoms>
  106.4200  274.9081  317.5645 H   0  0  0  0  0  0  0  0  0  0  0  0  # atno 1394 bound_to 1385
  107.0940  274.5927  314.7500 H   0  0  0  0  0  0  0  0  0  0  0  0  # atno 1425 bound_to 1409
  107.7756  277.8275  315.0491 H   0  0  0  0  0  0  0  0  0  0  0  0  # atno 1462 bound_to 1452
  109.1095  276.8518  318.1530 H   0  0  0  0  0  0  0  0  0  0  0  0  # atno 1488 bound_to 1477
  109.8018  273.6259  317.7828 H   0  0  0  0  0  0  0  0  0  0  0  0  # atno 1521 bound_to 1510
  112.5167  274.6564  316.5999 H   0  0  0  0  0  0  0  0  0  0  0  0  # atno 1570 bound_to 1551
  115.0086  274.1182  319.9025 H   0  0  0  0  0  0  0  0  0  0  0  0  # atno 1635 bound_to 1616
  117.6084  274.1458  316.8697 H   0  0  0  0  0  0  0  0  0  0  0  0  # atno 1697 bound_to 1675
  122.8723  279.0466  319.8587 H   0  0  0  0  0  0  0  0  0  0  0  0  # atno 1707 bound_to 1683
  122.1903  277.5597  319.5935 H   0  0  0  0  0  0  0  0  0  0  0  0  # atno 1708 bound_to 1683
  123.4628  278.0663  318.6597 H   0  0  0  0  0  0  0  0  0  0  0  0  # atno 1709 bound_to 1683
  127.1133  276.9612  311.1674 H   0  0  0  0  0  0  0  0  0  0  0  0  # atno 2333 bound_to 2316
  126.9365  279.0700  308.3993 H   0  0  0  0  0  0  0  0  0  0  0  0  # atno 2366 bound_to 2351
  124.7362  276.7981  308.7200 H   0  0  0  0  0  0  0  0  0  0  0  0  # atno 2407 bound_to 2383
  123.0195  276.6264  309.2231 H   0  0  0  0  0  0  0  0  0  0  0  0  # atno 2445 bound_to 2428
  121.5976  277.5769  309.0179 H   0  0  0  0  0  0  0  0  0  0  0  0  # atno 2478 bound_to 2467
  120.1287  277.4719  307.8382 H   0  0  0  0  0  0  0  0  0  0  0  0  # atno 2510 bound_to 2497
  119.1682  274.8508  307.0755 H   0  0  0  0  0  0  0  0  0  0  0  0  # atno 2541 bound_to 2525
  116.9448  276.4985  308.3586 H   0  0  0  0  0  0  0  0  0  0  0  0  # atno 2572 bound_to 2558
  115.9540  279.2948  307.7733 H   0  0  0  0  0  0  0  0  0  0  0  0  # atno 2611 bound_to 2587
  119.7511  280.6790  303.8454 H   0  0  0  0  0  0  0  0  0  0  0  0  # atno 2619 bound_to 2595
  119.9010  281.4682  302.3952 H   0  0  0  0  0  0  0  0  0  0  0  0  # atno 2620 bound_to 2595
  119.8469  282.3339  303.8086 H   0  0  0  0  0  0  0  0  0  0  0  0  # atno 2621 bound_to 2595
  114.8111  276.9399  305.1477 H   0  0  0  0  0  0  0  0  0  0  0  0  # atno 2646 bound_to 2631
  112.6273  275.5637  306.8327 H   0  0  0  0  0  0  0  0  0  0  0  0  # atno 2679 bound_to 2660
  112.0457  277.5289  307.6640 H   0  0  0  0  0  0  0  0  0  0  0  0  # atno 2710 bound_to 2698
  110.5114  276.8156  305.6567 H   0  0  0  0  0  0  0  0  0  0  0  0  # atno 2736 bound_to 2721
  108.3240  275.6838  305.3876 H   0  0  0  0  0  0  0  0  0  0  0  0  # atno 2757 bound_to 2749
  108.8138  273.7622  306.9214 H   0  0  0  0  0  0  0  0  0  0  0  0  # atno 2782 bound_to 2776
  108.3134  273.2585  315.7690 LP  0  0  0  0  0  0  0  0  0  0  0  0  # atno 13465 bound_to 1382
  108.5171  274.8935  316.3032 LP  0  0  0  0  0  0  0  0  0  0  0  0  # atno 13466 bound_to 1382
  105.0735  275.4904  318.2685 LP  0  0  0  0  0  0  0  0  0  0  0  0  # atno 13467 bound_to 1385
  105.9410  276.4321  317.2548 LP  0  0  0  0  0  0  0  0  0  0  0  0  # atno 13468 bound_to 1385
  106.1284  275.7308  313.8374 LP  0  0  0  0  0  0  0  0  0  0  0  0  # atno 13469 bound_to 1409
  110.7223  277.4215  314.4461 LP  0  0  0  0  0  0  0  0  0  0  0  0  # atno 13470 bound_to 1412
  110.6699  276.1158  315.5829 LP  0  0  0  0  0  0  0  0  0  0  0  0  # atno 13471 bound_to 1412
  108.1978  276.2992  315.7941 LP  0  0  0  0  0  0  0  0  0  0  0  0  # atno 13472 bound_to 1452
  111.1197  277.7393  318.1559 LP  0  0  0  0  0  0  0  0  0  0  0  0  # atno 13473 bound_to 1455
  110.2675  277.4600  319.6377 LP  0  0  0  0  0  0  0  0  0  0  0  0  # atno 13474 bound_to 1455
  107.9645  275.6691  317.5655 LP  0  0  0  0  0  0  0  0  0  0  0  0  # atno 13479 bound_to 1477
  112.3355  273.7437  318.4446 LP  0  0  0  0  0  0  0  0  0  0  0  0  # atno 13480 bound_to 1480
  111.4157  273.6734  319.9106 LP  0  0  0  0  0  0  0  0  0  0  0  0  # atno 13481 bound_to 1480
  110.1572  275.0171  316.7846 LP  0  0  0  0  0  0  0  0  0  0  0  0  # atno 13482 bound_to 1510
  112.0898  275.1075  314.9703 LP  0  0  0  0  0  0  0  0  0  0  0  0  # atno 13483 bound_to 1551
  116.8570  275.1205  317.2992 LP  0  0  0  0  0  0  0  0  0  0  0  0  # atno 13484 bound_to 1554
  116.4474  274.6479  315.6840 LP  0  0  0  0  0  0  0  0  0  0  0  0  # atno 13485 bound_to 1554
  123.8172  278.4590  309.1324 LP  0  0  0  0  0  0  0  0  0  0  0  0  # atno 13496 bound_to 2319
  124.2123  279.9624  309.8964 LP  0  0  0  0  0  0  0  0  0  0  0  0  # atno 13497 bound_to 2319
  123.4195  275.5343  310.5288 LP  0  0  0  0  0  0  0  0  0  0  0  0  # atno 13498 bound_to 2428
  118.9984  277.7412  309.4683 LP  0  0  0  0  0  0  0  0  0  0  0  0  # atno 13499 bound_to 2431
  119.2212  277.2283  311.1076 LP  0  0  0  0  0  0  0  0  0  0  0  0  # atno 13500 bound_to 2431
  121.7125  278.9403  310.1069 LP  0  0  0  0  0  0  0  0  0  0  0  0  # atno 13501 bound_to 2467
  125.1987  276.8234  310.5748 LP  0  0  0  0  0  0  0  0  0  0  0  0  # atno 13504 bound_to 2287
  125.5289  275.6451  311.8006 LP  0  0  0  0  0  0  0  0  0  0  0  0  # atno 13505 bound_to 2287
  128.4792  277.9789  310.7704 LP  0  0  0  0  0  0  0  0  0  0  0  0  # atno 13506 bound_to 2316
  126.1536  277.7157  309.1779 LP  0  0  0  0  0  0  0  0  0  0  0  0  # atno 13507 bound_to 2351
  122.8786  278.0117  306.8301 LP  0  0  0  0  0  0  0  0  0  0  0  0  # atno 13508 bound_to 2354
  122.8644  276.3169  306.4730 LP  0  0  0  0  0  0  0  0  0  0  0  0  # atno 13509 bound_to 2354
  125.4345  275.8677  307.4173 LP  0  0  0  0  0  0  0  0  0  0  0  0  # atno 13510 bound_to 2383
  120.8140  275.7610  308.4683 LP  0  0  0  0  0  0  0  0  0  0  0  0  # atno 13511 bound_to 2386
  121.1376  274.1529  309.0244 LP  0  0  0  0  0  0  0  0  0  0  0  0  # atno 13512 bound_to 2386
  118.0105  279.0812  307.7942 LP  0  0  0  0  0  0  0  0  0  0  0  0  # atno 13513 bound_to 2470
  118.2616  278.4711  306.1927 LP  0  0  0  0  0  0  0  0  0  0  0  0  # atno 13514 bound_to 2470
  121.1984  277.9831  306.5520 LP  0  0  0  0  0  0  0  0  0  0  0  0  # atno 13517 bound_to 2497
  117.6419  276.6738  309.9523 LP  0  0  0  0  0  0  0  0  0  0  0  0  # atno 13518 bound_to 2558
  119.1923  276.2125  308.1738 LP  0  0  0  0  0  0  0  0  0  0  0  0  # atno 13519 bound_to 2525
  115.8642  277.5623  307.5449 LP  0  0  0  0  0  0  0  0  0  0  0  0  # atno 13520 bound_to 2587
  114.6852  275.9819  309.1148 LP  0  0  0  0  0  0  0  0  0  0  0  0  # atno 13521 bound_to 2528
  115.1933  274.4112  308.5906 LP  0  0  0  0  0  0  0  0  0  0  0  0  # atno 13522 bound_to 2528
  113.3294  279.1223  308.5554 LP  0  0  0  0  0  0  0  0  0  0  0  0  # atno 13523 bound_to 2561
  113.3318  277.3933  308.6580 LP  0  0  0  0  0  0  0  0  0  0  0  0  # atno 13524 bound_to 2561
  110.6965  276.6626  308.3614 LP  0  0  0  0  0  0  0  0  0  0  0  0  # atno 13525 bound_to 2698
  113.6535  274.9465  308.1032 LP  0  0  0  0  0  0  0  0  0  0  0  0  # atno 13526 bound_to 2660
  108.8149  276.4424  309.0637 LP  0  0  0  0  0  0  0  0  0  0  0  0  # atno 13527 bound_to 2663
  108.9666  275.4332  307.6642 LP  0  0  0  0  0  0  0  0  0  0  0  0  # atno 13528 bound_to 2663
  112.1817  278.1883  305.9929 LP  0  0  0  0  0  0  0  0  0  0  0  0  # atno 13529 bound_to 2590
  112.4967  277.3320  304.5206 LP  0  0  0  0  0  0  0  0  0  0  0  0  # atno 13530 bound_to 2590
  114.7634  276.5668  306.8560 LP  0  0  0  0  0  0  0  0  0  0  0  0  # atno 13531 bound_to 2631
  107.5273  278.3245  305.4586 LP  0  0  0  0  0  0  0  0  0  0  0  0  # atno 13532 bound_to 2701
  107.6178  278.6636  307.1547 LP  0  0  0  0  0  0  0  0  0  0  0  0  # atno 13533 bound_to 2701
  109.6925  278.3591  305.7770 LP  0  0  0  0  0  0  0  0  0  0  0  0  # atno 13534 bound_to 2721
  113.9957  272.5087  315.7221 LP  0  0  0  0  0  0  0  0  0  0  0  0  # atno 13535 bound_to 1513
  113.9699  273.1487  317.3314 LP  0  0  0  0  0  0  0  0  0  0  0  0  # atno 13536 bound_to 1513
  111.5080  273.8595  305.3295 LP  0  0  0  0  0  0  0  0  0  0  0  0  # atno 13537 bound_to 2634
  110.6674  274.9580  306.3720 LP  0  0  0  0  0  0  0  0  0  0  0  0  # atno 13538 bound_to 2634
  107.2101  274.3789  306.5755 LP  0  0  0  0  0  0  0  0  0  0  0  0  # atno 13539 bound_to 2776
  107.0313  271.5554  310.4316 LP  0  0  0  0  0  0  0  0  0  0  0  0  # atno 13540 bound_to 2779
  108.5427  272.0831  311.0927 LP  0  0  0  0  0  0  0  0  0  0  0  0  # atno 13541 bound_to 2779

> <Gold.Score>
     Fitness  S(hb_ext) S(vdw_ext)  S(hb_int)    S(int)      intcor
     10.11       6.60       3.05       0.00      -0.68      -0.76

> <Gold.Goldscore.Fitness>
10.1094

> <Gold.Goldscore.Internal.Vdw>
-1.0074

> <Gold.Goldscore.Internal.Torsion>
-0.4424

> <Gold.Goldscore.External.Vdw>
3.0503

> <Gold.Goldscore.Internal.HBond>
0.0000

> <Gold.Goldscore.External.HBond>
6.6001

> <Gold.Goldscore.Internal.Correction>
-0.7650

> <Gold.Goldscore.Hbonds>
donor molecule, donor type, donor heavy atom, donor atom, acceptor molecule, acceptor atom, score
      L1  H     8    22       P1  2565  1.00
      L1  H    10    23       P1  1412  0.30

> <Gold.Goldscore.Internal.Vdw.Weighted>
-1.0074

> <Gold.Goldscore.Internal.Torsion.Weighted>
-0.4424

> <Gold.Goldscore.External.Vdw.Weighted>
4.1941

> <Gold.Goldscore.Internal.HBond.Weighted>
0.0000

> <Gold.Goldscore.External.HBond.Weighted>
6.6001

> <Gold.Goldscore.Internal.Correction.Weighted>
-0.7650

> <Gold.Rescore>
     Score     S(PLP)   S(hbond)     S(cho)   S(metal)  DE(clash)   DE(tors)     intcor
      1.33       2.25       1.53       0.00       0.00       0.00       0.50       ----

> <Gold.PLP.Fitness>
1.3294

> <Gold.PLP.PLP>
2.2545

> <Gold.PLP.part.hbond>
-1.5936

> <Gold.PLP.part.metal>
0.0000

> <Gold.PLP.part.buried>
12.6993

> <Gold.PLP.part.nonpolar>
-7.8926

> <Gold.PLP.part.repulsive>
0.6225

> <Gold.PLP.ligand.clash>
0.0000

> <Gold.PLP.ligand.torsion>
0.5031

> <Gold.PLP.Chemscore.Hbond>
1.5300

> <Gold.PLP.Chemscore.CHOScore>
0.0000

> <Gold.PLP.Chemscore.Metal>
0.0000

> <Gold.Chemscore.Hbonds>
donor molecule, donor type, donor heavy atom, donor atom, acceptor molecule, acceptor atom, score
      L1  H     8    22       P1  2565  0.65
      L1  H    10    23       P1  1412  0.88

> <Gold.PLP.Chemscore.Internal.Correction>
   9.000000E+99

