#       Name:                CT1002167954
#       Creating user name   hitesit
#       Creation time:       Sun Apr 16 22:53:12 2023


#       File generated by GOLD software.
#

@<TRIPOS>MOLECULE
CT1002167954|ligand_prepared|mol2|1|dock9
    29    30     1
SMALL
NO_CHARGES


@<TRIPOS>ATOM
      1 C1         110.6007 281.9307 312.8500 C.3            1 RES1               0.0000
      2 C2         109.5075 282.2242 311.8023 C.ar           1 RES1               0.0000
      3 C3         110.0761 280.7818 313.7062 C.2            1 RES1               0.0000
      4 C4         111.8643 281.5953 312.0655 C.2            1 RES1               0.0000
      5 C5         110.9168 283.1285 313.7756 C.3            1 RES1               0.0000
      6 C6         109.5168 283.4157 311.0833 C.ar           1 RES1               0.0000
      7 C7         108.4867 281.3138 311.5425 C.ar           1 RES1               0.0000
      8 N8         110.6316 279.5502 313.5200 N.am           1 RES1               0.0000
      9 O9         109.1617 280.9456 314.5045 O.2            1 RES1               0.0000
     10 N10        112.3597 280.3212 312.1602 N.am           1 RES1               0.0000
     11 O11        112.4261 282.4182 311.3531 O.2            1 RES1               0.0000
     12 C12        109.6807 283.8554 314.2814 C.3            1 RES1               0.0000
     13 C13        108.5427 283.6860 310.1366 C.ar           1 RES1               0.0000
     14 C14        107.5133 281.5862 310.5955 C.ar           1 RES1               0.0000
     15 C15        111.7833 279.2750 312.8276 C.2            1 RES1               0.0000
     16 C16        107.5406 282.7714 309.8917 C.ar           1 RES1               0.0000
     17 O17        112.2604 278.1438 312.8215 O.2            1 RES1               0.0000
     18 H18        111.4911 282.7668 314.6374 H              1 RES1               0.0000
     19 H19        111.5463 283.8411 313.2284 H              1 RES1               0.0000
     20 H20        110.2961 284.1485 311.2641 H              1 RES1               0.0000
     21 H21        108.4446 280.3753 312.0848 H              1 RES1               0.0000
     22 H22        110.1457 278.7610 313.9338 H              1 RES1               0.0000
     23 H23        113.2398 280.1355 311.6897 H              1 RES1               0.0000
     24 H24        109.9588 284.6866 314.9260 H              1 RES1               0.0000
     25 H25        109.0988 284.2504 313.4512 H              1 RES1               0.0000
     26 H26        109.0440 283.1825 314.8519 H              1 RES1               0.0000
     27 H27        108.5679 284.6208 309.5864 H              1 RES1               0.0000
     28 H28        106.7262 280.8637 310.4065 H              1 RES1               0.0000
     29 H29        106.7778 282.9832 309.1498 H              1 RES1               0.0000
@<TRIPOS>BOND
    1    1    2 1     
    2    1    3 1     
    3    1    4 1     
    4    1    5 1     
    5    2    6 ar    
    6    2    7 ar    
    7    3    8 1     
    8    3    9 2     
    9    4   10 1     
   10    4   11 2     
   11    5   12 1     
   12    5   18 1     
   13    5   19 1     
   14    6   13 ar    
   15    6   20 1     
   16    7   14 ar    
   17    7   21 1     
   18    8   15 1     
   19    8   22 1     
   20   10   15 1     
   21   10   23 1     
   22   12   24 1     
   23   12   25 1     
   24   12   26 1     
   25   13   16 ar    
   26   13   27 1     
   27   14   16 ar    
   28   14   28 1     
   29   15   17 2     
   30   16   29 1     
@<TRIPOS>SUBSTRUCTURE
      1 RES1           1
@<TRIPOS>SET
DONOR_HYDROGENS      STATIC     ATOMS    <user>   **** ""
2 22 23
ATOM$RED        STATIC     ATOMS    COLORGROUP SYSTEM
2 22 23
@<TRIPOS>COMMENT
> <Gold.Version>
2022.3.0

> <Gold.Id.Protein>
unknown|5adg_clean|pdb

> <Gold.Protein.RotatedTorsions>
[ 1394 1385 1383 1380 ] final -176.19 input   60.03 | X-H torsion
[ 1425 1409 1410 1411 ] final  -98.77 input  129.35 | X-H torsion
[ 1462 1452 1453 1454 ] final  -53.31 input  108.99 | X-H torsion
[ 1488 1477 1478 1479 ] final  -88.90 input  100.07 | X-H torsion
[ 1521 1510 1511 1512 ] final   96.38 input  113.76 | X-H torsion
[ 1570 1551 1552 1553 ] final -130.08 input  123.58 | X-H torsion
[ 1707 1683 1682 1681 ] final  -85.33 input   60.00 | X-H torsion
[ 2445 2428 2429 2430 ] final  133.54 input  119.94 | X-H torsion
[ 2478 2467 2468 2469 ] final  -50.26 input  117.54 | X-H torsion
[ 2333 2316 2317 2318 ] final  133.58 input  118.58 | X-H torsion
[ 2366 2351 2352 2353 ] final  -19.07 input  116.99 | X-H torsion
[ 2407 2383 2384 2385 ] final   70.17 input  115.65 | X-H torsion
[ 2510 2497 2498 2499 ] final  -84.23 input  121.55 | X-H torsion
[ 2572 2558 2559 2560 ] final   27.37 input  118.05 | X-H torsion
[ 2541 2525 2526 2527 ] final  -82.71 input  116.25 | X-H torsion
[ 2611 2587 2588 2589 ] final  -76.53 input  123.81 | X-H torsion
[ 2710 2698 2699 2700 ] final  124.85 input  119.89 | X-H torsion
[ 2679 2660 2661 2662 ] final  -92.65 input  116.13 | X-H torsion
[ 2646 2631 2632 2633 ] final  156.57 input  117.28 | X-H torsion
[ 2736 2721 2722 2723 ] final  145.51 input   88.34 | X-H torsion
[ 2782 2776 2777 2778 ] final  129.44 input -114.77 | X-H torsion
[ 2619 2595 2594 2593 ] final  157.96 input   60.00 | X-H torsion
[ 1697 1675 1676 1677 ] final  -32.16 input  120.12 | X-H torsion
[ 1635 1616 1617 1618 ] final   45.79 input  110.97 | X-H torsion
[ 2757 2749 2750 2751 ] final   83.90 input   47.81 | X-H torsion
[ 13465 1382 1381 1380 ] final  -76.42 input    0.00 | X-H torsion
[ 13470 1412 1411 1410 ] final  113.45 input    0.00 | X-H torsion
[ 13473 1455 1454 1453 ] final  123.20 input   -0.00 | X-H torsion
[ 13480 1480 1479 1478 ] final   57.12 input   -0.00 | X-H torsion
[ 13484 1554 1553 1552 ] final   45.95 input    0.00 | X-H torsion
[ 13496 2319 2318 2317 ] final  -11.74 input   -0.00 | X-H torsion
[ 13499 2431 2430 2429 ] final   83.79 input    0.00 | X-H torsion
[ 13504 2287 2286 2285 ] final  166.93 input   -0.00 | X-H torsion
[ 13508 2354 2353 2352 ] final  -75.07 input    0.00 | X-H torsion
[ 13511 2386 2385 2384 ] final  -34.54 input    0.00 | X-H torsion
[ 13513 2470 2469 2468 ] final   -6.12 input   -0.00 | X-H torsion
[ 13521 2528 2527 2526 ] final   99.76 input    0.00 | X-H torsion
[ 13523 2561 2560 2559 ] final   48.71 input   -0.00 | X-H torsion
[ 13527 2663 2662 2661 ] final  108.00 input    0.00 | X-H torsion
[ 13529 2590 2589 2588 ] final  -92.95 input   -0.00 | X-H torsion
[ 13532 2701 2700 2699 ] final   82.94 input    0.00 | X-H torsion
[ 13535 1513 1512 1511 ] final  167.03 input    0.00 | X-H torsion
[ 13537 2634 2633 2632 ] final  131.88 input    0.00 | X-H torsion
[ 13540 2779 2778 2777 ] final  -40.20 input    0.00 | X-H torsion

> <Gold.Protein.ActiveResidues>
 THR355  LYS356  ASP357  GLN358  LEU359  PHE360  PRO361  LEU362  ALA363  LYS364 
 ASP368  PHE377  GLY378  HIS382  MET383  GLU384  ARG385  LEU386  GLU387  GLU388 
 VAL389  ASN390  LYS391  GLU392  ILE393  ASP394  THR395  THR396  SER397 

> <Gold.Protein.RotatedAtoms>
  105.0936  276.1383  317.9749 H   0  0  0  0  0  0  0  0  0  0  0  0  # atno 1394 bound_to 1385
  107.0462  274.4003  314.2917 H   0  0  0  0  0  0  0  0  0  0  0  0  # atno 1425 bound_to 1409
  108.8013  276.6869  315.3317 H   0  0  0  0  0  0  0  0  0  0  0  0  # atno 1462 bound_to 1452
  109.1042  276.8539  318.1589 H   0  0  0  0  0  0  0  0  0  0  0  0  # atno 1488 bound_to 1477
  109.6817  274.7049  316.5314 H   0  0  0  0  0  0  0  0  0  0  0  0  # atno 1521 bound_to 1510
  112.3702  274.4078  315.0474 H   0  0  0  0  0  0  0  0  0  0  0  0  # atno 1570 bound_to 1551
  114.8940  273.8807  318.1592 H   0  0  0  0  0  0  0  0  0  0  0  0  # atno 1635 bound_to 1616
  118.4826  272.7697  316.6211 H   0  0  0  0  0  0  0  0  0  0  0  0  # atno 1697 bound_to 1675
  122.4045  278.6809  320.0888 H   0  0  0  0  0  0  0  0  0  0  0  0  # atno 1707 bound_to 1683
  122.5487  277.3518  319.1096 H   0  0  0  0  0  0  0  0  0  0  0  0  # atno 1708 bound_to 1683
  123.5725  278.6407  318.9135 H   0  0  0  0  0  0  0  0  0  0  0  0  # atno 1709 bound_to 1683
  128.4708  278.0491  311.0983 H   0  0  0  0  0  0  0  0  0  0  0  0  # atno 2333 bound_to 2316
  125.8905  278.0286  309.2736 H   0  0  0  0  0  0  0  0  0  0  0  0  # atno 2366 bound_to 2351
  125.2935  276.3424  308.9197 H   0  0  0  0  0  0  0  0  0  0  0  0  # atno 2407 bound_to 2383
  123.8195  276.3449  310.4801 H   0  0  0  0  0  0  0  0  0  0  0  0  # atno 2445 bound_to 2428
  120.9478  277.7717  309.7638 H   0  0  0  0  0  0  0  0  0  0  0  0  # atno 2478 bound_to 2467
  120.0833  278.3448  306.9311 H   0  0  0  0  0  0  0  0  0  0  0  0  # atno 2510 bound_to 2497
  118.7205  275.3955  306.8877 H   0  0  0  0  0  0  0  0  0  0  0  0  # atno 2541 bound_to 2525
  117.2536  276.8099  308.3098 H   0  0  0  0  0  0  0  0  0  0  0  0  # atno 2572 bound_to 2558
  115.1828  278.6188  308.1279 H   0  0  0  0  0  0  0  0  0  0  0  0  # atno 2611 bound_to 2587
  119.9158  282.3047  302.8469 H   0  0  0  0  0  0  0  0  0  0  0  0  # atno 2619 bound_to 2595
  119.7654  281.5275  304.3036 H   0  0  0  0  0  0  0  0  0  0  0  0  # atno 2620 bound_to 2595
  119.8179  280.6502  302.8974 H   0  0  0  0  0  0  0  0  0  0  0  0  # atno 2621 bound_to 2595
  115.5246  276.3948  305.6733 H   0  0  0  0  0  0  0  0  0  0  0  0  # atno 2646 bound_to 2631
  112.7596  274.6332  306.9795 H   0  0  0  0  0  0  0  0  0  0  0  0  # atno 2679 bound_to 2660
  112.0549  277.6323  307.9146 H   0  0  0  0  0  0  0  0  0  0  0  0  # atno 2710 bound_to 2698
  110.7341  278.0407  305.2785 H   0  0  0  0  0  0  0  0  0  0  0  0  # atno 2736 bound_to 2721
  109.7610  275.1065  305.1709 H   0  0  0  0  0  0  0  0  0  0  0  0  # atno 2757 bound_to 2749
  107.1361  274.0423  306.5035 H   0  0  0  0  0  0  0  0  0  0  0  0  # atno 2782 bound_to 2776
  108.1779  274.5917  316.6902 LP  0  0  0  0  0  0  0  0  0  0  0  0  # atno 13465 bound_to 1382
  108.6526  273.5604  315.3820 LP  0  0  0  0  0  0  0  0  0  0  0  0  # atno 13466 bound_to 1382
  106.4516  275.9585  317.0968 LP  0  0  0  0  0  0  0  0  0  0  0  0  # atno 13467 bound_to 1385
  105.8989  274.7249  318.0131 LP  0  0  0  0  0  0  0  0  0  0  0  0  # atno 13468 bound_to 1385
  106.1748  275.9173  314.2818 LP  0  0  0  0  0  0  0  0  0  0  0  0  # atno 13469 bound_to 1409
  110.6920  277.6293  314.9180 LP  0  0  0  0  0  0  0  0  0  0  0  0  # atno 13470 bound_to 1412
  110.7001  275.9080  315.1110 LP  0  0  0  0  0  0  0  0  0  0  0  0  # atno 13471 bound_to 1412
  107.2110  277.3965  315.5223 LP  0  0  0  0  0  0  0  0  0  0  0  0  # atno 13472 bound_to 1452
  110.2719  277.4477  319.6378 LP  0  0  0  0  0  0  0  0  0  0  0  0  # atno 13473 bound_to 1455
  111.1154  277.7515  318.1558 LP  0  0  0  0  0  0  0  0  0  0  0  0  # atno 13474 bound_to 1455
  107.9697  275.6670  317.5597 LP  0  0  0  0  0  0  0  0  0  0  0  0  # atno 13479 bound_to 1477
  111.3812  273.2266  319.7004 LP  0  0  0  0  0  0  0  0  0  0  0  0  # atno 13480 bound_to 1480
  112.3700  274.1905  318.6548 LP  0  0  0  0  0  0  0  0  0  0  0  0  # atno 13481 bound_to 1480
  110.2741  273.9674  318.0021 LP  0  0  0  0  0  0  0  0  0  0  0  0  # atno 13482 bound_to 1510
  112.2348  275.3535  316.5064 LP  0  0  0  0  0  0  0  0  0  0  0  0  # atno 13483 bound_to 1551
  116.7522  275.3526  315.7701 LP  0  0  0  0  0  0  0  0  0  0  0  0  # atno 13484 bound_to 1554
  116.5522  274.4157  317.2131 LP  0  0  0  0  0  0  0  0  0  0  0  0  # atno 13485 bound_to 1554
  124.0611  279.2874  310.3758 LP  0  0  0  0  0  0  0  0  0  0  0  0  # atno 13496 bound_to 2319
  123.9685  279.1340  308.6530 LP  0  0  0  0  0  0  0  0  0  0  0  0  # atno 13497 bound_to 2319
  122.6408  275.8084  309.3052 LP  0  0  0  0  0  0  0  0  0  0  0  0  # atno 13498 bound_to 2428
  119.1113  278.0345  310.9571 LP  0  0  0  0  0  0  0  0  0  0  0  0  # atno 13499 bound_to 2431
  119.1083  276.9350  309.6188 LP  0  0  0  0  0  0  0  0  0  0  0  0  # atno 13500 bound_to 2431
  122.3452  278.7507  309.3806 LP  0  0  0  0  0  0  0  0  0  0  0  0  # atno 13501 bound_to 2467
  125.1670  277.0763  311.2350 LP  0  0  0  0  0  0  0  0  0  0  0  0  # atno 13504 bound_to 2287
  125.5605  275.3922  311.1404 LP  0  0  0  0  0  0  0  0  0  0  0  0  # atno 13505 bound_to 2287
  127.1597  276.9214  310.8376 LP  0  0  0  0  0  0  0  0  0  0  0  0  # atno 13506 bound_to 2316
  127.1761  278.7337  308.3232 LP  0  0  0  0  0  0  0  0  0  0  0  0  # atno 13507 bound_to 2351
  122.6657  277.7755  307.2296 LP  0  0  0  0  0  0  0  0  0  0  0  0  # atno 13508 bound_to 2354
  123.0773  276.5531  306.0735 LP  0  0  0  0  0  0  0  0  0  0  0  0  # atno 13509 bound_to 2354
  124.8876  276.3150  307.2213 LP  0  0  0  0  0  0  0  0  0  0  0  0  # atno 13510 bound_to 2383
  121.2036  274.9310  307.9112 LP  0  0  0  0  0  0  0  0  0  0  0  0  # atno 13511 bound_to 2386
  120.7479  274.9829  309.5814 LP  0  0  0  0  0  0  0  0  0  0  0  0  # atno 13512 bound_to 2386
  118.1303  279.4137  307.5795 LP  0  0  0  0  0  0  0  0  0  0  0  0  # atno 13513 bound_to 2470
  118.1418  278.1385  306.4074 LP  0  0  0  0  0  0  0  0  0  0  0  0  # atno 13514 bound_to 2470
  121.2426  277.1349  307.4334 LP  0  0  0  0  0  0  0  0  0  0  0  0  # atno 13517 bound_to 2497
  117.3412  276.3706  309.9998 LP  0  0  0  0  0  0  0  0  0  0  0  0  # atno 13518 bound_to 2558
  119.6270  275.6834  308.3562 LP  0  0  0  0  0  0  0  0  0  0  0  0  # atno 13519 bound_to 2525
  116.6119  278.2178  307.2012 LP  0  0  0  0  0  0  0  0  0  0  0  0  # atno 13520 bound_to 2587
  114.9114  275.1080  309.7137 LP  0  0  0  0  0  0  0  0  0  0  0  0  # atno 13521 bound_to 2528
  114.9672  275.2852  307.9916 LP  0  0  0  0  0  0  0  0  0  0  0  0  # atno 13522 bound_to 2528
  113.4164  278.7744  309.2964 LP  0  0  0  0  0  0  0  0  0  0  0  0  # atno 13523 bound_to 2561
  113.2447  277.7412  307.9169 LP  0  0  0  0  0  0  0  0  0  0  0  0  # atno 13524 bound_to 2561
  110.6875  276.5618  308.1172 LP  0  0  0  0  0  0  0  0  0  0  0  0  # atno 13525 bound_to 2698
  113.5237  275.8598  307.9591 LP  0  0  0  0  0  0  0  0  0  0  0  0  # atno 13526 bound_to 2660
  108.8117  276.4556  309.0536 LP  0  0  0  0  0  0  0  0  0  0  0  0  # atno 13527 bound_to 2663
  108.9698  275.4200  307.6743 LP  0  0  0  0  0  0  0  0  0  0  0  0  # atno 13528 bound_to 2663
  112.0875  277.7221  306.0846 LP  0  0  0  0  0  0  0  0  0  0  0  0  # atno 13529 bound_to 2590
  112.5909  277.7983  304.4290 LP  0  0  0  0  0  0  0  0  0  0  0  0  # atno 13530 bound_to 2590
  114.0701  277.0965  306.3454 LP  0  0  0  0  0  0  0  0  0  0  0  0  # atno 13531 bound_to 2631
  107.7369  279.2978  306.0294 LP  0  0  0  0  0  0  0  0  0  0  0  0  # atno 13532 bound_to 2701
  107.4082  277.6902  306.5840 LP  0  0  0  0  0  0  0  0  0  0  0  0  # atno 13533 bound_to 2701
  109.4778  277.1780  306.1416 LP  0  0  0  0  0  0  0  0  0  0  0  0  # atno 13534 bound_to 2721
  114.5142  273.4078  316.1632 LP  0  0  0  0  0  0  0  0  0  0  0  0  # atno 13535 bound_to 1513
  113.4513  272.2496  316.8903 LP  0  0  0  0  0  0  0  0  0  0  0  0  # atno 13536 bound_to 1513
  111.0120  273.8337  306.4938 LP  0  0  0  0  0  0  0  0  0  0  0  0  # atno 13537 bound_to 2634
  111.1633  274.9838  305.2076 LP  0  0  0  0  0  0  0  0  0  0  0  0  # atno 13538 bound_to 2634
  108.8222  274.1098  306.9771 LP  0  0  0  0  0  0  0  0  0  0  0  0  # atno 13539 bound_to 2776
  107.6362  272.6225  311.0487 LP  0  0  0  0  0  0  0  0  0  0  0  0  # atno 13540 bound_to 2779
  107.9378  271.0160  310.4757 LP  0  0  0  0  0  0  0  0  0  0  0  0  # atno 13541 bound_to 2779

> <Gold.Score>
     Fitness  S(hb_ext) S(vdw_ext)  S(hb_int)    S(int)      intcor
     21.24       6.64      12.81       0.00      -3.01      -0.76

> <Gold.Goldscore.Fitness>
21.2445

> <Gold.Goldscore.Internal.Vdw>
-3.0016

> <Gold.Goldscore.Internal.Torsion>
-0.7734

> <Gold.Goldscore.External.Vdw>
12.8107

> <Gold.Goldscore.Internal.HBond>
0.0000

> <Gold.Goldscore.External.HBond>
6.6397

> <Gold.Goldscore.Internal.Correction>
-0.7650

> <Gold.Goldscore.Hbonds>
donor molecule, donor type, donor heavy atom, donor atom, acceptor molecule, acceptor atom, score
      L1  H     8    22       P1  1412  0.34
      L1  H    10    23       P1  2565  0.99

> <Gold.Goldscore.Internal.Vdw.Weighted>
-3.0016

> <Gold.Goldscore.Internal.Torsion.Weighted>
-0.7734

> <Gold.Goldscore.External.Vdw.Weighted>
17.6147

> <Gold.Goldscore.Internal.HBond.Weighted>
0.0000

> <Gold.Goldscore.External.HBond.Weighted>
6.6397

> <Gold.Goldscore.Internal.Correction.Weighted>
-0.7650

> <Gold.Rescore>
     Score     S(PLP)   S(hbond)     S(cho)   S(metal)  DE(clash)   DE(tors)     intcor
     11.72     -10.45       1.00       0.00       0.00       0.70       0.52       ----

> <Gold.PLP.Fitness>
11.7169

> <Gold.PLP.PLP>
-10.4527

> <Gold.PLP.part.hbond>
-1.9098

> <Gold.PLP.part.metal>
0.0000

> <Gold.PLP.part.buried>
-4.3262

> <Gold.PLP.part.nonpolar>
-7.2051

> <Gold.PLP.part.repulsive>
1.9694

> <Gold.PLP.ligand.clash>
0.7009

> <Gold.PLP.ligand.torsion>
0.5175

> <Gold.PLP.Chemscore.Hbond>
1.0000

> <Gold.PLP.Chemscore.CHOScore>
0.0000

> <Gold.PLP.Chemscore.Metal>
0.0000

> <Gold.Chemscore.Hbonds>
donor molecule, donor type, donor heavy atom, donor atom, acceptor molecule, acceptor atom, score
      L1  H     8    22       P1  1412  0.24
      L1  H    10    23       P1  2565  0.94

> <Gold.PLP.Chemscore.Internal.Correction>
   9.000000E+99

