#       Name:                CT1002167954
#       Creating user name   hitesit
#       Creation time:       Sun Apr 16 22:53:10 2023


#       File generated by GOLD software.
#

@<TRIPOS>MOLECULE
CT1002167954|ligand_prepared|mol2|1|dock7
    29    30     1
SMALL
NO_CHARGES


@<TRIPOS>ATOM
      1 C1         110.7457 282.3347 312.9855 C.3            1 RES1               0.0000
      2 C2         109.7028 282.6934 311.9074 C.ar           1 RES1               0.0000
      3 C3         110.0796 281.3133 313.9028 C.2            1 RES1               0.0000
      4 C4         111.9635 281.8002 312.2399 C.2            1 RES1               0.0000
      5 C5         111.2002 283.5402 313.8408 C.3            1 RES1               0.0000
      6 C6         109.1072 281.6980 311.1385 C.ar           1 RES1               0.0000
      7 C7         109.3248 284.0127 311.6724 C.ar           1 RES1               0.0000
      8 N8         110.4816 280.0142 313.7993 N.am           1 RES1               0.0000
      9 O9         109.1873 281.6362 314.6773 O.2            1 RES1               0.0000
     10 N10        112.2990 280.4837 312.4185 N.am           1 RES1               0.0000
     11 O11        112.6258 282.5030 311.4864 O.2            1 RES1               0.0000
     12 C12        112.1802 283.1743 314.9444 C.3            1 RES1               0.0000
     13 C13        108.1657 282.0098 310.1717 C.ar           1 RES1               0.0000
     14 C14        108.3832 284.3223 310.7049 C.ar           1 RES1               0.0000
     15 C15        111.5951 279.5586 313.1405 C.2            1 RES1               0.0000
     16 C16        107.8027 283.3219 309.9546 C.ar           1 RES1               0.0000
     17 O17        111.9305 278.3797 313.2095 O.2            1 RES1               0.0000
     18 H18        111.6697 284.2825 313.1835 H              1 RES1               0.0000
     19 H19        110.3159 284.0052 314.2939 H              1 RES1               0.0000
     20 H20        109.3821 280.6600 311.2935 H              1 RES1               0.0000
     21 H21        109.7690 284.8163 312.2499 H              1 RES1               0.0000
     22 H22        109.9005 279.3170 314.2538 H              1 RES1               0.0000
     23 H23        113.1525 280.1636 311.9721 H              1 RES1               0.0000
     24 H24        112.4667 284.0559 315.5138 H              1 RES1               0.0000
     25 H25        111.7371 282.4564 315.6314 H              1 RES1               0.0000
     26 H26        113.0828 282.7320 314.5276 H              1 RES1               0.0000
     27 H27        107.7128 281.2189 309.5830 H              1 RES1               0.0000
     28 H28        108.1010 285.3565 310.5369 H              1 RES1               0.0000
     29 H29        107.0649 283.5659 309.1974 H              1 RES1               0.0000
@<TRIPOS>BOND
    1    1    2 1     
    2    1    3 1     
    3    1    4 1     
    4    1    5 1     
    5    2    6 ar    
    6    2    7 ar    
    7    3    8 1     
    8    3    9 2     
    9    4   10 1     
   10    4   11 2     
   11    5   12 1     
   12    5   18 1     
   13    5   19 1     
   14    6   13 ar    
   15    6   20 1     
   16    7   14 ar    
   17    7   21 1     
   18    8   15 1     
   19    8   22 1     
   20   10   15 1     
   21   10   23 1     
   22   12   24 1     
   23   12   25 1     
   24   12   26 1     
   25   13   16 ar    
   26   13   27 1     
   27   14   16 ar    
   28   14   28 1     
   29   15   17 2     
   30   16   29 1     
@<TRIPOS>SUBSTRUCTURE
      1 RES1           1
@<TRIPOS>SET
DONOR_HYDROGENS      STATIC     ATOMS    <user>   **** ""
2 22 23
ATOM$RED        STATIC     ATOMS    COLORGROUP SYSTEM
2 22 23
@<TRIPOS>COMMENT
> <Gold.Version>
2022.3.0

> <Gold.Id.Protein>
unknown|5adg_clean|pdb

> <Gold.Protein.RotatedTorsions>
[ 1394 1385 1383 1380 ] final  131.61 input   60.03 | X-H torsion
[ 1425 1409 1410 1411 ] final  -76.57 input  129.35 | X-H torsion
[ 1462 1452 1453 1454 ] final   72.92 input  108.99 | X-H torsion
[ 1488 1477 1478 1479 ] final -124.46 input  100.07 | X-H torsion
[ 1521 1510 1511 1512 ] final    6.00 input  113.76 | X-H torsion
[ 1570 1551 1552 1553 ] final  -25.99 input  123.58 | X-H torsion
[ 1707 1683 1682 1681 ] final  -72.53 input   60.00 | X-H torsion
[ 2445 2428 2429 2430 ] final  -94.96 input  119.94 | X-H torsion
[ 2478 2467 2468 2469 ] final -172.77 input  117.54 | X-H torsion
[ 2333 2316 2317 2318 ] final  -17.76 input  118.58 | X-H torsion
[ 2366 2351 2352 2353 ] final  156.39 input  116.99 | X-H torsion
[ 2407 2383 2384 2385 ] final  -14.79 input  115.65 | X-H torsion
[ 2510 2497 2498 2499 ] final  138.49 input  121.55 | X-H torsion
[ 2572 2558 2559 2560 ] final   25.61 input  118.05 | X-H torsion
[ 2541 2525 2526 2527 ] final  -64.39 input  116.25 | X-H torsion
[ 2611 2587 2588 2589 ] final -156.89 input  123.81 | X-H torsion
[ 2710 2698 2699 2700 ] final  179.69 input  119.89 | X-H torsion
[ 2679 2660 2661 2662 ] final  -12.26 input  116.13 | X-H torsion
[ 2646 2631 2632 2633 ] final   97.39 input  117.28 | X-H torsion
[ 2736 2721 2722 2723 ] final  152.68 input   88.34 | X-H torsion
[ 2782 2776 2777 2778 ] final -126.26 input -114.77 | X-H torsion
[ 2619 2595 2594 2593 ] final -162.60 input   60.00 | X-H torsion
[ 1697 1675 1676 1677 ] final   -4.11 input  120.12 | X-H torsion
[ 1635 1616 1617 1618 ] final  165.48 input  110.97 | X-H torsion
[ 2757 2749 2750 2751 ] final  -23.33 input   47.81 | X-H torsion
[ 13465 1382 1381 1380 ] final   84.88 input    0.00 | X-H torsion
[ 13470 1412 1411 1410 ] final  -12.41 input    0.00 | X-H torsion
[ 13473 1455 1454 1453 ] final  -79.08 input   -0.00 | X-H torsion
[ 13480 1480 1479 1478 ] final  166.54 input   -0.00 | X-H torsion
[ 13484 1554 1553 1552 ] final  138.82 input    0.00 | X-H torsion
[ 13496 2319 2318 2317 ] final    9.84 input   -0.00 | X-H torsion
[ 13499 2431 2430 2429 ] final   97.34 input    0.00 | X-H torsion
[ 13504 2287 2286 2285 ] final -112.13 input   -0.00 | X-H torsion
[ 13508 2354 2353 2352 ] final -140.07 input    0.00 | X-H torsion
[ 13511 2386 2385 2384 ] final  -41.74 input    0.00 | X-H torsion
[ 13513 2470 2469 2468 ] final  -75.23 input   -0.00 | X-H torsion
[ 13521 2528 2527 2526 ] final  179.14 input    0.00 | X-H torsion
[ 13523 2561 2560 2559 ] final   20.19 input   -0.00 | X-H torsion
[ 13527 2663 2662 2661 ] final -116.17 input    0.00 | X-H torsion
[ 13529 2590 2589 2588 ] final   22.17 input   -0.00 | X-H torsion
[ 13532 2701 2700 2699 ] final -146.67 input    0.00 | X-H torsion
[ 13535 1513 1512 1511 ] final  -94.12 input    0.00 | X-H torsion
[ 13537 2634 2633 2632 ] final  -68.86 input    0.00 | X-H torsion
[ 13540 2779 2778 2777 ] final  -33.59 input    0.00 | X-H torsion

> <Gold.Protein.ActiveResidues>
 THR355  LYS356  ASP357  GLN358  LEU359  PHE360  PRO361  LEU362  ALA363  LYS364 
 ASP368  PHE377  GLY378  HIS382  MET383  GLU384  ARG385  LEU386  GLU387  GLU388 
 VAL389  ASN390  LYS391  GLU392  ILE393  ASP394  THR395  THR396  SER397 

> <Gold.Protein.RotatedAtoms>
  105.6220  276.4918  317.4514 H   0  0  0  0  0  0  0  0  0  0  0  0  # atno 1394 bound_to 1385
  107.0956  274.5067  314.6130 H   0  0  0  0  0  0  0  0  0  0  0  0  # atno 1425 bound_to 1409
  107.3270  276.7274  315.9322 H   0  0  0  0  0  0  0  0  0  0  0  0  # atno 1462 bound_to 1452
  108.6647  276.8731  318.4720 H   0  0  0  0  0  0  0  0  0  0  0  0  # atno 1488 bound_to 1477
  110.6057  274.9570  317.3464 H   0  0  0  0  0  0  0  0  0  0  0  0  # atno 1521 bound_to 1510
  112.6092  274.3532  316.4078 H   0  0  0  0  0  0  0  0  0  0  0  0  # atno 1570 bound_to 1551
  114.3168  273.8933  319.5729 H   0  0  0  0  0  0  0  0  0  0  0  0  # atno 1635 bound_to 1616
  118.3245  272.9011  316.9986 H   0  0  0  0  0  0  0  0  0  0  0  0  # atno 1697 bound_to 1675
  122.2845  278.5049  320.0961 H   0  0  0  0  0  0  0  0  0  0  0  0  # atno 1707 bound_to 1683
  122.7054  277.3684  318.9658 H   0  0  0  0  0  0  0  0  0  0  0  0  # atno 1708 bound_to 1683
  123.5359  278.8005  319.0501 H   0  0  0  0  0  0  0  0  0  0  0  0  # atno 1709 bound_to 1683
  127.3018  276.9801  310.4321 H   0  0  0  0  0  0  0  0  0  0  0  0  # atno 2333 bound_to 2316
  127.2162  278.6769  308.3040 H   0  0  0  0  0  0  0  0  0  0  0  0  # atno 2366 bound_to 2351
  124.4794  276.9279  308.2781 H   0  0  0  0  0  0  0  0  0  0  0  0  # atno 2407 bound_to 2383
  122.7519  275.3244  309.8248 H   0  0  0  0  0  0  0  0  0  0  0  0  # atno 2445 bound_to 2428
  121.8579  279.0050  310.0176 H   0  0  0  0  0  0  0  0  0  0  0  0  # atno 2478 bound_to 2467
  121.4676  277.4423  306.9220 H   0  0  0  0  0  0  0  0  0  0  0  0  # atno 2510 bound_to 2497
  118.6203  275.6515  306.9529 H   0  0  0  0  0  0  0  0  0  0  0  0  # atno 2541 bound_to 2525
  117.2336  276.7917  308.3066 H   0  0  0  0  0  0  0  0  0  0  0  0  # atno 2572 bound_to 2558
  116.0209  279.2933  307.7320 H   0  0  0  0  0  0  0  0  0  0  0  0  # atno 2611 bound_to 2587
  119.8777  282.4418  303.4772 H   0  0  0  0  0  0  0  0  0  0  0  0  # atno 2619 bound_to 2595
  119.7451  280.9132  304.1052 H   0  0  0  0  0  0  0  0  0  0  0  0  # atno 2620 bound_to 2595
  119.8763  281.1277  302.4661 H   0  0  0  0  0  0  0  0  0  0  0  0  # atno 2621 bound_to 2595
  115.3475  276.2903  306.5250 H   0  0  0  0  0  0  0  0  0  0  0  0  # atno 2646 bound_to 2631
  112.6936  275.7670  306.9195 H   0  0  0  0  0  0  0  0  0  0  0  0  # atno 2679 bound_to 2660
  111.6972  277.6147  308.6472 H   0  0  0  0  0  0  0  0  0  0  0  0  # atno 2710 bound_to 2698
  110.6710  278.1316  305.2915 H   0  0  0  0  0  0  0  0  0  0  0  0  # atno 2736 bound_to 2721
  108.4836  275.6160  305.5650 H   0  0  0  0  0  0  0  0  0  0  0  0  # atno 2757 bound_to 2749
  108.1180  274.9229  307.0058 H   0  0  0  0  0  0  0  0  0  0  0  0  # atno 2782 bound_to 2776
  108.4999  273.3774  315.5314 LP  0  0  0  0  0  0  0  0  0  0  0  0  # atno 13465 bound_to 1382
  108.3306  274.7747  316.5408 LP  0  0  0  0  0  0  0  0  0  0  0  0  # atno 13466 bound_to 1382
  106.5738  275.1763  317.3445 LP  0  0  0  0  0  0  0  0  0  0  0  0  # atno 13467 bound_to 1385
  105.2445  275.1511  318.2927 LP  0  0  0  0  0  0  0  0  0  0  0  0  # atno 13468 bound_to 1385
  106.1269  275.8141  313.9703 LP  0  0  0  0  0  0  0  0  0  0  0  0  # atno 13469 bound_to 1409
  110.7405  276.1867  314.3747 LP  0  0  0  0  0  0  0  0  0  0  0  0  # atno 13470 bound_to 1412
  110.6517  277.3506  315.6543 LP  0  0  0  0  0  0  0  0  0  0  0  0  # atno 13471 bound_to 1412
  108.6293  277.3575  314.9445 LP  0  0  0  0  0  0  0  0  0  0  0  0  # atno 13472 bound_to 1452
  111.1949  277.4312  318.2110 LP  0  0  0  0  0  0  0  0  0  0  0  0  # atno 13473 bound_to 1455
  110.1923  277.7681  319.5826 LP  0  0  0  0  0  0  0  0  0  0  0  0  # atno 13474 bound_to 1455
  108.3991  275.6482  317.2538 LP  0  0  0  0  0  0  0  0  0  0  0  0  # atno 13479 bound_to 1477
  112.1197  273.2351  318.4948 LP  0  0  0  0  0  0  0  0  0  0  0  0  # atno 13480 bound_to 1480
  111.6316  274.1821  319.8604 LP  0  0  0  0  0  0  0  0  0  0  0  0  # atno 13481 bound_to 1480
  109.3751  273.7222  317.2092 LP  0  0  0  0  0  0  0  0  0  0  0  0  # atno 13482 bound_to 1510
  111.9983  275.4076  315.1603 LP  0  0  0  0  0  0  0  0  0  0  0  0  # atno 13483 bound_to 1551
  116.9787  275.5091  316.9946 LP  0  0  0  0  0  0  0  0  0  0  0  0  # atno 13484 bound_to 1554
  116.3257  274.2593  315.9887 LP  0  0  0  0  0  0  0  0  0  0  0  0  # atno 13485 bound_to 1554
  124.1328  279.5900  310.2840 LP  0  0  0  0  0  0  0  0  0  0  0  0  # atno 13496 bound_to 2319
  123.8968  278.8314  308.7449 LP  0  0  0  0  0  0  0  0  0  0  0  0  # atno 13497 bound_to 2319
  123.6800  276.8017  309.9431 LP  0  0  0  0  0  0  0  0  0  0  0  0  # atno 13498 bound_to 2428
  119.0804  278.1742  310.8112 LP  0  0  0  0  0  0  0  0  0  0  0  0  # atno 13499 bound_to 2431
  119.1392  276.7953  309.7647 LP  0  0  0  0  0  0  0  0  0  0  0  0  # atno 13500 bound_to 2431
  121.4591  277.5499  309.1335 LP  0  0  0  0  0  0  0  0  0  0  0  0  # atno 13501 bound_to 2467
  125.2877  276.4042  310.3419 LP  0  0  0  0  0  0  0  0  0  0  0  0  # atno 13504 bound_to 2287
  125.4399  276.0643  312.0335 LP  0  0  0  0  0  0  0  0  0  0  0  0  # atno 13505 bound_to 2287
  128.2960  277.9605  311.4851 LP  0  0  0  0  0  0  0  0  0  0  0  0  # atno 13506 bound_to 2316
  125.8803  278.1000  309.2711 LP  0  0  0  0  0  0  0  0  0  0  0  0  # atno 13507 bound_to 2351
  122.4997  276.8717  307.3769 LP  0  0  0  0  0  0  0  0  0  0  0  0  # atno 13508 bound_to 2354
  123.2433  277.4568  305.9262 LP  0  0  0  0  0  0  0  0  0  0  0  0  # atno 13509 bound_to 2354
  125.6866  275.7403  307.8510 LP  0  0  0  0  0  0  0  0  0  0  0  0  # atno 13510 bound_to 2383
  121.1741  275.0355  307.9070 LP  0  0  0  0  0  0  0  0  0  0  0  0  # atno 13511 bound_to 2386
  120.7774  274.8784  309.5856 LP  0  0  0  0  0  0  0  0  0  0  0  0  # atno 13512 bound_to 2386
  117.8913  278.4800  307.7696 LP  0  0  0  0  0  0  0  0  0  0  0  0  # atno 13513 bound_to 2470
  118.3807  279.0723  306.2173 LP  0  0  0  0  0  0  0  0  0  0  0  0  # atno 13514 bound_to 2470
  119.8975  278.0118  307.4422 LP  0  0  0  0  0  0  0  0  0  0  0  0  # atno 13517 bound_to 2497
  117.3607  276.3883  310.0029 LP  0  0  0  0  0  0  0  0  0  0  0  0  # atno 13518 bound_to 2558
  119.7243  275.4348  308.2928 LP  0  0  0  0  0  0  0  0  0  0  0  0  # atno 13519 bound_to 2525
  115.7992  277.5638  307.5850 LP  0  0  0  0  0  0  0  0  0  0  0  0  # atno 13520 bound_to 2587
  114.6844  275.9906  309.0865 LP  0  0  0  0  0  0  0  0  0  0  0  0  # atno 13521 bound_to 2528
  115.1941  274.4026  308.6188 LP  0  0  0  0  0  0  0  0  0  0  0  0  # atno 13522 bound_to 2528
  113.4336  278.3799  309.4578 LP  0  0  0  0  0  0  0  0  0  0  0  0  # atno 13523 bound_to 2561
  113.2276  278.1358  307.7555 LP  0  0  0  0  0  0  0  0  0  0  0  0  # atno 13524 bound_to 2561
  111.0361  276.5790  307.4032 LP  0  0  0  0  0  0  0  0  0  0  0  0  # atno 13525 bound_to 2698
  113.5885  274.7469  308.0180 LP  0  0  0  0  0  0  0  0  0  0  0  0  # atno 13526 bound_to 2660
  108.8358  276.0343  307.5050 LP  0  0  0  0  0  0  0  0  0  0  0  0  # atno 13527 bound_to 2663
  108.9457  275.8413  309.2228 LP  0  0  0  0  0  0  0  0  0  0  0  0  # atno 13528 bound_to 2663
  112.5385  278.5524  304.9692 LP  0  0  0  0  0  0  0  0  0  0  0  0  # atno 13529 bound_to 2590
  112.1399  276.9680  305.5444 LP  0  0  0  0  0  0  0  0  0  0  0  0  # atno 13530 bound_to 2590
  114.2423  277.1979  305.5178 LP  0  0  0  0  0  0  0  0  0  0  0  0  # atno 13531 bound_to 2631
  107.4160  277.7679  305.8615 LP  0  0  0  0  0  0  0  0  0  0  0  0  # atno 13532 bound_to 2701
  107.7291  279.2202  306.7518 LP  0  0  0  0  0  0  0  0  0  0  0  0  # atno 13533 bound_to 2701
  109.5387  277.0904  306.1290 LP  0  0  0  0  0  0  0  0  0  0  0  0  # atno 13534 bound_to 2721
  113.9690  273.1477  317.3318 LP  0  0  0  0  0  0  0  0  0  0  0  0  # atno 13535 bound_to 1513
  113.9966  272.5098  315.7217 LP  0  0  0  0  0  0  0  0  0  0  0  0  # atno 13536 bound_to 1513
  111.0110  275.1555  305.4188 LP  0  0  0  0  0  0  0  0  0  0  0  0  # atno 13537 bound_to 2634
  111.1643  273.6620  306.2826 LP  0  0  0  0  0  0  0  0  0  0  0  0  # atno 13538 bound_to 2634
  107.8788  273.2637  306.4945 LP  0  0  0  0  0  0  0  0  0  0  0  0  # atno 13539 bound_to 2776
  107.5426  272.6103  311.0162 LP  0  0  0  0  0  0  0  0  0  0  0  0  # atno 13540 bound_to 2779
  108.0313  271.0282  310.5082 LP  0  0  0  0  0  0  0  0  0  0  0  0  # atno 13541 bound_to 2779

> <Gold.Score>
     Fitness  S(hb_ext) S(vdw_ext)  S(hb_int)    S(int)      intcor
     21.06       6.74      10.46       0.00      -0.05      -0.78

> <Gold.Goldscore.Fitness>
21.0640

> <Gold.Goldscore.Internal.Vdw>
-0.4505

> <Gold.Goldscore.Internal.Torsion>
-0.3792

> <Gold.Goldscore.External.Vdw>
10.4584

> <Gold.Goldscore.Internal.HBond>
0.0000

> <Gold.Goldscore.External.HBond>
6.7381

> <Gold.Goldscore.Internal.Correction>
-0.7752

> <Gold.Goldscore.Hbonds>
donor molecule, donor type, donor heavy atom, donor atom, acceptor molecule, acceptor atom, score
      L1  H     8    22       P1  1452  0.15
      L1  H    10    23       P1  2565  0.97

> <Gold.Goldscore.Internal.Vdw.Weighted>
-0.4505

> <Gold.Goldscore.Internal.Torsion.Weighted>
-0.3792

> <Gold.Goldscore.External.Vdw.Weighted>
14.3804

> <Gold.Goldscore.Internal.HBond.Weighted>
0.0000

> <Gold.Goldscore.External.HBond.Weighted>
6.7381

> <Gold.Goldscore.Internal.Correction.Weighted>
-0.7752

> <Gold.Rescore>
     Score     S(PLP)   S(hbond)     S(cho)   S(metal)  DE(clash)   DE(tors)     intcor
     11.78      -9.39       0.93       0.00       0.00       0.00       0.20       ----

> <Gold.PLP.Fitness>
11.7755

> <Gold.PLP.PLP>
-9.3868

> <Gold.PLP.part.hbond>
-1.9194

> <Gold.PLP.part.metal>
0.0000

> <Gold.PLP.part.buried>
-3.8062

> <Gold.PLP.part.nonpolar>
-5.0546

> <Gold.PLP.part.repulsive>
0.7417

> <Gold.PLP.ligand.clash>
0.0000

> <Gold.PLP.ligand.torsion>
0.1976

> <Gold.PLP.Chemscore.Hbond>
0.9280

> <Gold.PLP.Chemscore.CHOScore>
0.0000

> <Gold.PLP.Chemscore.Metal>
0.0000

> <Gold.Chemscore.Hbonds>
donor molecule, donor type, donor heavy atom, donor atom, acceptor molecule, acceptor atom, score
      L1  H    10    23       P1  2565  1.00

> <Gold.PLP.Chemscore.Internal.Correction>
   9.000000E+99

