#       Name:                CT1002167954
#       Creating user name   hitesit
#       Creation time:       Sun Apr 16 22:53:06 2023


#       File generated by GOLD software.
#

@<TRIPOS>MOLECULE
CT1002167954|ligand_prepared|mol2|1|dock1
    29    30     1
SMALL
NO_CHARGES


@<TRIPOS>ATOM
      1 C1         112.0912 281.7531 313.0103 C.3            1 RES1               0.0000
      2 C2         113.4346 282.0808 313.6934 C.ar           1 RES1               0.0000
      3 C3         112.4372 281.0886 311.6810 C.2            1 RES1               0.0000
      4 C4         111.3298 280.8524 313.9765 C.2            1 RES1               0.0000
      5 C5         111.2158 282.9957 312.7251 C.3            1 RES1               0.0000
      6 C6         114.4689 281.1497 313.7057 C.ar           1 RES1               0.0000
      7 C7         113.6551 283.3086 314.3118 C.ar           1 RES1               0.0000
      8 N8         112.2420 279.7428 311.5777 N.am           1 RES1               0.0000
      9 O9         112.9113 281.7290 310.7508 O.2            1 RES1               0.0000
     10 N10        111.0851 279.5600 313.5921 N.am           1 RES1               0.0000
     11 O11        110.9542 281.2452 315.0742 O.2            1 RES1               0.0000
     12 C12        110.0145 282.7089 311.8382 C.3            1 RES1               0.0000
     13 C13        115.6808 281.4367 314.3118 C.ar           1 RES1               0.0000
     14 C14        114.8677 283.5935 314.9176 C.ar           1 RES1               0.0000
     15 C15        111.5335 278.9556 312.4494 C.2            1 RES1               0.0000
     16 C16        115.8812 282.6588 314.9177 C.ar           1 RES1               0.0000
     17 O17        111.3185 277.7731 312.1991 O.2            1 RES1               0.0000
     18 H18        110.8608 283.4041 313.6793 H              1 RES1               0.0000
     19 H19        111.8360 283.7613 312.2427 H              1 RES1               0.0000
     20 H20        114.3288 280.1818 313.2361 H              1 RES1               0.0000
     21 H21        112.8717 284.0587 314.3250 H              1 RES1               0.0000
     22 H22        112.6618 279.2788 310.7785 H              1 RES1               0.0000
     23 H23        110.5158 278.9965 314.2155 H              1 RES1               0.0000
     24 H24        109.4346 283.6139 311.6696 H              1 RES1               0.0000
     25 H25        110.3319 282.3248 310.8710 H              1 RES1               0.0000
     26 H26        109.3625 281.9697 312.2991 H              1 RES1               0.0000
     27 H27        116.4747 280.6972 314.3103 H              1 RES1               0.0000
     28 H28        115.0208 284.5563 315.3937 H              1 RES1               0.0000
     29 H29        116.8307 282.8835 315.3920 H              1 RES1               0.0000
@<TRIPOS>BOND
    1    1    2 1     
    2    1    3 1     
    3    1    4 1     
    4    1    5 1     
    5    2    6 ar    
    6    2    7 ar    
    7    3    8 1     
    8    3    9 2     
    9    4   10 1     
   10    4   11 2     
   11    5   12 1     
   12    5   18 1     
   13    5   19 1     
   14    6   13 ar    
   15    6   20 1     
   16    7   14 ar    
   17    7   21 1     
   18    8   15 1     
   19    8   22 1     
   20   10   15 1     
   21   10   23 1     
   22   12   24 1     
   23   12   25 1     
   24   12   26 1     
   25   13   16 ar    
   26   13   27 1     
   27   14   16 ar    
   28   14   28 1     
   29   15   17 2     
   30   16   29 1     
@<TRIPOS>SUBSTRUCTURE
      1 RES1           1
@<TRIPOS>SET
DONOR_HYDROGENS      STATIC     ATOMS    <user>   **** ""
2 22 23
ATOM$RED        STATIC     ATOMS    COLORGROUP SYSTEM
2 22 23
@<TRIPOS>COMMENT
> <Gold.Version>
2022.3.0

> <Gold.Id.Protein>
unknown|5adg_clean|pdb

> <Gold.Protein.RotatedTorsions>
[ 1394 1385 1383 1380 ] final  119.74 input   60.03 | X-H torsion
[ 1425 1409 1410 1411 ] final -128.68 input  129.35 | X-H torsion
[ 1462 1452 1453 1454 ] final  129.86 input  108.99 | X-H torsion
[ 1488 1477 1478 1479 ] final  -62.90 input  100.07 | X-H torsion
[ 1521 1510 1511 1512 ] final  109.12 input  113.76 | X-H torsion
[ 1570 1551 1552 1553 ] final  134.08 input  123.58 | X-H torsion
[ 1707 1683 1682 1681 ] final  -40.19 input   60.00 | X-H torsion
[ 2445 2428 2429 2430 ] final   98.17 input  119.94 | X-H torsion
[ 2478 2467 2468 2469 ] final   46.18 input  117.54 | X-H torsion
[ 2333 2316 2317 2318 ] final  164.19 input  118.58 | X-H torsion
[ 2366 2351 2352 2353 ] final   59.94 input  116.99 | X-H torsion
[ 2407 2383 2384 2385 ] final  -55.40 input  115.65 | X-H torsion
[ 2510 2497 2498 2499 ] final -159.37 input  121.55 | X-H torsion
[ 2572 2558 2559 2560 ] final -124.79 input  118.05 | X-H torsion
[ 2541 2525 2526 2527 ] final   84.40 input  116.25 | X-H torsion
[ 2611 2587 2588 2589 ] final -156.15 input  123.81 | X-H torsion
[ 2710 2698 2699 2700 ] final  118.73 input  119.89 | X-H torsion
[ 2679 2660 2661 2662 ] final -122.52 input  116.13 | X-H torsion
[ 2646 2631 2632 2633 ] final -157.88 input  117.28 | X-H torsion
[ 2736 2721 2722 2723 ] final  -69.57 input   88.34 | X-H torsion
[ 2782 2776 2777 2778 ] final  109.66 input -114.77 | X-H torsion
[ 2619 2595 2594 2593 ] final  -56.29 input   60.00 | X-H torsion
[ 1697 1675 1676 1677 ] final  -51.97 input  120.12 | X-H torsion
[ 1635 1616 1617 1618 ] final   27.86 input  110.97 | X-H torsion
[ 2757 2749 2750 2751 ] final  -36.45 input   47.81 | X-H torsion
[ 13465 1382 1381 1380 ] final  -44.72 input    0.00 | X-H torsion
[ 13470 1412 1411 1410 ] final -101.64 input    0.00 | X-H torsion
[ 13473 1455 1454 1453 ] final  121.64 input   -0.00 | X-H torsion
[ 13480 1480 1479 1478 ] final   79.50 input   -0.00 | X-H torsion
[ 13484 1554 1553 1552 ] final -160.20 input    0.00 | X-H torsion
[ 13496 2319 2318 2317 ] final  -33.74 input   -0.00 | X-H torsion
[ 13499 2431 2430 2429 ] final  -84.70 input    0.00 | X-H torsion
[ 13504 2287 2286 2285 ] final -131.91 input   -0.00 | X-H torsion
[ 13508 2354 2353 2352 ] final  -12.74 input    0.00 | X-H torsion
[ 13511 2386 2385 2384 ] final   33.60 input    0.00 | X-H torsion
[ 13513 2470 2469 2468 ] final  -84.57 input   -0.00 | X-H torsion
[ 13521 2528 2527 2526 ] final  -32.17 input    0.00 | X-H torsion
[ 13523 2561 2560 2559 ] final -158.11 input   -0.00 | X-H torsion
[ 13527 2663 2662 2661 ] final  168.69 input    0.00 | X-H torsion
[ 13529 2590 2589 2588 ] final   76.18 input   -0.00 | X-H torsion
[ 13532 2701 2700 2699 ] final  -75.30 input    0.00 | X-H torsion
[ 13535 1513 1512 1511 ] final  126.53 input    0.00 | X-H torsion
[ 13537 2634 2633 2632 ] final -146.70 input    0.00 | X-H torsion
[ 13540 2779 2778 2777 ] final   19.06 input    0.00 | X-H torsion

> <Gold.Protein.ActiveResidues>
 THR355  LYS356  ASP357  GLN358  LEU359  PHE360  PRO361  LEU362  ALA363  LYS364 
 ASP368  PHE377  GLY378  HIS382  MET383  GLU384  ARG385  LEU386  GLU387  GLU388 
 VAL389  ASN390  LYS391  GLU392  ILE393  ASP394  THR395  THR396  SER397 

> <Gold.Protein.RotatedAtoms>
  105.7828  276.4758  317.3448 H   0  0  0  0  0  0  0  0  0  0  0  0  # atno 1394 bound_to 1385
  106.8805  274.4387  313.8661 H   0  0  0  0  0  0  0  0  0  0  0  0  # atno 1425 bound_to 1409
  107.2051  277.4626  315.5211 H   0  0  0  0  0  0  0  0  0  0  0  0  # atno 1462 bound_to 1452
  109.2969  276.6939  317.8500 H   0  0  0  0  0  0  0  0  0  0  0  0  # atno 1488 bound_to 1477
  109.5529  274.5563  316.5347 H   0  0  0  0  0  0  0  0  0  0  0  0  # atno 1521 bound_to 1510
  111.9474  275.5874  315.3978 H   0  0  0  0  0  0  0  0  0  0  0  0  # atno 1570 bound_to 1551
  115.1597  273.9521  318.1596 H   0  0  0  0  0  0  0  0  0  0  0  0  # atno 1635 bound_to 1616
  118.5372  272.7844  316.3213 H   0  0  0  0  0  0  0  0  0  0  0  0  # atno 1697 bound_to 1675
  122.1146  278.0194  319.9576 H   0  0  0  0  0  0  0  0  0  0  0  0  # atno 1707 bound_to 1683
  123.1130  277.5925  318.7057 H   0  0  0  0  0  0  0  0  0  0  0  0  # atno 1708 bound_to 1683
  123.2981  279.0624  319.4492 H   0  0  0  0  0  0  0  0  0  0  0  0  # atno 1709 bound_to 1683
  128.2850  277.9756  311.5216 H   0  0  0  0  0  0  0  0  0  0  0  0  # atno 2333 bound_to 2316
  126.7883  277.5371  308.8087 H   0  0  0  0  0  0  0  0  0  0  0  0  # atno 2366 bound_to 2351
  124.4580  276.8097  307.6782 H   0  0  0  0  0  0  0  0  0  0  0  0  # atno 2407 bound_to 2383
  123.7611  276.7372  310.1162 H   0  0  0  0  0  0  0  0  0  0  0  0  # atno 2445 bound_to 2428
  121.9373  277.7767  308.8879 H   0  0  0  0  0  0  0  0  0  0  0  0  # atno 2478 bound_to 2467
  121.0446  278.1268  306.4850 H   0  0  0  0  0  0  0  0  0  0  0  0  # atno 2510 bound_to 2497
  119.5313  275.8549  308.3854 H   0  0  0  0  0  0  0  0  0  0  0  0  # atno 2541 bound_to 2525
  117.0261  276.1229  309.8697 H   0  0  0  0  0  0  0  0  0  0  0  0  # atno 2572 bound_to 2558
  116.0112  279.2940  307.7381 H   0  0  0  0  0  0  0  0  0  0  0  0  # atno 2611 bound_to 2587
  119.7480  281.1088  304.2220 H   0  0  0  0  0  0  0  0  0  0  0  0  # atno 2619 bound_to 2595
  119.8572  280.9287  302.5776 H   0  0  0  0  0  0  0  0  0  0  0  0  # atno 2620 bound_to 2595
  119.8938  282.4441  303.2499 H   0  0  0  0  0  0  0  0  0  0  0  0  # atno 2621 bound_to 2595
  115.1493  276.7284  305.2047 H   0  0  0  0  0  0  0  0  0  0  0  0  # atno 2646 bound_to 2631
  113.0066  274.4033  307.2834 H   0  0  0  0  0  0  0  0  0  0  0  0  # atno 2679 bound_to 2660
  112.0592  277.6017  307.8252 H   0  0  0  0  0  0  0  0  0  0  0  0  # atno 2710 bound_to 2698
  109.2926  277.6722  306.1016 H   0  0  0  0  0  0  0  0  0  0  0  0  # atno 2736 bound_to 2721
  108.3496  275.6728  305.4235 H   0  0  0  0  0  0  0  0  0  0  0  0  # atno 2757 bound_to 2749
  107.2163  273.7500  306.4547 H   0  0  0  0  0  0  0  0  0  0  0  0  # atno 2782 bound_to 2776
  107.9835  274.1700  316.7809 LP  0  0  0  0  0  0  0  0  0  0  0  0  # atno 13465 bound_to 1382
  108.8470  273.9821  315.2913 LP  0  0  0  0  0  0  0  0  0  0  0  0  # atno 13466 bound_to 1382
  106.5127  275.0255  317.4519 LP  0  0  0  0  0  0  0  0  0  0  0  0  # atno 13467 bound_to 1385
  105.1436  275.3179  318.2926 LP  0  0  0  0  0  0  0  0  0  0  0  0  # atno 13468 bound_to 1385
  106.3354  275.8800  314.6945 LP  0  0  0  0  0  0  0  0  0  0  0  0  # atno 13469 bound_to 1409
  110.6696  276.1196  315.5872 LP  0  0  0  0  0  0  0  0  0  0  0  0  # atno 13470 bound_to 1412
  110.7226  277.4177  314.4417 LP  0  0  0  0  0  0  0  0  0  0  0  0  # atno 13471 bound_to 1412
  108.7466  276.6502  315.3401 LP  0  0  0  0  0  0  0  0  0  0  0  0  # atno 13472 bound_to 1452
  110.2641  277.4700  319.6375 LP  0  0  0  0  0  0  0  0  0  0  0  0  # atno 13473 bound_to 1455
  111.1232  277.7293  318.1561 LP  0  0  0  0  0  0  0  0  0  0  0  0  # atno 13474 bound_to 1455
  107.7814  275.8233  317.8616 LP  0  0  0  0  0  0  0  0  0  0  0  0  # atno 13479 bound_to 1477
  111.4506  273.0070  319.4555 LP  0  0  0  0  0  0  0  0  0  0  0  0  # atno 13480 bound_to 1480
  112.3006  274.4101  318.8998 LP  0  0  0  0  0  0  0  0  0  0  0  0  # atno 13481 bound_to 1480
  110.3994  274.1120  317.9989 LP  0  0  0  0  0  0  0  0  0  0  0  0  # atno 13482 bound_to 1510
  112.6531  274.1864  316.1596 LP  0  0  0  0  0  0  0  0  0  0  0  0  # atno 13483 bound_to 1551
  116.7087  274.7498  317.3453 LP  0  0  0  0  0  0  0  0  0  0  0  0  # atno 13484 bound_to 1554
  116.5957  275.0186  315.6380 LP  0  0  0  0  0  0  0  0  0  0  0  0  # atno 13485 bound_to 1554
  123.9813  278.9681  310.3451 LP  0  0  0  0  0  0  0  0  0  0  0  0  # atno 13496 bound_to 2319
  124.0482  279.4533  308.6837 LP  0  0  0  0  0  0  0  0  0  0  0  0  # atno 13497 bound_to 2319
  122.6976  275.4264  309.6595 LP  0  0  0  0  0  0  0  0  0  0  0  0  # atno 13498 bound_to 2428
  119.1346  276.8141  309.7406 LP  0  0  0  0  0  0  0  0  0  0  0  0  # atno 13499 bound_to 2431
  119.0850  278.1554  310.8353 LP  0  0  0  0  0  0  0  0  0  0  0  0  # atno 13500 bound_to 2431
  121.3818  278.7458  310.2334 LP  0  0  0  0  0  0  0  0  0  0  0  0  # atno 13501 bound_to 2467
  125.2289  276.6736  310.4537 LP  0  0  0  0  0  0  0  0  0  0  0  0  # atno 13504 bound_to 2287
  125.4987  275.7949  311.9217 LP  0  0  0  0  0  0  0  0  0  0  0  0  # atno 13505 bound_to 2287
  127.3403  276.9928  310.4260 LP  0  0  0  0  0  0  0  0  0  0  0  0  # atno 13506 bound_to 2316
  126.2985  279.2141  308.7777 LP  0  0  0  0  0  0  0  0  0  0  0  0  # atno 13507 bound_to 2351
  123.0543  277.9864  306.4499 LP  0  0  0  0  0  0  0  0  0  0  0  0  # atno 13508 bound_to 2354
  122.6887  276.3422  306.8532 LP  0  0  0  0  0  0  0  0  0  0  0  0  # atno 13509 bound_to 2354
  125.7076  275.8564  308.4398 LP  0  0  0  0  0  0  0  0  0  0  0  0  # atno 13510 bound_to 2383
  121.2656  274.1742  308.5154 LP  0  0  0  0  0  0  0  0  0  0  0  0  # atno 13511 bound_to 2386
  120.6860  275.7397  308.9773 LP  0  0  0  0  0  0  0  0  0  0  0  0  # atno 13512 bound_to 2386
  117.8804  278.3548  307.7056 LP  0  0  0  0  0  0  0  0  0  0  0  0  # atno 13513 bound_to 2470
  118.3916  279.1975  306.2813 LP  0  0  0  0  0  0  0  0  0  0  0  0  # atno 13514 bound_to 2470
  120.3085  277.3467  307.8669 LP  0  0  0  0  0  0  0  0  0  0  0  0  # atno 13517 bound_to 2497
  117.5627  277.0395  308.4810 LP  0  0  0  0  0  0  0  0  0  0  0  0  # atno 13518 bound_to 2558
  118.8396  275.2374  306.9017 LP  0  0  0  0  0  0  0  0  0  0  0  0  # atno 13519 bound_to 2525
  115.8087  277.5632  307.5791 LP  0  0  0  0  0  0  0  0  0  0  0  0  # atno 13520 bound_to 2587
  115.1469  274.6425  308.2204 LP  0  0  0  0  0  0  0  0  0  0  0  0  # atno 13521 bound_to 2528
  114.7316  275.7507  309.4850 LP  0  0  0  0  0  0  0  0  0  0  0  0  # atno 13522 bound_to 2528
  113.2279  278.1103  307.7595 LP  0  0  0  0  0  0  0  0  0  0  0  0  # atno 13523 bound_to 2561
  113.4333  278.4053  309.4538 LP  0  0  0  0  0  0  0  0  0  0  0  0  # atno 13524 bound_to 2561
  110.6833  276.5917  308.2044 LP  0  0  0  0  0  0  0  0  0  0  0  0  # atno 13525 bound_to 2698
  113.2812  276.0855  307.6609 LP  0  0  0  0  0  0  0  0  0  0  0  0  # atno 13526 bound_to 2660
  108.7124  276.7770  308.2457 LP  0  0  0  0  0  0  0  0  0  0  0  0  # atno 13527 bound_to 2663
  109.0691  275.0986  308.4821 LP  0  0  0  0  0  0  0  0  0  0  0  0  # atno 13528 bound_to 2663
  112.6056  277.9592  304.4571 LP  0  0  0  0  0  0  0  0  0  0  0  0  # atno 13529 bound_to 2590
  112.0728  277.5612  306.0564 LP  0  0  0  0  0  0  0  0  0  0  0  0  # atno 13530 bound_to 2590
  114.4348  276.7723  306.8007 LP  0  0  0  0  0  0  0  0  0  0  0  0  # atno 13531 bound_to 2631
  107.4443  277.8475  306.8684 LP  0  0  0  0  0  0  0  0  0  0  0  0  # atno 13532 bound_to 2701
  107.7008  279.1406  305.7450 LP  0  0  0  0  0  0  0  0  0  0  0  0  # atno 13533 bound_to 2701
  110.8676  277.5333  305.3480 LP  0  0  0  0  0  0  0  0  0  0  0  0  # atno 13534 bound_to 2721
  114.3423  273.0009  315.7579 LP  0  0  0  0  0  0  0  0  0  0  0  0  # atno 13535 bound_to 1513
  113.6233  272.6565  317.2956 LP  0  0  0  0  0  0  0  0  0  0  0  0  # atno 13536 bound_to 1513
  110.6650  274.9061  306.4199 LP  0  0  0  0  0  0  0  0  0  0  0  0  # atno 13537 bound_to 2634
  111.5104  273.9113  305.2816 LP  0  0  0  0  0  0  0  0  0  0  0  0  # atno 13538 bound_to 2634
  108.7451  274.3907  307.0240 LP  0  0  0  0  0  0  0  0  0  0  0  0  # atno 13539 bound_to 2776
  107.0034  272.1787  310.6801 LP  0  0  0  0  0  0  0  0  0  0  0  0  # atno 13540 bound_to 2779
  108.5706  271.4598  310.8443 LP  0  0  0  0  0  0  0  0  0  0  0  0  # atno 13541 bound_to 2779

> <Gold.Score>
     Fitness  S(hb_ext) S(vdw_ext)  S(hb_int)    S(int)      intcor
     21.22       1.43      14.43       0.00      -0.05      -0.86

> <Gold.Goldscore.Fitness>
21.2212

> <Gold.Goldscore.Internal.Vdw>
-0.3693

> <Gold.Goldscore.Internal.Torsion>
-0.5369

> <Gold.Goldscore.External.Vdw>
14.4280

> <Gold.Goldscore.Internal.HBond>
0.0000

> <Gold.Goldscore.External.HBond>
1.4307

> <Gold.Goldscore.Internal.Correction>
-0.8582

> <Gold.Goldscore.Hbonds>
donor molecule, donor type, donor heavy atom, donor atom, acceptor molecule, acceptor atom, score
      L1  H     8    22       P1  2561  0.58
      L1  H    10    23       P1  1412  0.13

> <Gold.Goldscore.Internal.Vdw.Weighted>
-0.3693

> <Gold.Goldscore.Internal.Torsion.Weighted>
-0.5369

> <Gold.Goldscore.External.Vdw.Weighted>
19.8386

> <Gold.Goldscore.Internal.HBond.Weighted>
0.0000

> <Gold.Goldscore.External.HBond.Weighted>
1.4307

> <Gold.Goldscore.Internal.Correction.Weighted>
-0.8582

> <Gold.Rescore>
     Score     S(PLP)   S(hbond)     S(cho)   S(metal)  DE(clash)   DE(tors)     intcor
     21.89     -18.83       1.27       0.00       0.00       0.00       0.38       ----

> <Gold.PLP.Fitness>
21.8917

> <Gold.PLP.PLP>
-18.8311

> <Gold.PLP.part.hbond>
-2.0000

> <Gold.PLP.part.metal>
0.0000

> <Gold.PLP.part.buried>
-4.1793

> <Gold.PLP.part.nonpolar>
-13.5195

> <Gold.PLP.part.repulsive>
0.6082

> <Gold.PLP.ligand.clash>
0.0000

> <Gold.PLP.ligand.torsion>
0.3753

> <Gold.PLP.Chemscore.Hbond>
1.2704

> <Gold.PLP.Chemscore.CHOScore>
0.0000

> <Gold.PLP.Chemscore.Metal>
0.0000

> <Gold.Chemscore.Hbonds>
donor molecule, donor type, donor heavy atom, donor atom, acceptor molecule, acceptor atom, score
      L1  H    10    23       P1  1412  0.21
      P1  H  2564  2576       L1     9  0.09

> <Gold.PLP.Chemscore.Internal.Correction>
   9.000000E+99

