#       Name:                CT1002167954
#       Creating user name   hitesit
#       Creation time:       Sun Apr 16 22:53:09 2023


#       File generated by GOLD software.
#

@<TRIPOS>MOLECULE
CT1002167954|ligand_prepared|mol2|1|dock5
    29    30     1
SMALL
NO_CHARGES


@<TRIPOS>ATOM
      1 C1         110.2322 281.5700 312.3297 C.3            1 RES1               0.0000
      2 C2         110.3321 281.9703 313.8158 C.ar           1 RES1               0.0000
      3 C3         111.6546 281.6094 311.7789 C.2            1 RES1               0.0000
      4 C4         109.5927 280.1861 312.3027 C.2            1 RES1               0.0000
      5 C5         109.3517 282.5197 311.4846 C.3            1 RES1               0.0000
      6 C6         110.4560 283.3070 314.1829 C.ar           1 RES1               0.0000
      7 C7         110.2991 281.0162 314.8294 C.ar           1 RES1               0.0000
      8 N8         112.2721 280.4175 311.5378 N.am           1 RES1               0.0000
      9 O9         112.2399 282.6697 311.5961 O.2            1 RES1               0.0000
     10 N10        110.3505 279.1373 311.8515 N.am           1 RES1               0.0000
     11 O11        108.4450 279.9917 312.6838 O.2            1 RES1               0.0000
     12 C12        108.0221 282.8655 312.1365 C.3            1 RES1               0.0000
     13 C13        110.5409 283.6768 315.5149 C.ar           1 RES1               0.0000
     14 C14        110.3844 281.3882 316.1608 C.ar           1 RES1               0.0000
     15 C15        111.6711 279.1851 311.4967 C.2            1 RES1               0.0000
     16 C16        110.5047 282.7178 316.5047 C.ar           1 RES1               0.0000
     17 O17        112.2996 278.1881 311.1529 O.2            1 RES1               0.0000
     18 H18        109.9075 283.4477 311.3023 H              1 RES1               0.0000
     19 H19        109.1567 282.0493 310.5130 H              1 RES1               0.0000
     20 H20        110.4886 284.0754 313.4177 H              1 RES1               0.0000
     21 H21        110.2061 279.9641 314.5823 H              1 RES1               0.0000
     22 H22        113.2732 280.4451 311.3729 H              1 RES1               0.0000
     23 H23        109.8871 278.2377 311.7726 H              1 RES1               0.0000
     24 H24        107.4438 283.5340 311.5022 H              1 RES1               0.0000
     25 H25        107.4322 281.9678 312.3094 H              1 RES1               0.0000
     26 H26        108.1786 283.3579 313.0941 H              1 RES1               0.0000
     27 H27        110.6368 284.7244 315.7802 H              1 RES1               0.0000
     28 H28        110.3561 280.6300 316.9365 H              1 RES1               0.0000
     29 H29        110.5708 283.0078 317.5481 H              1 RES1               0.0000
@<TRIPOS>BOND
    1    1    2 1     
    2    1    3 1     
    3    1    4 1     
    4    1    5 1     
    5    2    6 ar    
    6    2    7 ar    
    7    3    8 1     
    8    3    9 2     
    9    4   10 1     
   10    4   11 2     
   11    5   12 1     
   12    5   18 1     
   13    5   19 1     
   14    6   13 ar    
   15    6   20 1     
   16    7   14 ar    
   17    7   21 1     
   18    8   15 1     
   19    8   22 1     
   20   10   15 1     
   21   10   23 1     
   22   12   24 1     
   23   12   25 1     
   24   12   26 1     
   25   13   16 ar    
   26   13   27 1     
   27   14   16 ar    
   28   14   28 1     
   29   15   17 2     
   30   16   29 1     
@<TRIPOS>SUBSTRUCTURE
      1 RES1           1
@<TRIPOS>SET
DONOR_HYDROGENS      STATIC     ATOMS    <user>   **** ""
2 22 23
ATOM$RED        STATIC     ATOMS    COLORGROUP SYSTEM
2 22 23
@<TRIPOS>COMMENT
> <Gold.Version>
2022.3.0

> <Gold.Id.Protein>
unknown|5adg_clean|pdb

> <Gold.Protein.RotatedTorsions>
[ 1394 1385 1383 1380 ] final  -72.08 input   60.03 | X-H torsion
[ 1425 1409 1410 1411 ] final  -65.95 input  129.35 | X-H torsion
[ 1462 1452 1453 1454 ] final  178.38 input  108.99 | X-H torsion
[ 1488 1477 1478 1479 ] final  123.47 input  100.07 | X-H torsion
[ 1521 1510 1511 1512 ] final   27.54 input  113.76 | X-H torsion
[ 1570 1551 1552 1553 ] final  125.38 input  123.58 | X-H torsion
[ 1707 1683 1682 1681 ] final  -76.21 input   60.00 | X-H torsion
[ 2445 2428 2429 2430 ] final  -29.94 input  119.94 | X-H torsion
[ 2478 2467 2468 2469 ] final   25.31 input  117.54 | X-H torsion
[ 2333 2316 2317 2318 ] final  -70.76 input  118.58 | X-H torsion
[ 2366 2351 2352 2353 ] final   11.41 input  116.99 | X-H torsion
[ 2407 2383 2384 2385 ] final   47.28 input  115.65 | X-H torsion
[ 2510 2497 2498 2499 ] final  127.29 input  121.55 | X-H torsion
[ 2572 2558 2559 2560 ] final  -18.59 input  118.05 | X-H torsion
[ 2541 2525 2526 2527 ] final   68.68 input  116.25 | X-H torsion
[ 2611 2587 2588 2589 ] final -162.47 input  123.81 | X-H torsion
[ 2710 2698 2699 2700 ] final -133.19 input  119.89 | X-H torsion
[ 2679 2660 2661 2662 ] final  -82.71 input  116.13 | X-H torsion
[ 2646 2631 2632 2633 ] final  131.18 input  117.28 | X-H torsion
[ 2736 2721 2722 2723 ] final -146.02 input   88.34 | X-H torsion
[ 2782 2776 2777 2778 ] final  -64.86 input -114.77 | X-H torsion
[ 2619 2595 2594 2593 ] final -141.26 input   60.00 | X-H torsion
[ 1697 1675 1676 1677 ] final -157.81 input  120.12 | X-H torsion
[ 1635 1616 1617 1618 ] final  132.10 input  110.97 | X-H torsion
[ 2757 2749 2750 2751 ] final -143.32 input   47.81 | X-H torsion
[ 13465 1382 1381 1380 ] final -126.49 input    0.00 | X-H torsion
[ 13470 1412 1411 1410 ] final -176.06 input    0.00 | X-H torsion
[ 13473 1455 1454 1453 ] final  173.75 input   -0.00 | X-H torsion
[ 13480 1480 1479 1478 ] final   73.32 input   -0.00 | X-H torsion
[ 13484 1554 1553 1552 ] final  176.29 input    0.00 | X-H torsion
[ 13496 2319 2318 2317 ] final  -93.65 input   -0.00 | X-H torsion
[ 13499 2431 2430 2429 ] final  -22.85 input    0.00 | X-H torsion
[ 13504 2287 2286 2285 ] final   50.26 input   -0.00 | X-H torsion
[ 13508 2354 2353 2352 ] final   58.07 input    0.00 | X-H torsion
[ 13511 2386 2385 2384 ] final -155.37 input    0.00 | X-H torsion
[ 13513 2470 2469 2468 ] final  117.98 input   -0.00 | X-H torsion
[ 13521 2528 2527 2526 ] final -118.53 input    0.00 | X-H torsion
[ 13523 2561 2560 2559 ] final   95.89 input   -0.00 | X-H torsion
[ 13527 2663 2662 2661 ] final  -76.64 input    0.00 | X-H torsion
[ 13529 2590 2589 2588 ] final -156.84 input   -0.00 | X-H torsion
[ 13532 2701 2700 2699 ] final  140.87 input    0.00 | X-H torsion
[ 13535 1513 1512 1511 ] final   11.27 input    0.00 | X-H torsion
[ 13537 2634 2633 2632 ] final -116.66 input    0.00 | X-H torsion
[ 13540 2779 2778 2777 ] final  -40.47 input    0.00 | X-H torsion

> <Gold.Protein.ActiveResidues>
 THR355  LYS356  ASP357  GLN358  LEU359  PHE360  PRO361  LEU362  ALA363  LYS364 
 ASP368  PHE377  GLY378  HIS382  MET383  GLU384  ARG385  LEU386  GLU387  GLU388 
 VAL389  ASN390  LYS391  GLU392  ILE393  ASP394  THR395  THR396  SER397 

> <Gold.Protein.RotatedAtoms>
  105.6801  274.7930  318.1354 H   0  0  0  0  0  0  0  0  0  0  0  0  # atno 1394 bound_to 1385
  107.0939  274.5942  314.7522 H   0  0  0  0  0  0  0  0  0  0  0  0  # atno 1425 bound_to 1409
  107.6846  277.8175  315.0940 H   0  0  0  0  0  0  0  0  0  0  0  0  # atno 1462 bound_to 1452
  107.7410  275.8649  317.9423 H   0  0  0  0  0  0  0  0  0  0  0  0  # atno 1488 bound_to 1477
  110.4523  275.0530  317.0690 H   0  0  0  0  0  0  0  0  0  0  0  0  # atno 1521 bound_to 1510
  111.9454  275.6402  315.5199 H   0  0  0  0  0  0  0  0  0  0  0  0  # atno 1570 bound_to 1551
  114.1482  273.7925  319.1053 H   0  0  0  0  0  0  0  0  0  0  0  0  # atno 1635 bound_to 1616
  118.0178  273.9008  315.6239 H   0  0  0  0  0  0  0  0  0  0  0  0  # atno 1697 bound_to 1675
  122.3165  278.5574  320.0977 H   0  0  0  0  0  0  0  0  0  0  0  0  # atno 1707 bound_to 1683
  122.6593  277.3592  319.0054 H   0  0  0  0  0  0  0  0  0  0  0  0  # atno 1708 bound_to 1683
  123.5501  278.7571  319.0089 H   0  0  0  0  0  0  0  0  0  0  0  0  # atno 1709 bound_to 1683
  127.1172  276.9706  311.2016 H   0  0  0  0  0  0  0  0  0  0  0  0  # atno 2333 bound_to 2316
  126.1728  277.6750  309.1685 H   0  0  0  0  0  0  0  0  0  0  0  0  # atno 2366 bound_to 2351
  125.0321  276.5746  308.9070 H   0  0  0  0  0  0  0  0  0  0  0  0  # atno 2407 bound_to 2383
  122.6676  276.0338  309.1948 H   0  0  0  0  0  0  0  0  0  0  0  0  # atno 2445 bound_to 2428
  121.6772  277.6104  308.9759 H   0  0  0  0  0  0  0  0  0  0  0  0  # atno 2478 bound_to 2467
  121.4518  277.3306  307.0534 H   0  0  0  0  0  0  0  0  0  0  0  0  # atno 2510 bound_to 2497
  119.3869  276.0434  308.3351 H   0  0  0  0  0  0  0  0  0  0  0  0  # atno 2541 bound_to 2525
  116.7983  276.3196  308.4854 H   0  0  0  0  0  0  0  0  0  0  0  0  # atno 2572 bound_to 2558
  116.0934  279.2837  307.6859 H   0  0  0  0  0  0  0  0  0  0  0  0  # atno 2611 bound_to 2587
  119.8470  282.3317  303.8128 H   0  0  0  0  0  0  0  0  0  0  0  0  # atno 2619 bound_to 2595
  119.7510  280.6769  303.8412 H   0  0  0  0  0  0  0  0  0  0  0  0  # atno 2620 bound_to 2595
  119.9011  281.4740  302.3948 H   0  0  0  0  0  0  0  0  0  0  0  0  # atno 2621 bound_to 2595
  115.5451  276.2912  306.0486 H   0  0  0  0  0  0  0  0  0  0  0  0  # atno 2646 bound_to 2631
  112.6976  274.7507  306.9044 H   0  0  0  0  0  0  0  0  0  0  0  0  # atno 2679 bound_to 2660
  111.1406  277.2341  308.8623 H   0  0  0  0  0  0  0  0  0  0  0  0  # atno 2710 bound_to 2698
  109.8921  278.4646  305.6219 H   0  0  0  0  0  0  0  0  0  0  0  0  # atno 2736 bound_to 2721
  108.6824  275.5636  304.0400 H   0  0  0  0  0  0  0  0  0  0  0  0  # atno 2757 bound_to 2749
  108.7992  274.3176  307.0542 H   0  0  0  0  0  0  0  0  0  0  0  0  # atno 2782 bound_to 2776
  108.5982  274.9100  316.1811 LP  0  0  0  0  0  0  0  0  0  0  0  0  # atno 13465 bound_to 1382
  108.2323  273.2421  315.8911 LP  0  0  0  0  0  0  0  0  0  0  0  0  # atno 13466 bound_to 1382
  105.2046  276.3174  317.8231 LP  0  0  0  0  0  0  0  0  0  0  0  0  # atno 13467 bound_to 1385
  106.5551  275.7211  317.1251 LP  0  0  0  0  0  0  0  0  0  0  0  0  # atno 13468 bound_to 1385
  106.1285  275.7292  313.8353 LP  0  0  0  0  0  0  0  0  0  0  0  0  # atno 13469 bound_to 1409
  110.6459  277.1466  315.7921 LP  0  0  0  0  0  0  0  0  0  0  0  0  # atno 13470 bound_to 1412
  110.7463  276.3907  314.2369 LP  0  0  0  0  0  0  0  0  0  0  0  0  # atno 13471 bound_to 1412
  108.2853  276.3088  315.7509 LP  0  0  0  0  0  0  0  0  0  0  0  0  # atno 13472 bound_to 1452
  110.6519  276.8738  319.3674 LP  0  0  0  0  0  0  0  0  0  0  0  0  # atno 13473 bound_to 1455
  110.7354  278.3254  318.4262 LP  0  0  0  0  0  0  0  0  0  0  0  0  # atno 13474 bound_to 1455
  109.3016  276.6333  317.7714 LP  0  0  0  0  0  0  0  0  0  0  0  0  # atno 13479 bound_to 1477
  111.4244  273.0582  319.5290 LP  0  0  0  0  0  0  0  0  0  0  0  0  # atno 13480 bound_to 1480
  112.3268  274.3589  318.8262 LP  0  0  0  0  0  0  0  0  0  0  0  0  # atno 13481 bound_to 1480
  109.5243  273.6287  317.4791 LP  0  0  0  0  0  0  0  0  0  0  0  0  # atno 13482 bound_to 1510
  112.6551  274.1341  316.0388 LP  0  0  0  0  0  0  0  0  0  0  0  0  # atno 13483 bound_to 1551
  116.8405  275.0758  317.3149 LP  0  0  0  0  0  0  0  0  0  0  0  0  # atno 13484 bound_to 1554
  116.4639  274.6925  315.6683 LP  0  0  0  0  0  0  0  0  0  0  0  0  # atno 13485 bound_to 1554
  123.8195  278.3925  309.7203 LP  0  0  0  0  0  0  0  0  0  0  0  0  # atno 13496 bound_to 2319
  124.2101  280.0289  309.3085 LP  0  0  0  0  0  0  0  0  0  0  0  0  # atno 13497 bound_to 2319
  123.7621  276.1112  310.5564 LP  0  0  0  0  0  0  0  0  0  0  0  0  # atno 13498 bound_to 2428
  119.2356  276.6935  310.6167 LP  0  0  0  0  0  0  0  0  0  0  0  0  # atno 13499 bound_to 2431
  118.9840  278.2760  309.9592 LP  0  0  0  0  0  0  0  0  0  0  0  0  # atno 13500 bound_to 2431
  121.6350  278.9078  310.1477 LP  0  0  0  0  0  0  0  0  0  0  0  0  # atno 13501 bound_to 2467
  125.4929  275.8225  311.9385 LP  0  0  0  0  0  0  0  0  0  0  0  0  # atno 13504 bound_to 2287
  125.2347  276.6460  310.4368 LP  0  0  0  0  0  0  0  0  0  0  0  0  # atno 13505 bound_to 2287
  128.4754  277.9697  310.7371 LP  0  0  0  0  0  0  0  0  0  0  0  0  # atno 13506 bound_to 2316
  126.9002  279.0794  308.4260 LP  0  0  0  0  0  0  0  0  0  0  0  0  # atno 13507 bound_to 2351
  123.2415  277.1899  305.8690 LP  0  0  0  0  0  0  0  0  0  0  0  0  # atno 13508 bound_to 2354
  122.5014  277.1387  307.4341 LP  0  0  0  0  0  0  0  0  0  0  0  0  # atno 13509 bound_to 2354
  125.1441  276.0870  307.2338 LP  0  0  0  0  0  0  0  0  0  0  0  0  # atno 13510 bound_to 2383
  120.6694  275.6856  309.1002 LP  0  0  0  0  0  0  0  0  0  0  0  0  # atno 13511 bound_to 2386
  121.2822  274.2283  308.3924 LP  0  0  0  0  0  0  0  0  0  0  0  0  # atno 13512 bound_to 2386
  118.3543  278.8826  306.1622 LP  0  0  0  0  0  0  0  0  0  0  0  0  # atno 13513 bound_to 2470
  117.9178  278.6697  307.8247 LP  0  0  0  0  0  0  0  0  0  0  0  0  # atno 13514 bound_to 2470
  119.9129  278.1204  307.3145 LP  0  0  0  0  0  0  0  0  0  0  0  0  # atno 13517 bound_to 2497
  117.7845  276.8479  309.8289 LP  0  0  0  0  0  0  0  0  0  0  0  0  # atno 13518 bound_to 2558
  118.9798  275.0543  306.9505 LP  0  0  0  0  0  0  0  0  0  0  0  0  # atno 13519 bound_to 2525
  115.7289  277.5732  307.6297 LP  0  0  0  0  0  0  0  0  0  0  0  0  # atno 13520 bound_to 2587
  114.8038  275.7769  308.2243 LP  0  0  0  0  0  0  0  0  0  0  0  0  # atno 13521 bound_to 2528
  115.0748  274.6163  309.4811 LP  0  0  0  0  0  0  0  0  0  0  0  0  # atno 13522 bound_to 2528
  113.3466  279.1188  308.6988 LP  0  0  0  0  0  0  0  0  0  0  0  0  # atno 13523 bound_to 2561
  113.3146  277.3969  308.5145 LP  0  0  0  0  0  0  0  0  0  0  0  0  # atno 13524 bound_to 2561
  111.5786  276.9500  307.1936 LP  0  0  0  0  0  0  0  0  0  0  0  0  # atno 13525 bound_to 2698
  113.5846  275.7445  308.0329 LP  0  0  0  0  0  0  0  0  0  0  0  0  # atno 13526 bound_to 2660
  108.9566  275.4760  307.6343 LP  0  0  0  0  0  0  0  0  0  0  0  0  # atno 13527 bound_to 2663
  108.8249  276.3996  309.0936 LP  0  0  0  0  0  0  0  0  0  0  0  0  # atno 13528 bound_to 2663
  112.1368  276.9738  305.5578 LP  0  0  0  0  0  0  0  0  0  0  0  0  # atno 13529 bound_to 2590
  112.5417  278.5466  304.9558 LP  0  0  0  0  0  0  0  0  0  0  0  0  # atno 13530 bound_to 2590
  114.0503  277.1971  305.9807 LP  0  0  0  0  0  0  0  0  0  0  0  0  # atno 13531 bound_to 2631
  107.6041  278.6924  305.4643 LP  0  0  0  0  0  0  0  0  0  0  0  0  # atno 13532 bound_to 2701
  107.5410  278.2957  307.1491 LP  0  0  0  0  0  0  0  0  0  0  0  0  # atno 13533 bound_to 2701
  110.2895  276.7693  305.8105 LP  0  0  0  0  0  0  0  0  0  0  0  0  # atno 13534 bound_to 2721
  113.4699  272.1312  316.5470 LP  0  0  0  0  0  0  0  0  0  0  0  0  # atno 13535 bound_to 1513
  114.4956  273.5263  316.5065 LP  0  0  0  0  0  0  0  0  0  0  0  0  # atno 13536 bound_to 1513
  110.7281  275.1680  306.0608 LP  0  0  0  0  0  0  0  0  0  0  0  0  # atno 13537 bound_to 2634
  111.4473  273.6494  305.6406 LP  0  0  0  0  0  0  0  0  0  0  0  0  # atno 13538 bound_to 2634
  107.2241  273.8452  306.4479 LP  0  0  0  0  0  0  0  0  0  0  0  0  # atno 13539 bound_to 2776
  107.6401  272.6228  311.0499 LP  0  0  0  0  0  0  0  0  0  0  0  0  # atno 13540 bound_to 2779
  107.9339  271.0158  310.4744 LP  0  0  0  0  0  0  0  0  0  0  0  0  # atno 13541 bound_to 2779

> <Gold.Score>
     Fitness  S(hb_ext) S(vdw_ext)  S(hb_int)    S(int)      intcor
     18.69       5.88      11.45       0.00      -2.94      -0.78

> <Gold.Goldscore.Fitness>
18.6901

> <Gold.Goldscore.Internal.Vdw>
-3.0591

> <Gold.Goldscore.Internal.Torsion>
-0.6514

> <Gold.Goldscore.External.Vdw>
11.4546

> <Gold.Goldscore.Internal.HBond>
0.0000

> <Gold.Goldscore.External.HBond>
5.8753

> <Gold.Goldscore.Internal.Correction>
-0.7752

> <Gold.Goldscore.Hbonds>
donor molecule, donor type, donor heavy atom, donor atom, acceptor molecule, acceptor atom, score
      L1  H     8    22       P1  2565  0.98

> <Gold.Goldscore.Internal.Vdw.Weighted>
-3.0591

> <Gold.Goldscore.Internal.Torsion.Weighted>
-0.6514

> <Gold.Goldscore.External.Vdw.Weighted>
15.7500

> <Gold.Goldscore.Internal.HBond.Weighted>
0.0000

> <Gold.Goldscore.External.HBond.Weighted>
5.8753

> <Gold.Goldscore.Internal.Correction.Weighted>
-0.7752

> <Gold.Rescore>
     Score     S(PLP)   S(hbond)     S(cho)   S(metal)  DE(clash)   DE(tors)     intcor
     15.16     -14.64       0.88       0.00       0.00       0.00       1.06       ----

> <Gold.PLP.Fitness>
15.1627

> <Gold.PLP.PLP>
-14.6439

> <Gold.PLP.part.hbond>
-1.0546

> <Gold.PLP.part.metal>
0.0000

> <Gold.PLP.part.buried>
-4.5153

> <Gold.PLP.part.nonpolar>
-10.3799

> <Gold.PLP.part.repulsive>
1.3940

> <Gold.PLP.ligand.clash>
0.0000

> <Gold.PLP.ligand.torsion>
1.0606

> <Gold.PLP.Chemscore.Hbond>
0.8800

> <Gold.PLP.Chemscore.CHOScore>
0.0000

> <Gold.PLP.Chemscore.Metal>
0.0000

> <Gold.Chemscore.Hbonds>
donor molecule, donor type, donor heavy atom, donor atom, acceptor molecule, acceptor atom, score
      L1  H     8    22       P1  2565  0.78

> <Gold.PLP.Chemscore.Internal.Correction>
   9.000000E+99

