#       Name:                CT1002167954
#       Creating user name   hitesit
#       Creation time:       Sun Apr 16 22:53:11 2023


#       File generated by GOLD software.
#

@<TRIPOS>MOLECULE
CT1002167954|ligand_prepared|mol2|1|dock8
    29    30     1
SMALL
NO_CHARGES


@<TRIPOS>ATOM
      1 C1         109.7536 281.8503 313.6634 C.3            1 RES1               0.0000
      2 C2         108.2381 282.0053 313.9037 C.ar           1 RES1               0.0000
      3 C3         110.2304 280.7628 314.6217 C.2            1 RES1               0.0000
      4 C4         109.9179 281.4963 312.1895 C.2            1 RES1               0.0000
      5 C5         110.5648 283.1378 313.9388 C.3            1 RES1               0.0000
      6 C6         107.7638 282.7304 314.9928 C.ar           1 RES1               0.0000
      7 C7         107.3037 281.4323 313.0451 C.ar           1 RES1               0.0000
      8 N8         110.5322 279.5426 314.0929 N.am           1 RES1               0.0000
      9 O9         110.3025 280.9611 315.8283 O.2            1 RES1               0.0000
     10 N10        110.4113 280.2564 311.8780 N.am           1 RES1               0.0000
     11 O11        109.6089 282.2737 311.2948 O.2            1 RES1               0.0000
     12 C12        112.0402 283.0192 313.5906 C.3            1 RES1               0.0000
     13 C13        106.4047 282.8798 315.2139 C.ar           1 RES1               0.0000
     14 C14        105.9450 281.5827 313.2682 C.ar           1 RES1               0.0000
     15 C15        110.6970 279.2522 312.7624 C.2            1 RES1               0.0000
     16 C16        105.4945 282.3065 314.3517 C.ar           1 RES1               0.0000
     17 O17        111.0856 278.1448 312.4020 O.2            1 RES1               0.0000
     18 H18        110.1299 283.9603 313.3577 H              1 RES1               0.0000
     19 H19        110.4724 283.3928 315.0018 H              1 RES1               0.0000
     20 H20        108.4651 283.1867 315.6835 H              1 RES1               0.0000
     21 H21        107.6352 280.8577 312.1869 H              1 RES1               0.0000
     22 H22        110.6459 278.7749 314.7472 H              1 RES1               0.0000
     23 H23        110.5814 280.0644 310.8960 H              1 RES1               0.0000
     24 H24        112.5627 283.9496 313.8029 H              1 RES1               0.0000
     25 H25        112.5106 282.2268 314.1690 H              1 RES1               0.0000
     26 H26        112.1701 282.7909 312.5347 H              1 RES1               0.0000
     27 H27        106.0553 283.4492 316.0688 H              1 RES1               0.0000
     28 H28        105.2322 281.1293 312.5873 H              1 RES1               0.0000
     29 H29        104.4299 282.4240 314.5249 H              1 RES1               0.0000
@<TRIPOS>BOND
    1    1    2 1     
    2    1    3 1     
    3    1    4 1     
    4    1    5 1     
    5    2    6 ar    
    6    2    7 ar    
    7    3    8 1     
    8    3    9 2     
    9    4   10 1     
   10    4   11 2     
   11    5   12 1     
   12    5   18 1     
   13    5   19 1     
   14    6   13 ar    
   15    6   20 1     
   16    7   14 ar    
   17    7   21 1     
   18    8   15 1     
   19    8   22 1     
   20   10   15 1     
   21   10   23 1     
   22   12   24 1     
   23   12   25 1     
   24   12   26 1     
   25   13   16 ar    
   26   13   27 1     
   27   14   16 ar    
   28   14   28 1     
   29   15   17 2     
   30   16   29 1     
@<TRIPOS>SUBSTRUCTURE
      1 RES1           1
@<TRIPOS>SET
DONOR_HYDROGENS      STATIC     ATOMS    <user>   **** ""
2 22 23
ATOM$RED        STATIC     ATOMS    COLORGROUP SYSTEM
2 22 23
@<TRIPOS>COMMENT
> <Gold.Version>
2022.3.0

> <Gold.Id.Protein>
unknown|5adg_clean|pdb

> <Gold.Protein.RotatedTorsions>
[ 1394 1385 1383 1380 ] final -133.92 input   60.03 | X-H torsion
[ 1425 1409 1410 1411 ] final  170.06 input  129.35 | X-H torsion
[ 1462 1452 1453 1454 ] final -104.60 input  108.99 | X-H torsion
[ 1488 1477 1478 1479 ] final   69.49 input  100.07 | X-H torsion
[ 1521 1510 1511 1512 ] final  122.07 input  113.76 | X-H torsion
[ 1570 1551 1552 1553 ] final  160.41 input  123.58 | X-H torsion
[ 1707 1683 1682 1681 ] final -120.92 input   60.00 | X-H torsion
[ 2445 2428 2429 2430 ] final -155.61 input  119.94 | X-H torsion
[ 2478 2467 2468 2469 ] final  118.47 input  117.54 | X-H torsion
[ 2333 2316 2317 2318 ] final -100.37 input  118.58 | X-H torsion
[ 2366 2351 2352 2353 ] final  144.88 input  116.99 | X-H torsion
[ 2407 2383 2384 2385 ] final  -88.17 input  115.65 | X-H torsion
[ 2510 2497 2498 2499 ] final  -12.61 input  121.55 | X-H torsion
[ 2572 2558 2559 2560 ] final  -81.61 input  118.05 | X-H torsion
[ 2541 2525 2526 2527 ] final   43.67 input  116.25 | X-H torsion
[ 2611 2587 2588 2589 ] final -165.40 input  123.81 | X-H torsion
[ 2710 2698 2699 2700 ] final -151.40 input  119.89 | X-H torsion
[ 2679 2660 2661 2662 ] final  -10.84 input  116.13 | X-H torsion
[ 2646 2631 2632 2633 ] final -146.75 input  117.28 | X-H torsion
[ 2736 2721 2722 2723 ] final  170.14 input   88.34 | X-H torsion
[ 2782 2776 2777 2778 ] final -170.92 input -114.77 | X-H torsion
[ 2619 2595 2594 2593 ] final   55.73 input   60.00 | X-H torsion
[ 1697 1675 1676 1677 ] final -171.92 input  120.12 | X-H torsion
[ 1635 1616 1617 1618 ] final  155.21 input  110.97 | X-H torsion
[ 2757 2749 2750 2751 ] final -172.90 input   47.81 | X-H torsion
[ 13465 1382 1381 1380 ] final -125.47 input    0.00 | X-H torsion
[ 13470 1412 1411 1410 ] final  150.96 input    0.00 | X-H torsion
[ 13473 1455 1454 1453 ] final  112.68 input   -0.00 | X-H torsion
[ 13480 1480 1479 1478 ] final  -59.44 input   -0.00 | X-H torsion
[ 13484 1554 1553 1552 ] final  101.30 input    0.00 | X-H torsion
[ 13496 2319 2318 2317 ] final  -98.86 input   -0.00 | X-H torsion
[ 13499 2431 2430 2429 ] final  -52.76 input    0.00 | X-H torsion
[ 13504 2287 2286 2285 ] final   -4.38 input   -0.00 | X-H torsion
[ 13508 2354 2353 2352 ] final  -20.45 input    0.00 | X-H torsion
[ 13511 2386 2385 2384 ] final -107.31 input    0.00 | X-H torsion
[ 13513 2470 2469 2468 ] final  -22.02 input   -0.00 | X-H torsion
[ 13521 2528 2527 2526 ] final -171.65 input    0.00 | X-H torsion
[ 13523 2561 2560 2559 ] final -122.86 input   -0.00 | X-H torsion
[ 13527 2663 2662 2661 ] final  -60.59 input    0.00 | X-H torsion
[ 13529 2590 2589 2588 ] final -166.35 input   -0.00 | X-H torsion
[ 13532 2701 2700 2699 ] final  -74.51 input    0.00 | X-H torsion
[ 13535 1513 1512 1511 ] final   -5.80 input    0.00 | X-H torsion
[ 13537 2634 2633 2632 ] final   88.27 input    0.00 | X-H torsion
[ 13540 2779 2778 2777 ] final  -13.59 input    0.00 | X-H torsion

> <Gold.Protein.ActiveResidues>
 THR355  LYS356  ASP357  GLN358  LEU359  PHE360  PRO361  LEU362  ALA363  LYS364 
 ASP368  PHE377  GLY378  HIS382  MET383  GLU384  ARG385  LEU386  GLU387  GLU388 
 VAL389  ASN390  LYS391  GLU392  ILE393  ASP394  THR395  THR396  SER397 

> <Gold.Protein.RotatedAtoms>
  105.0673  275.5248  318.2553 H   0  0  0  0  0  0  0  0  0  0  0  0  # atno 1394 bound_to 1385
  106.3863  275.0608  313.4325 H   0  0  0  0  0  0  0  0  0  0  0  0  # atno 1425 bound_to 1409
  108.6864  277.3546  314.9601 H   0  0  0  0  0  0  0  0  0  0  0  0  # atno 1462 bound_to 1452
  108.2091  275.6094  317.3426 H   0  0  0  0  0  0  0  0  0  0  0  0  # atno 1488 bound_to 1477
  109.4439  274.3938  316.5753 H   0  0  0  0  0  0  0  0  0  0  0  0  # atno 1521 bound_to 1510
  112.0010  275.3354  315.0928 H   0  0  0  0  0  0  0  0  0  0  0  0  # atno 1570 bound_to 1551
  114.2366  273.8562  319.4418 H   0  0  0  0  0  0  0  0  0  0  0  0  # atno 1635 bound_to 1616
  117.9044  274.0530  315.7309 H   0  0  0  0  0  0  0  0  0  0  0  0  # atno 1697 bound_to 1675
  122.8300  279.0284  319.8888 H   0  0  0  0  0  0  0  0  0  0  0  0  # atno 1707 bound_to 1683
  122.2110  277.5283  319.5533 H   0  0  0  0  0  0  0  0  0  0  0  0  # atno 1708 bound_to 1683
  123.4844  278.1160  318.6697 H   0  0  0  0  0  0  0  0  0  0  0  0  # atno 1709 bound_to 1683
  127.2610  277.1577  311.5885 H   0  0  0  0  0  0  0  0  0  0  0  0  # atno 2333 bound_to 2316
  127.2679  278.5073  308.3063 H   0  0  0  0  0  0  0  0  0  0  0  0  # atno 2366 bound_to 2351
  124.6672  276.5388  307.3175 H   0  0  0  0  0  0  0  0  0  0  0  0  # atno 2407 bound_to 2383
  123.3297  275.4422  310.4976 H   0  0  0  0  0  0  0  0  0  0  0  0  # atno 2445 bound_to 2428
  122.3850  278.6515  309.2439 H   0  0  0  0  0  0  0  0  0  0  0  0  # atno 2478 bound_to 2467
  119.9673  277.6845  307.7238 H   0  0  0  0  0  0  0  0  0  0  0  0  # atno 2510 bound_to 2497
  119.1294  276.2608  308.1503 H   0  0  0  0  0  0  0  0  0  0  0  0  # atno 2541 bound_to 2525
  116.6922  275.9630  309.3332 H   0  0  0  0  0  0  0  0  0  0  0  0  # atno 2572 bound_to 2558
  116.1309  279.2753  307.6615 H   0  0  0  0  0  0  0  0  0  0  0  0  # atno 2611 bound_to 2587
  119.8456  280.8272  302.6624 H   0  0  0  0  0  0  0  0  0  0  0  0  # atno 2619 bound_to 2595
  119.9022  282.4201  303.1185 H   0  0  0  0  0  0  0  0  0  0  0  0  # atno 2620 bound_to 2595
  119.7512  281.2336  304.2671 H   0  0  0  0  0  0  0  0  0  0  0  0  # atno 2621 bound_to 2595
  115.0113  276.8203  305.1586 H   0  0  0  0  0  0  0  0  0  0  0  0  # atno 2646 bound_to 2631
  112.7015  275.7845  306.9297 H   0  0  0  0  0  0  0  0  0  0  0  0  # atno 2679 bound_to 2660
  111.3590  277.4085  308.8435 H   0  0  0  0  0  0  0  0  0  0  0  0  # atno 2710 bound_to 2698
  110.4812  278.3157  305.3499 H   0  0  0  0  0  0  0  0  0  0  0  0  # atno 2736 bound_to 2721
  109.0996  275.3959  303.9800 H   0  0  0  0  0  0  0  0  0  0  0  0  # atno 2757 bound_to 2749
  107.4835  274.8074  306.7931 H   0  0  0  0  0  0  0  0  0  0  0  0  # atno 2782 bound_to 2776
  108.5900  274.9094  316.1941 LP  0  0  0  0  0  0  0  0  0  0  0  0  # atno 13465 bound_to 1382
  108.2405  273.2427  315.8781 LP  0  0  0  0  0  0  0  0  0  0  0  0  # atno 13466 bound_to 1382
  105.9714  276.4182  317.2393 LP  0  0  0  0  0  0  0  0  0  0  0  0  # atno 13467 bound_to 1385
  106.4056  274.8832  317.5882 LP  0  0  0  0  0  0  0  0  0  0  0  0  # atno 13468 bound_to 1385
  106.8147  275.2768  315.1150 LP  0  0  0  0  0  0  0  0  0  0  0  0  # atno 13469 bound_to 1409
  110.6613  277.5099  315.4610 LP  0  0  0  0  0  0  0  0  0  0  0  0  # atno 13470 bound_to 1412
  110.7309  276.0274  314.5679 LP  0  0  0  0  0  0  0  0  0  0  0  0  # atno 13471 bound_to 1412
  107.3216  276.7542  315.8798 LP  0  0  0  0  0  0  0  0  0  0  0  0  # atno 13472 bound_to 1452
  110.2255  277.5991  319.6254 LP  0  0  0  0  0  0  0  0  0  0  0  0  # atno 13473 bound_to 1455
  111.1618  277.6002  318.1682 LP  0  0  0  0  0  0  0  0  0  0  0  0  # atno 13474 bound_to 1455
  108.8443  276.8829  318.3573 LP  0  0  0  0  0  0  0  0  0  0  0  0  # atno 13479 bound_to 1477
  112.0211  274.5251  319.4266 LP  0  0  0  0  0  0  0  0  0  0  0  0  # atno 13480 bound_to 1480
  111.7301  272.8920  318.9286 LP  0  0  0  0  0  0  0  0  0  0  0  0  # atno 13481 bound_to 1480
  110.5055  274.2701  317.9594 LP  0  0  0  0  0  0  0  0  0  0  0  0  # atno 13482 bound_to 1510
  112.6001  274.4357  316.4614 LP  0  0  0  0  0  0  0  0  0  0  0  0  # atno 13483 bound_to 1551
  116.9821  275.6845  316.4659 LP  0  0  0  0  0  0  0  0  0  0  0  0  # atno 13484 bound_to 1554
  116.3223  274.0839  316.5174 LP  0  0  0  0  0  0  0  0  0  0  0  0  # atno 13485 bound_to 1554
  123.8135  278.3782  309.6431 LP  0  0  0  0  0  0  0  0  0  0  0  0  # atno 13496 bound_to 2319
  124.2160  280.0431  309.3858 LP  0  0  0  0  0  0  0  0  0  0  0  0  # atno 13497 bound_to 2319
  123.1175  276.6871  309.2881 LP  0  0  0  0  0  0  0  0  0  0  0  0  # atno 13498 bound_to 2428
  119.1993  276.6307  310.1757 LP  0  0  0  0  0  0  0  0  0  0  0  0  # atno 13499 bound_to 2431
  119.0203  278.3388  310.4001 LP  0  0  0  0  0  0  0  0  0  0  0  0  # atno 13500 bound_to 2431
  120.9459  277.8941  309.8868 LP  0  0  0  0  0  0  0  0  0  0  0  0  # atno 13501 bound_to 2467
  125.5652  275.3961  311.2716 LP  0  0  0  0  0  0  0  0  0  0  0  0  # atno 13504 bound_to 2287
  125.1624  277.0723  311.1038 LP  0  0  0  0  0  0  0  0  0  0  0  0  # atno 13505 bound_to 2287
  128.3356  277.7879  310.3610 LP  0  0  0  0  0  0  0  0  0  0  0  0  # atno 13506 bound_to 2316
  125.8297  278.2658  309.2688 LP  0  0  0  0  0  0  0  0  0  0  0  0  # atno 13507 bound_to 2351
  123.0086  278.0138  306.5535 LP  0  0  0  0  0  0  0  0  0  0  0  0  # atno 13508 bound_to 2354
  122.7344  276.3148  306.7496 LP  0  0  0  0  0  0  0  0  0  0  0  0  # atno 13509 bound_to 2354
  125.5023  276.1222  308.7937 LP  0  0  0  0  0  0  0  0  0  0  0  0  # atno 13510 bound_to 2383
  120.8323  275.7448  308.4166 LP  0  0  0  0  0  0  0  0  0  0  0  0  # atno 13511 bound_to 2386
  121.1192  274.1691  309.0760 LP  0  0  0  0  0  0  0  0  0  0  0  0  # atno 13512 bound_to 2386
  118.0594  279.2359  307.7234 LP  0  0  0  0  0  0  0  0  0  0  0  0  # atno 13513 bound_to 2470
  118.2127  278.3164  306.2635 LP  0  0  0  0  0  0  0  0  0  0  0  0  # atno 13514 bound_to 2470
  121.3553  277.7766  306.6631 LP  0  0  0  0  0  0  0  0  0  0  0  0  # atno 13517 bound_to 2497
  117.8879  277.1951  309.0034 LP  0  0  0  0  0  0  0  0  0  0  0  0  # atno 13518 bound_to 2558
  119.2299  274.8431  307.1300 LP  0  0  0  0  0  0  0  0  0  0  0  0  # atno 13519 bound_to 2525
  115.6926  277.5813  307.6534 LP  0  0  0  0  0  0  0  0  0  0  0  0  # atno 13520 bound_to 2587
  114.6846  276.0185  308.9503 LP  0  0  0  0  0  0  0  0  0  0  0  0  # atno 13521 bound_to 2528
  115.1939  274.3746  308.7550 LP  0  0  0  0  0  0  0  0  0  0  0  0  # atno 13522 bound_to 2528
  113.2541  277.6449  307.9996 LP  0  0  0  0  0  0  0  0  0  0  0  0  # atno 13523 bound_to 2561
  113.4071  278.8708  309.2137 LP  0  0  0  0  0  0  0  0  0  0  0  0  # atno 13524 bound_to 2561
  111.3657  276.7800  307.2119 LP  0  0  0  0  0  0  0  0  0  0  0  0  # atno 13525 bound_to 2698
  113.5807  274.7298  308.0080 LP  0  0  0  0  0  0  0  0  0  0  0  0  # atno 13526 bound_to 2660
  108.9999  275.2973  307.7914 LP  0  0  0  0  0  0  0  0  0  0  0  0  # atno 13527 bound_to 2663
  108.7816  276.5784  308.9364 LP  0  0  0  0  0  0  0  0  0  0  0  0  # atno 13528 bound_to 2663
  112.1695  276.9279  305.4257 LP  0  0  0  0  0  0  0  0  0  0  0  0  # atno 13529 bound_to 2590
  112.5090  278.5924  305.0879 LP  0  0  0  0  0  0  0  0  0  0  0  0  # atno 13530 bound_to 2590
  114.5690  276.6830  306.8454 LP  0  0  0  0  0  0  0  0  0  0  0  0  # atno 13531 bound_to 2631
  107.4460  277.8550  306.8773 LP  0  0  0  0  0  0  0  0  0  0  0  0  # atno 13532 bound_to 2701
  107.6991  279.1330  305.7360 LP  0  0  0  0  0  0  0  0  0  0  0  0  # atno 13533 bound_to 2701
  109.7216  276.9128  306.0728 LP  0  0  0  0  0  0  0  0  0  0  0  0  # atno 13534 bound_to 2721
  113.4469  272.2026  316.7929 LP  0  0  0  0  0  0  0  0  0  0  0  0  # atno 13535 bound_to 1513
  114.5187  273.4548  316.2606 LP  0  0  0  0  0  0  0  0  0  0  0  0  # atno 13536 bound_to 1513
  111.3199  273.5855  305.9862 LP  0  0  0  0  0  0  0  0  0  0  0  0  # atno 13537 bound_to 2634
  110.8554  275.2320  305.7152 LP  0  0  0  0  0  0  0  0  0  0  0  0  # atno 13538 bound_to 2634
  108.4884  273.3746  306.6988 LP  0  0  0  0  0  0  0  0  0  0  0  0  # atno 13539 bound_to 2776
  107.2840  272.5108  310.8992 LP  0  0  0  0  0  0  0  0  0  0  0  0  # atno 13540 bound_to 2779
  108.2900  271.1278  310.6251 LP  0  0  0  0  0  0  0  0  0  0  0  0  # atno 13541 bound_to 2779

> <Gold.Score>
     Fitness  S(hb_ext) S(vdw_ext)  S(hb_int)    S(int)      intcor
     18.80       2.47      12.81       0.00      -1.29      -0.76

> <Gold.Goldscore.Fitness>
18.8012

> <Gold.Goldscore.Internal.Vdw>
-1.6499

> <Gold.Goldscore.Internal.Torsion>
-0.4020

> <Gold.Goldscore.External.Vdw>
12.8118

> <Gold.Goldscore.Internal.HBond>
0.0000

> <Gold.Goldscore.External.HBond>
2.4719

> <Gold.Goldscore.Internal.Correction>
-0.7650

> <Gold.Goldscore.Hbonds>
donor molecule, donor type, donor heavy atom, donor atom, acceptor molecule, acceptor atom, score
      L1  H     8    22       P1  1412  0.02
      L1  H    10    23       P1  2704  0.41

> <Gold.Goldscore.Internal.Vdw.Weighted>
-1.6499

> <Gold.Goldscore.Internal.Torsion.Weighted>
-0.4020

> <Gold.Goldscore.External.Vdw.Weighted>
17.6162

> <Gold.Goldscore.Internal.HBond.Weighted>
0.0000

> <Gold.Goldscore.External.HBond.Weighted>
2.4719

> <Gold.Goldscore.Internal.Correction.Weighted>
-0.7650

> <Gold.Rescore>
     Score     S(PLP)   S(hbond)     S(cho)   S(metal)  DE(clash)   DE(tors)     intcor
     15.23     -15.67       0.36       0.00       0.00       1.44       0.04       ----

> <Gold.PLP.Fitness>
15.2342

> <Gold.PLP.PLP>
-15.6675

> <Gold.PLP.part.hbond>
-1.0000

> <Gold.PLP.part.metal>
0.0000

> <Gold.PLP.part.buried>
-2.4599

> <Gold.PLP.part.nonpolar>
-14.8181

> <Gold.PLP.part.repulsive>
1.3509

> <Gold.PLP.ligand.clash>
1.4391

> <Gold.PLP.ligand.torsion>
0.0353

> <Gold.PLP.Chemscore.Hbond>
0.3588

> <Gold.PLP.Chemscore.CHOScore>
0.0000

> <Gold.PLP.Chemscore.Metal>
0.0000

> <Gold.Chemscore.Hbonds>
donor molecule, donor type, donor heavy atom, donor atom, acceptor molecule, acceptor atom, score
      L1  H     8    22       P1  1412  0.83
      L1  H    10    23       P1  2704  1.00

> <Gold.PLP.Chemscore.Internal.Correction>
   9.000000E+99

