#       Name:                CT1002167954
#       Creating user name   hitesit
#       Creation time:       Sun Apr 16 22:53:10 2023


#       File generated by GOLD software.
#

@<TRIPOS>MOLECULE
CT1002167954|ligand_prepared|mol2|1|dock6
    29    30     1
SMALL
NO_CHARGES


@<TRIPOS>ATOM
      1 C1         110.3813 281.5237 312.4670 C.3            1 RES1               0.0000
      2 C2         110.6845 282.5739 313.5551 C.ar           1 RES1               0.0000
      3 C3         111.6741 281.3388 311.6779 C.2            1 RES1               0.0000
      4 C4         109.9159 280.2710 313.2011 C.2            1 RES1               0.0000
      5 C5         109.2629 281.9456 311.4858 C.3            1 RES1               0.0000
      6 C6         110.8825 283.9090 313.2158 C.ar           1 RES1               0.0000
      7 C7         110.7666 282.2239 314.9002 C.ar           1 RES1               0.0000
      8 N8         112.3788 280.1889 311.8802 N.am           1 RES1               0.0000
      9 O9         112.0892 282.2062 310.9193 O.2            1 RES1               0.0000
     10 N10        110.7051 279.1532 313.1274 N.am           1 RES1               0.0000
     11 O11        108.8813 280.2469 313.8564 O.2            1 RES1               0.0000
     12 C12        108.1258 282.7106 312.1445 C.3            1 RES1               0.0000
     13 C13        111.1499 284.8603 314.1862 C.ar           1 RES1               0.0000
     14 C14        111.0344 283.1768 315.8691 C.ar           1 RES1               0.0000
     15 C15        111.9307 279.0645 312.5257 C.2            1 RES1               0.0000
     16 C16        111.2256 284.4950 315.5134 C.ar           1 RES1               0.0000
     17 O17        112.6056 278.0393 312.5485 O.2            1 RES1               0.0000
     18 H18        109.7011 282.5724 310.6994 H              1 RES1               0.0000
     19 H19        108.8538 281.0464 311.0089 H              1 RES1               0.0000
     20 H20        110.8292 284.2147 312.1762 H              1 RES1               0.0000
     21 H21        110.6207 281.1926 315.2032 H              1 RES1               0.0000
     22 H22        113.3268 280.1626 311.5182 H              1 RES1               0.0000
     23 H23        110.3454 278.3089 313.5613 H              1 RES1               0.0000
     24 H24        107.3686 282.9824 311.4121 H              1 RES1               0.0000
     25 H25        107.6505 282.1073 312.9152 H              1 RES1               0.0000
     26 H26        108.4928 283.6242 312.6075 H              1 RES1               0.0000
     27 H27        111.3010 285.8961 313.9010 H              1 RES1               0.0000
     28 H28        111.0937 282.8847 316.9124 H              1 RES1               0.0000
     29 H29        111.4348 285.2405 316.2735 H              1 RES1               0.0000
@<TRIPOS>BOND
    1    1    2 1     
    2    1    3 1     
    3    1    4 1     
    4    1    5 1     
    5    2    6 ar    
    6    2    7 ar    
    7    3    8 1     
    8    3    9 2     
    9    4   10 1     
   10    4   11 2     
   11    5   12 1     
   12    5   18 1     
   13    5   19 1     
   14    6   13 ar    
   15    6   20 1     
   16    7   14 ar    
   17    7   21 1     
   18    8   15 1     
   19    8   22 1     
   20   10   15 1     
   21   10   23 1     
   22   12   24 1     
   23   12   25 1     
   24   12   26 1     
   25   13   16 ar    
   26   13   27 1     
   27   14   16 ar    
   28   14   28 1     
   29   15   17 2     
   30   16   29 1     
@<TRIPOS>SUBSTRUCTURE
      1 RES1           1
@<TRIPOS>SET
DONOR_HYDROGENS      STATIC     ATOMS    <user>   **** ""
2 22 23
ATOM$RED        STATIC     ATOMS    COLORGROUP SYSTEM
2 22 23
@<TRIPOS>COMMENT
> <Gold.Version>
2022.3.0

> <Gold.Id.Protein>
unknown|5adg_clean|pdb

> <Gold.Protein.RotatedTorsions>
[ 1394 1385 1383 1380 ] final -145.16 input   60.03 | X-H torsion
[ 1425 1409 1410 1411 ] final   -7.77 input  129.35 | X-H torsion
[ 1462 1452 1453 1454 ] final   -0.42 input  108.99 | X-H torsion
[ 1488 1477 1478 1479 ] final  127.05 input  100.07 | X-H torsion
[ 1521 1510 1511 1512 ] final   44.81 input  113.76 | X-H torsion
[ 1570 1551 1552 1553 ] final -172.48 input  123.58 | X-H torsion
[ 1707 1683 1682 1681 ] final -129.62 input   60.00 | X-H torsion
[ 2445 2428 2429 2430 ] final  104.83 input  119.94 | X-H torsion
[ 2478 2467 2468 2469 ] final    6.57 input  117.54 | X-H torsion
[ 2333 2316 2317 2318 ] final -111.23 input  118.58 | X-H torsion
[ 2366 2351 2352 2353 ] final   40.44 input  116.99 | X-H torsion
[ 2407 2383 2384 2385 ] final  -49.73 input  115.65 | X-H torsion
[ 2510 2497 2498 2499 ] final   39.07 input  121.55 | X-H torsion
[ 2572 2558 2559 2560 ] final -123.07 input  118.05 | X-H torsion
[ 2541 2525 2526 2527 ] final -148.87 input  116.25 | X-H torsion
[ 2611 2587 2588 2589 ] final    7.09 input  123.81 | X-H torsion
[ 2710 2698 2699 2700 ] final  100.77 input  119.89 | X-H torsion
[ 2679 2660 2661 2662 ] final  105.25 input  116.13 | X-H torsion
[ 2646 2631 2632 2633 ] final  -22.37 input  117.28 | X-H torsion
[ 2736 2721 2722 2723 ] final   15.45 input   88.34 | X-H torsion
[ 2782 2776 2777 2778 ] final  121.64 input -114.77 | X-H torsion
[ 2619 2595 2594 2593 ] final -139.70 input   60.00 | X-H torsion
[ 1697 1675 1676 1677 ] final  129.90 input  120.12 | X-H torsion
[ 1635 1616 1617 1618 ] final  178.98 input  110.97 | X-H torsion
[ 2757 2749 2750 2751 ] final -129.31 input   47.81 | X-H torsion
[ 13465 1382 1381 1380 ] final  -99.73 input    0.00 | X-H torsion
[ 13470 1412 1411 1410 ] final   21.44 input    0.00 | X-H torsion
[ 13473 1455 1454 1453 ] final   70.89 input   -0.00 | X-H torsion
[ 13480 1480 1479 1478 ] final   -0.79 input   -0.00 | X-H torsion
[ 13484 1554 1553 1552 ] final  131.22 input    0.00 | X-H torsion
[ 13496 2319 2318 2317 ] final  -89.59 input   -0.00 | X-H torsion
[ 13499 2431 2430 2429 ] final   14.48 input    0.00 | X-H torsion
[ 13504 2287 2286 2285 ] final   26.81 input   -0.00 | X-H torsion
[ 13508 2354 2353 2352 ] final  141.73 input    0.00 | X-H torsion
[ 13511 2386 2385 2384 ] final   58.82 input    0.00 | X-H torsion
[ 13513 2470 2469 2468 ] final  -67.58 input   -0.00 | X-H torsion
[ 13521 2528 2527 2526 ] final -163.29 input    0.00 | X-H torsion
[ 13523 2561 2560 2559 ] final   44.93 input   -0.00 | X-H torsion
[ 13527 2663 2662 2661 ] final -150.62 input    0.00 | X-H torsion
[ 13529 2590 2589 2588 ] final -160.59 input   -0.00 | X-H torsion
[ 13532 2701 2700 2699 ] final  -13.88 input    0.00 | X-H torsion
[ 13535 1513 1512 1511 ] final  118.36 input    0.00 | X-H torsion
[ 13537 2634 2633 2632 ] final  169.09 input    0.00 | X-H torsion
[ 13540 2779 2778 2777 ] final   28.69 input    0.00 | X-H torsion

> <Gold.Protein.ActiveResidues>
 THR355  LYS356  ASP357  GLN358  LEU359  PHE360  PRO361  LEU362  ALA363  LYS364 
 ASP368  PHE377  GLY378  HIS382  MET383  GLU384  ARG385  LEU386  GLU387  GLU388 
 VAL389  ASN390  LYS391  GLU392  ILE393  ASP394  THR395  THR396  SER397 

> <Gold.Protein.RotatedAtoms>
  105.0331  275.6978  318.2056 H   0  0  0  0  0  0  0  0  0  0  0  0  # atno 1394 bound_to 1385
  106.8197  275.3178  315.1355 H   0  0  0  0  0  0  0  0  0  0  0  0  # atno 1425 bound_to 1409
  108.2910  276.2924  315.7967 H   0  0  0  0  0  0  0  0  0  0  0  0  # atno 1462 bound_to 1452
  107.7316  275.8977  317.9856 H   0  0  0  0  0  0  0  0  0  0  0  0  # atno 1488 bound_to 1477
  110.2809  275.0571  316.8655 H   0  0  0  0  0  0  0  0  0  0  0  0  # atno 1521 bound_to 1510
  112.1199  274.9781  314.9286 H   0  0  0  0  0  0  0  0  0  0  0  0  # atno 1570 bound_to 1551
  114.4550  273.9476  319.7179 H   0  0  0  0  0  0  0  0  0  0  0  0  # atno 1635 bound_to 1616
  117.6043  274.2813  316.5064 H   0  0  0  0  0  0  0  0  0  0  0  0  # atno 1697 bound_to 1675
  122.9412  279.0704  319.8058 H   0  0  0  0  0  0  0  0  0  0  0  0  # atno 1707 bound_to 1683
  122.1611  277.6159  319.6576 H   0  0  0  0  0  0  0  0  0  0  0  0  # atno 1708 bound_to 1683
  123.4229  277.9861  318.6484 H   0  0  0  0  0  0  0  0  0  0  0  0  # atno 1709 bound_to 1683
  127.3524  277.2509  311.6938 H   0  0  0  0  0  0  0  0  0  0  0  0  # atno 2333 bound_to 2316
  126.5372  277.5196  308.9707 H   0  0  0  0  0  0  0  0  0  0  0  0  # atno 2366 bound_to 2351
  124.4413  276.8429  307.7572 H   0  0  0  0  0  0  0  0  0  0  0  0  # atno 2407 bound_to 2383
  123.7892  276.6786  310.1960 H   0  0  0  0  0  0  0  0  0  0  0  0  # atno 2445 bound_to 2428
  121.4400  277.5345  309.1215 H   0  0  0  0  0  0  0  0  0  0  0  0  # atno 2478 bound_to 2467
  120.5346  277.1786  307.8664 H   0  0  0  0  0  0  0  0  0  0  0  0  # atno 2510 bound_to 2497
  119.3503  274.7569  307.2542 H   0  0  0  0  0  0  0  0  0  0  0  0  # atno 2541 bound_to 2525
  117.0084  276.1105  309.8542 H   0  0  0  0  0  0  0  0  0  0  0  0  # atno 2572 bound_to 2558
  115.5842  277.5893  307.7015 H   0  0  0  0  0  0  0  0  0  0  0  0  # atno 2611 bound_to 2587
  119.8446  282.3189  303.8354 H   0  0  0  0  0  0  0  0  0  0  0  0  # atno 2619 bound_to 2595
  119.7518  280.6637  303.8187 H   0  0  0  0  0  0  0  0  0  0  0  0  # atno 2620 bound_to 2595
  119.9026  281.5001  302.3948 H   0  0  0  0  0  0  0  0  0  0  0  0  # atno 2621 bound_to 2595
  114.0465  277.0889  306.3670 H   0  0  0  0  0  0  0  0  0  0  0  0  # atno 2646 bound_to 2631
  113.6336  275.6485  308.0909 H   0  0  0  0  0  0  0  0  0  0  0  0  # atno 2679 bound_to 2660
  112.0258  277.4801  307.5791 H   0  0  0  0  0  0  0  0  0  0  0  0  # atno 2710 bound_to 2698
  110.0297  276.7359  305.9224 H   0  0  0  0  0  0  0  0  0  0  0  0  # atno 2736 bound_to 2721
  108.5067  275.6327  304.1463 H   0  0  0  0  0  0  0  0  0  0  0  0  # atno 2757 bound_to 2749
  107.1560  273.9247  306.4803 H   0  0  0  0  0  0  0  0  0  0  0  0  # atno 2782 bound_to 2776
  108.3703  274.8091  316.4949 LP  0  0  0  0  0  0  0  0  0  0  0  0  # atno 13465 bound_to 1382
  108.4602  273.3429  315.5773 LP  0  0  0  0  0  0  0  0  0  0  0  0  # atno 13466 bound_to 1382
  106.1194  276.3305  317.1724 LP  0  0  0  0  0  0  0  0  0  0  0  0  # atno 13467 bound_to 1385
  106.2921  274.7966  317.7052 LP  0  0  0  0  0  0  0  0  0  0  0  0  # atno 13468 bound_to 1385
  106.3944  275.0276  313.4635 LP  0  0  0  0  0  0  0  0  0  0  0  0  # atno 13469 bound_to 1409
  110.7480  276.6425  314.1593 LP  0  0  0  0  0  0  0  0  0  0  0  0  # atno 13470 bound_to 1412
  110.6442  276.8948  315.8697 LP  0  0  0  0  0  0  0  0  0  0  0  0  # atno 13471 bound_to 1412
  107.7019  277.7760  315.0749 LP  0  0  0  0  0  0  0  0  0  0  0  0  # atno 13472 bound_to 1452
  110.2039  278.1517  319.3501 LP  0  0  0  0  0  0  0  0  0  0  0  0  # atno 13473 bound_to 1455
  111.1833  277.0476  318.4435 LP  0  0  0  0  0  0  0  0  0  0  0  0  # atno 13474 bound_to 1455
  109.3108  276.6013  317.7291 LP  0  0  0  0  0  0  0  0  0  0  0  0  # atno 13479 bound_to 1477
  111.5414  274.0218  319.9126 LP  0  0  0  0  0  0  0  0  0  0  0  0  # atno 13480 bound_to 1480
  112.2098  273.3953  318.4427 LP  0  0  0  0  0  0  0  0  0  0  0  0  # atno 13481 bound_to 1480
  109.6911  273.6248  317.6771 LP  0  0  0  0  0  0  0  0  0  0  0  0  # atno 13482 bound_to 1510
  112.4825  274.7892  316.6239 LP  0  0  0  0  0  0  0  0  0  0  0  0  # atno 13483 bound_to 1551
  116.9912  275.5697  316.8980 LP  0  0  0  0  0  0  0  0  0  0  0  0  # atno 13484 bound_to 1554
  116.3132  274.1987  316.0853 LP  0  0  0  0  0  0  0  0  0  0  0  0  # atno 13485 bound_to 1554
  123.8253  278.4083  309.7794 LP  0  0  0  0  0  0  0  0  0  0  0  0  # atno 13496 bound_to 2319
  124.2043  280.0131  309.2495 LP  0  0  0  0  0  0  0  0  0  0  0  0  # atno 13497 bound_to 2319
  122.6703  275.4835  309.5818 LP  0  0  0  0  0  0  0  0  0  0  0  0  # atno 13498 bound_to 2428
  119.2336  277.0601  311.0325 LP  0  0  0  0  0  0  0  0  0  0  0  0  # atno 13499 bound_to 2431
  118.9861  277.9094  309.5434 LP  0  0  0  0  0  0  0  0  0  0  0  0  # atno 13500 bound_to 2431
  121.8660  278.9817  310.0060 LP  0  0  0  0  0  0  0  0  0  0  0  0  # atno 13501 bound_to 2467
  125.5441  275.5638  311.7053 LP  0  0  0  0  0  0  0  0  0  0  0  0  # atno 13504 bound_to 2287
  125.1835  276.9047  310.6700 LP  0  0  0  0  0  0  0  0  0  0  0  0  # atno 13505 bound_to 2287
  128.2468  277.6972  310.2587 LP  0  0  0  0  0  0  0  0  0  0  0  0  # atno 13506 bound_to 2316
  126.5440  279.2312  308.6194 LP  0  0  0  0  0  0  0  0  0  0  0  0  # atno 13507 bound_to 2351
  122.8480  276.3108  306.5067 LP  0  0  0  0  0  0  0  0  0  0  0  0  # atno 13508 bound_to 2354
  122.8950  278.0178  306.7964 LP  0  0  0  0  0  0  0  0  0  0  0  0  # atno 13509 bound_to 2354
  125.7240  275.8238  308.3622 LP  0  0  0  0  0  0  0  0  0  0  0  0  # atno 13510 bound_to 2383
  121.1829  274.1270  308.8814 LP  0  0  0  0  0  0  0  0  0  0  0  0  # atno 13511 bound_to 2386
  120.7687  275.7869  308.6112 LP  0  0  0  0  0  0  0  0  0  0  0  0  # atno 13512 bound_to 2386
  117.9051  278.5885  307.8068 LP  0  0  0  0  0  0  0  0  0  0  0  0  # atno 13513 bound_to 2470
  118.3669  278.9637  306.1801 LP  0  0  0  0  0  0  0  0  0  0  0  0  # atno 13514 bound_to 2470
  120.8040  278.2681  306.5246 LP  0  0  0  0  0  0  0  0  0  0  0  0  # atno 13517 bound_to 2497
  117.5799  277.0515  308.4961 LP  0  0  0  0  0  0  0  0  0  0  0  0  # atno 13518 bound_to 2558
  119.0154  276.3036  308.0002 LP  0  0  0  0  0  0  0  0  0  0  0  0  # atno 13519 bound_to 2525
  116.2227  279.2161  307.6146 LP  0  0  0  0  0  0  0  0  0  0  0  0  # atno 13520 bound_to 2587
  114.6905  276.0256  308.8244 LP  0  0  0  0  0  0  0  0  0  0  0  0  # atno 13521 bound_to 2528
  115.1881  274.3676  308.8810 LP  0  0  0  0  0  0  0  0  0  0  0  0  # atno 13522 bound_to 2528
  113.4201  278.7275  309.3288 LP  0  0  0  0  0  0  0  0  0  0  0  0  # atno 13523 bound_to 2561
  113.2411  277.7882  307.8846 LP  0  0  0  0  0  0  0  0  0  0  0  0  # atno 13524 bound_to 2561
  110.7158  276.7102  308.4442 LP  0  0  0  0  0  0  0  0  0  0  0  0  # atno 13525 bound_to 2698
  112.6658  274.8632  306.8683 LP  0  0  0  0  0  0  0  0  0  0  0  0  # atno 13526 bound_to 2660
  108.7493  276.4941  307.7154 LP  0  0  0  0  0  0  0  0  0  0  0  0  # atno 13527 bound_to 2663
  109.0322  275.3816  309.0124 LP  0  0  0  0  0  0  0  0  0  0  0  0  # atno 13528 bound_to 2663
  112.1490  276.9530  305.5065 LP  0  0  0  0  0  0  0  0  0  0  0  0  # atno 13529 bound_to 2590
  112.5294  278.5673  305.0070 LP  0  0  0  0  0  0  0  0  0  0  0  0  # atno 13530 bound_to 2590
  115.5063  276.4220  305.6713 LP  0  0  0  0  0  0  0  0  0  0  0  0  # atno 13531 bound_to 2631
  107.6183  278.6663  307.1542 LP  0  0  0  0  0  0  0  0  0  0  0  0  # atno 13532 bound_to 2701
  107.5268  278.3218  305.4592 LP  0  0  0  0  0  0  0  0  0  0  0  0  # atno 13533 bound_to 2701
  110.1569  278.4360  305.5208 LP  0  0  0  0  0  0  0  0  0  0  0  0  # atno 13534 bound_to 2721
  114.2821  272.9010  315.7173 LP  0  0  0  0  0  0  0  0  0  0  0  0  # atno 13535 bound_to 1513
  113.6835  272.7564  317.3362 LP  0  0  0  0  0  0  0  0  0  0  0  0  # atno 13536 bound_to 1513
  110.7758  274.3074  306.6523 LP  0  0  0  0  0  0  0  0  0  0  0  0  # atno 13537 bound_to 2634
  111.3995  274.5101  305.0492 LP  0  0  0  0  0  0  0  0  0  0  0  0  # atno 13538 bound_to 2634
  108.8031  274.2228  306.9994 LP  0  0  0  0  0  0  0  0  0  0  0  0  # atno 13539 bound_to 2776
  106.9658  272.0530  310.6173 LP  0  0  0  0  0  0  0  0  0  0  0  0  # atno 13540 bound_to 2779
  108.6082  271.5855  310.9071 LP  0  0  0  0  0  0  0  0  0  0  0  0  # atno 13541 bound_to 2779

> <Gold.Score>
     Fitness  S(hb_ext) S(vdw_ext)  S(hb_int)    S(int)      intcor
     17.92       6.20      11.28       0.00      -3.78      -0.78

> <Gold.Goldscore.Fitness>
17.9239

> <Gold.Goldscore.Internal.Vdw>
-3.4699

> <Gold.Goldscore.Internal.Torsion>
-1.0860

> <Gold.Goldscore.External.Vdw>
11.2762

> <Gold.Goldscore.Internal.HBond>
0.0000

> <Gold.Goldscore.External.HBond>
6.1998

> <Gold.Goldscore.Internal.Correction>
-0.7752

> <Gold.Goldscore.Hbonds>
donor molecule, donor type, donor heavy atom, donor atom, acceptor molecule, acceptor atom, score
      L1  H     8    22       P1  2565  1.00
      L1  H    10    23       P1  1412  0.10

> <Gold.Goldscore.Internal.Vdw.Weighted>
-3.4699

> <Gold.Goldscore.Internal.Torsion.Weighted>
-1.0860

> <Gold.Goldscore.External.Vdw.Weighted>
15.5048

> <Gold.Goldscore.Internal.HBond.Weighted>
0.0000

> <Gold.Goldscore.External.HBond.Weighted>
6.1998

> <Gold.Goldscore.Internal.Correction.Weighted>
-0.7752

> <Gold.Rescore>
     Score     S(PLP)   S(hbond)     S(cho)   S(metal)  DE(clash)   DE(tors)     intcor
     12.59     -13.03       1.00       0.00       0.00       1.24       1.10       ----

> <Gold.PLP.Fitness>
12.5933

> <Gold.PLP.PLP>
-13.0309

> <Gold.PLP.part.hbond>
-0.8401

> <Gold.PLP.part.metal>
0.0000

> <Gold.PLP.part.buried>
-4.4610

> <Gold.PLP.part.nonpolar>
-9.9177

> <Gold.PLP.part.repulsive>
2.3408

> <Gold.PLP.ligand.clash>
1.2395

> <Gold.PLP.ligand.torsion>
1.0990

> <Gold.PLP.Chemscore.Hbond>
1.0000

> <Gold.PLP.Chemscore.CHOScore>
0.0000

> <Gold.PLP.Chemscore.Metal>
0.0000

> <Gold.Chemscore.Hbonds>
donor molecule, donor type, donor heavy atom, donor atom, acceptor molecule, acceptor atom, score
      L1  H     8    22       P1  2565  0.62
      L1  H    10    23       P1  1412  0.59

> <Gold.PLP.Chemscore.Internal.Correction>
   9.000000E+99

