#       Name:                CT1002167954
#       Creating user name   hitesit
#       Creation time:       Sun Apr 16 23:07:43 2023


#       File generated by GOLD software.
#

@<TRIPOS>MOLECULE
CT1002167954|ligand_prepared|mol2|1|dock6
    29    30     1
SMALL
NO_CHARGES


@<TRIPOS>ATOM
      1 C1         248.6550  -3.7899  37.3572 C.3            1 RES1               0.0000
      2 C2         248.2362  -2.6040  36.4644 C.ar           1 RES1               0.0000
      3 C3         248.7660  -3.2398  38.7761 C.2            1 RES1               0.0000
      4 C4         247.5773  -4.8547  37.1852 C.2            1 RES1               0.0000
      5 C5         250.0132  -4.4174  36.9660 C.3            1 RES1               0.0000
      6 C6         248.5738  -2.5794  35.1146 C.ar           1 RES1               0.0000
      7 C7         247.5111  -1.5306  36.9749 C.ar           1 RES1               0.0000
      8 N8         247.7835  -3.5727  39.6614 N.am           1 RES1               0.0000
      9 O9         249.6805  -2.4931  39.1022 O.2            1 RES1               0.0000
     10 N10        246.8029  -5.1658  38.2721 N.am           1 RES1               0.0000
     11 O11        247.3808  -5.4152  36.1140 O.2            1 RES1               0.0000
     12 C12        250.4942  -5.4892  37.9313 C.3            1 RES1               0.0000
     13 C13        248.1976  -1.5215  34.3036 C.ar           1 RES1               0.0000
     14 C14        247.1360  -0.4735  36.1622 C.ar           1 RES1               0.0000
     15 C15        246.8367  -4.5512  39.4941 C.2            1 RES1               0.0000
     16 C16        247.4782  -0.4682  34.8267 C.ar           1 RES1               0.0000
     17 O17        246.0706  -4.8499  40.4057 O.2            1 RES1               0.0000
     18 H18        249.9236  -4.8579  35.9653 H              1 RES1               0.0000
     19 H19        250.7680  -3.6228  36.9161 H              1 RES1               0.0000
     20 H20        249.1418  -3.3983  34.6857 H              1 RES1               0.0000
     21 H21        247.2318  -1.5130  38.0229 H              1 RES1               0.0000
     22 H22        247.7496  -3.0454  40.5281 H              1 RES1               0.0000
     23 H23        246.1398  -5.9261  38.1598 H              1 RES1               0.0000
     24 H24        251.4509  -5.8962  37.6104 H              1 RES1               0.0000
     25 H25        250.6186  -5.0797  38.9316 H              1 RES1               0.0000
     26 H26        249.7792  -6.3075  37.9865 H              1 RES1               0.0000
     27 H27        248.4705  -1.5214  33.2535 H              1 RES1               0.0000
     28 H28        246.5704   0.3536  36.5783 H              1 RES1               0.0000
     29 H29        247.1832   0.3603  34.1911 H              1 RES1               0.0000
@<TRIPOS>BOND
    1    1    2 1     
    2    1    3 1     
    3    1    4 1     
    4    1    5 1     
    5    2    6 ar    
    6    2    7 ar    
    7    3    8 1     
    8    3    9 2     
    9    4   10 1     
   10    4   11 2     
   11    5   12 1     
   12    5   18 1     
   13    5   19 1     
   14    6   13 ar    
   15    6   20 1     
   16    7   14 ar    
   17    7   21 1     
   18    8   15 1     
   19    8   22 1     
   20   10   15 1     
   21   10   23 1     
   22   12   24 1     
   23   12   25 1     
   24   12   26 1     
   25   13   16 ar    
   26   13   27 1     
   27   14   16 ar    
   28   14   28 1     
   29   15   17 2     
   30   16   29 1     
@<TRIPOS>SUBSTRUCTURE
      1 RES1           1
@<TRIPOS>SET
DONOR_HYDROGENS      STATIC     ATOMS    <user>   **** ""
2 22 23
ATOM$RED        STATIC     ATOMS    COLORGROUP SYSTEM
2 22 23
@<TRIPOS>COMMENT
> <Gold.Version>
2022.3.0

> <Gold.Id.Protein>
unknown|4d1n_clean|pdb

> <Gold.Protein.RotatedTorsions>
[ 6614 6573 6574 6575 ] final   -7.34 input  116.02 | X-H torsion
[ 6700 6661 6662 6663 ] final -132.59 input  125.25 | X-H torsion
[ 8066 8025 8026 8027 ] final   -5.24 input   31.90 | X-H torsion
[ 8137 8104 8105 8106 ] final  -44.00 input   91.64 | X-H torsion
[ 8200 8166 8167 8168 ] final -162.32 input   70.29 | X-H torsion
[ 8280 8242 8243 8244 ] final -109.47 input   89.64 | X-H torsion
[ 8333 8313 8314 8315 ] final -126.68 input   85.58 | X-H torsion
[ 9580 9544 9543 9541 ] final -170.48 input   60.01 | X-H torsion
[ 10226 10185 10186 10187 ] final  162.13 input   40.00 | X-H torsion
[ 7988 7940 7941 7942 ] final  155.28 input   82.26 | X-H torsion
[ 7908 7887 7888 7889 ] final -133.41 input   90.27 | X-H torsion
[ 7912 7892 7891 7888 ] final   13.31 input   59.97 | X-H torsion
[ 6852 6804 6805 6806 ] final   32.34 input  117.17 | X-H torsion
[ 27193 6336 6335 6334 ] final  -96.44 input   -0.00 | X-H torsion
[ 27195 6500 6499 6498 ] final  -25.20 input    0.00 | X-H torsion
[ 27198 6576 6575 6574 ] final -170.25 input   -0.00 | X-H torsion
[ 27201 7890 7889 7888 ] final  112.42 input    0.00 | X-H torsion
[ 27204 8028 8027 8026 ] final  -53.93 input   -0.00 | X-H torsion
[ 27207 8107 8106 8105 ] final  -36.94 input    0.00 | X-H torsion
[ 27210 8169 8168 8167 ] final  178.56 input    0.00 | X-H torsion
[ 27213 10098 10097 10096 ] final   36.75 input    0.00 | X-H torsion
[ 27215 10188 10187 10186 ] final -112.54 input   -0.00 | X-H torsion
[ 27217 8245 8244 8243 ] final  155.53 input   -0.00 | X-H torsion
[ 27224 7943 7942 7941 ] final   36.12 input    0.00 | X-H torsion
[ 27226 7818 7817 7816 ] final   80.13 input    0.00 | X-H torsion

> <Gold.Protein.ActiveResidues>
 ASP403  THR404  LEU406  ILE407  TYR408  ALA410  LYS411  TRP414  TRP426  SER427 
 LYS428  LEU429  GLN430  VAL431  PHE432  ASP433  TYR453  SER462  ALA463  ILE464 
 ILE466 

> <Gold.Protein.RotatedAtoms>
  240.9099   -0.8315   49.8709 H   0  0  0  0  0  0  0  0  0  0  0  0  # atno 6614 bound_to 6573
  240.0724   -2.3665   47.3822 H   0  0  0  0  0  0  0  0  0  0  0  0  # atno 6700 bound_to 6661
  239.9752    2.1686   45.1829 H   0  0  0  0  0  0  0  0  0  0  0  0  # atno 6852 bound_to 6804
  240.0052   -0.0287   37.9660 H   0  0  0  0  0  0  0  0  0  0  0  0  # atno 7908 bound_to 7887
  240.4753   -3.4890   36.7660 H   0  0  0  0  0  0  0  0  0  0  0  0  # atno 7912 bound_to 7892
  242.0135   -2.6836   36.9892 H   0  0  0  0  0  0  0  0  0  0  0  0  # atno 7988 bound_to 7940
  245.1988   -2.9760   39.8446 H   0  0  0  0  0  0  0  0  0  0  0  0  # atno 8066 bound_to 8025
  246.8808   -1.0674   41.9291 H   0  0  0  0  0  0  0  0  0  0  0  0  # atno 8137 bound_to 8104
  247.6169   -1.4176   44.2231 H   0  0  0  0  0  0  0  0  0  0  0  0  # atno 8200 bound_to 8166
  249.3079   -1.0637   47.1966 H   0  0  0  0  0  0  0  0  0  0  0  0  # atno 8280 bound_to 8242
  249.7158   -0.3004   50.0770 H   0  0  0  0  0  0  0  0  0  0  0  0  # atno 8333 bound_to 8313
  251.3704   -3.6289   39.5184 H   0  0  0  0  0  0  0  0  0  0  0  0  # atno 9580 bound_to 9544
  248.9301    2.7493   42.9435 H   0  0  0  0  0  0  0  0  0  0  0  0  # atno 10226 bound_to 10185
  241.7652   -2.7048   51.5223 LP  0  0  0  0  0  0  0  0  0  0  0  0  # atno 27193 bound_to 6336
  242.9633   -3.8312   50.9784 LP  0  0  0  0  0  0  0  0  0  0  0  0  # atno 27194 bound_to 6336
  241.2477    1.6924   49.4982 LP  0  0  0  0  0  0  0  0  0  0  0  0  # atno 27195 bound_to 6500
  242.2350    0.7539   48.4284 LP  0  0  0  0  0  0  0  0  0  0  0  0  # atno 27196 bound_to 6500
  242.3616   -1.7065   50.2986 LP  0  0  0  0  0  0  0  0  0  0  0  0  # atno 27197 bound_to 6573
  240.0454   -0.0884   45.9741 LP  0  0  0  0  0  0  0  0  0  0  0  0  # atno 27198 bound_to 6576
  241.7621   -0.3085   46.0400 LP  0  0  0  0  0  0  0  0  0  0  0  0  # atno 27199 bound_to 6576
  239.8653   -1.2249   48.6931 LP  0  0  0  0  0  0  0  0  0  0  0  0  # atno 27200 bound_to 6661
  242.2025   -4.5443   39.2448 LP  0  0  0  0  0  0  0  0  0  0  0  0  # atno 27201 bound_to 7890
  242.1780   -3.2973   40.4466 LP  0  0  0  0  0  0  0  0  0  0  0  0  # atno 27202 bound_to 7890
  244.5306   -1.7115   38.8358 LP  0  0  0  0  0  0  0  0  0  0  0  0  # atno 27203 bound_to 8025
  244.9799   -2.0014   42.8656 LP  0  0  0  0  0  0  0  0  0  0  0  0  # atno 27204 bound_to 8028
  246.0550   -3.3322   42.5950 LP  0  0  0  0  0  0  0  0  0  0  0  0  # atno 27205 bound_to 8028
  248.1083   -1.5557   40.7863 LP  0  0  0  0  0  0  0  0  0  0  0  0  # atno 27206 bound_to 8104
  249.6762    0.1573   43.2718 LP  0  0  0  0  0  0  0  0  0  0  0  0  # atno 27207 bound_to 8107
  248.4340    0.6957   44.3521 LP  0  0  0  0  0  0  0  0  0  0  0  0  # atno 27208 bound_to 8107
  248.5556   -2.5227   45.1987 LP  0  0  0  0  0  0  0  0  0  0  0  0  # atno 27209 bound_to 8166
  249.5272   -2.5115   48.5321 LP  0  0  0  0  0  0  0  0  0  0  0  0  # atno 27210 bound_to 8169
  248.1029   -2.9012   47.6268 LP  0  0  0  0  0  0  0  0  0  0  0  0  # atno 27211 bound_to 8169
  249.7026    0.6367   47.2113 LP  0  0  0  0  0  0  0  0  0  0  0  0  # atno 27212 bound_to 8242
  250.0961   -0.8097   39.1959 LP  0  0  0  0  0  0  0  0  0  0  0  0  # atno 27213 bound_to 10098
  249.2839   -0.3365   40.6506 LP  0  0  0  0  0  0  0  0  0  0  0  0  # atno 27214 bound_to 10098
  249.2884    1.8615   47.0742 LP  0  0  0  0  0  0  0  0  0  0  0  0  # atno 27215 bound_to 10188
  250.3645    1.5318   45.7577 LP  0  0  0  0  0  0  0  0  0  0  0  0  # atno 27216 bound_to 10188
  249.1545    1.6144   50.6104 LP  0  0  0  0  0  0  0  0  0  0  0  0  # atno 27217 bound_to 8245
  250.2680    1.9569   49.3287 LP  0  0  0  0  0  0  0  0  0  0  0  0  # atno 27218 bound_to 8245
  250.7465   -1.4146   50.9450 LP  0  0  0  0  0  0  0  0  0  0  0  0  # atno 27219 bound_to 8313
  251.4616   -4.8378   40.6045 LP  0  0  0  0  0  0  0  0  0  0  0  0  # atno 27220 bound_to 9544
  252.2443   -4.9588   39.1764 LP  0  0  0  0  0  0  0  0  0  0  0  0  # atno 27221 bound_to 9544
  250.1630    2.0755   43.9822 LP  0  0  0  0  0  0  0  0  0  0  0  0  # atno 27222 bound_to 10185
  242.4188   -1.7106   38.3865 LP  0  0  0  0  0  0  0  0  0  0  0  0  # atno 27223 bound_to 7940
  245.0074   -0.5017   36.8901 LP  0  0  0  0  0  0  0  0  0  0  0  0  # atno 27224 bound_to 7943
  246.4297   -0.6356   37.8693 LP  0  0  0  0  0  0  0  0  0  0  0  0  # atno 27225 bound_to 7943
  240.4352    0.8205   39.9532 LP  0  0  0  0  0  0  0  0  0  0  0  0  # atno 27226 bound_to 7818
  242.0484    0.3441   39.5400 LP  0  0  0  0  0  0  0  0  0  0  0  0  # atno 27227 bound_to 7818
  240.7685   -1.0195   36.7506 LP  0  0  0  0  0  0  0  0  0  0  0  0  # atno 27228 bound_to 7887
  238.8970   -3.3403   36.3982 LP  0  0  0  0  0  0  0  0  0  0  0  0  # atno 27229 bound_to 7892
  239.4379   -4.6794   37.1604 LP  0  0  0  0  0  0  0  0  0  0  0  0  # atno 27230 bound_to 7892

> <Gold.Score>
     Fitness  S(hb_ext) S(vdw_ext)  S(hb_int)    S(int)      intcor
     37.29       3.77      25.35       0.00      -1.33      -0.76

> <Gold.Goldscore.Fitness>
37.2915

> <Gold.Goldscore.Internal.Vdw>
-1.6540

> <Gold.Goldscore.Internal.Torsion>
-0.4291

> <Gold.Goldscore.External.Vdw>
25.3466

> <Gold.Goldscore.Internal.HBond>
0.0000

> <Gold.Goldscore.External.HBond>
3.7651

> <Gold.Goldscore.Internal.Correction>
-0.7579

> <Gold.Goldscore.Hbonds>
donor molecule, donor type, donor heavy atom, donor atom, acceptor molecule, acceptor atom, score
      P1  H  8025  8066       L1    17  0.16
      P1  H  9544  9580       L1     9  0.01
      L1  H     8    22       P1  8104  0.57

> <Gold.Goldscore.Internal.Vdw.Weighted>
-1.6540

> <Gold.Goldscore.Internal.Torsion.Weighted>
-0.4291

> <Gold.Goldscore.External.Vdw.Weighted>
34.8516

> <Gold.Goldscore.Internal.HBond.Weighted>
0.0000

> <Gold.Goldscore.External.HBond.Weighted>
3.7651

> <Gold.Goldscore.Internal.Correction.Weighted>
-0.7579

> <Gold.Rescore>
     Score     S(PLP)   S(hbond)     S(cho)   S(metal)  DE(clash)   DE(tors)     intcor
     39.98     -34.70       1.96       0.00       0.00       0.00       0.30       ----

> <Gold.PLP.Fitness>
39.9799

> <Gold.PLP.PLP>
-34.6960

> <Gold.PLP.part.hbond>
-1.8608

> <Gold.PLP.part.metal>
0.0000

> <Gold.PLP.part.buried>
-5.7429

> <Gold.PLP.part.nonpolar>
-29.3023

> <Gold.PLP.part.repulsive>
0.2676

> <Gold.PLP.ligand.clash>
0.0000

> <Gold.PLP.ligand.torsion>
0.2981

> <Gold.PLP.Chemscore.Hbond>
1.9600

> <Gold.PLP.Chemscore.CHOScore>
0.0000

> <Gold.PLP.Chemscore.Metal>
0.0000

> <Gold.Chemscore.Hbonds>
donor molecule, donor type, donor heavy atom, donor atom, acceptor molecule, acceptor atom, score
      L1  H     8    22       P1  8104  0.85
      P1  H  8025  8066       L1    17  0.04
      P1  H  9544  9580       L1     9  1.00

> <Gold.PLP.Chemscore.Internal.Correction>
   9.000000E+99

#       Name:                CT1002167954
#       Creating user name   hitesit
#       Creation time:       Sun Apr 16 23:07:40 2023


#       File generated by GOLD software.
#

@<TRIPOS>MOLECULE
CT1002167954|ligand_prepared|mol2|1|dock1
    29    30     1
SMALL
NO_CHARGES


@<TRIPOS>ATOM
      1 C1         246.2678  -6.8360  42.9739 C.3            1 RES1               0.0000
      2 C2         246.6457  -6.5619  41.5039 C.ar           1 RES1               0.0000
      3 C3         247.5353  -6.6071  43.7920 C.2            1 RES1               0.0000
      4 C4         245.1303  -5.8773  43.3078 C.2            1 RES1               0.0000
      5 C5         245.7697  -8.2770  43.2327 C.3            1 RES1               0.0000
      6 C6         246.9411  -5.2706  41.0772 C.ar           1 RES1               0.0000
      7 C7         246.7055  -7.5885  40.5653 C.ar           1 RES1               0.0000
      8 N8         247.6038  -5.4737  44.5473 N.am           1 RES1               0.0000
      9 O9         248.4766  -7.3894  43.7442 O.2            1 RES1               0.0000
     10 N10        245.3658  -4.9015  44.2407 N.am           1 RES1               0.0000
     11 O11        244.0373  -5.9476  42.7594 O.2            1 RES1               0.0000
     12 C12        245.2877  -8.5128  44.6554 C.3            1 RES1               0.0000
     13 C13        247.2868  -5.0153  39.7605 C.ar           1 RES1               0.0000
     14 C14        247.0512  -7.3309  39.2490 C.ar           1 RES1               0.0000
     15 C15        246.5605  -4.6371  44.8531 C.2            1 RES1               0.0000
     16 C16        247.3425  -6.0452  38.8457 C.ar           1 RES1               0.0000
     17 O17        246.7080  -3.7071  45.6408 O.2            1 RES1               0.0000
     18 H18        244.9474  -8.4960  42.5404 H              1 RES1               0.0000
     19 H19        246.5860  -8.9770  43.0159 H              1 RES1               0.0000
     20 H20        246.9002  -4.4470  41.7822 H              1 RES1               0.0000
     21 H21        246.4793  -8.6077  40.8598 H              1 RES1               0.0000
     22 H22        248.5150  -5.2250  44.9191 H              1 RES1               0.0000
     23 H23        244.5775  -4.3184  44.5031 H              1 RES1               0.0000
     24 H24        244.9494  -9.5390  44.7830 H              1 RES1               0.0000
     25 H25        246.0878  -8.3286  45.3693 H              1 RES1               0.0000
     26 H26        244.4589  -7.8504  44.8967 H              1 RES1               0.0000
     27 H27        247.5139  -4.0014  39.4479 H              1 RES1               0.0000
     28 H28        247.0932  -8.1445  38.5323 H              1 RES1               0.0000
     29 H29        247.6137  -5.8449  37.8144 H              1 RES1               0.0000
@<TRIPOS>BOND
    1    1    2 1     
    2    1    3 1     
    3    1    4 1     
    4    1    5 1     
    5    2    6 ar    
    6    2    7 ar    
    7    3    8 1     
    8    3    9 2     
    9    4   10 1     
   10    4   11 2     
   11    5   12 1     
   12    5   18 1     
   13    5   19 1     
   14    6   13 ar    
   15    6   20 1     
   16    7   14 ar    
   17    7   21 1     
   18    8   15 1     
   19    8   22 1     
   20   10   15 1     
   21   10   23 1     
   22   12   24 1     
   23   12   25 1     
   24   12   26 1     
   25   13   16 ar    
   26   13   27 1     
   27   14   16 ar    
   28   14   28 1     
   29   15   17 2     
   30   16   29 1     
@<TRIPOS>SUBSTRUCTURE
      1 RES1           1
@<TRIPOS>SET
DONOR_HYDROGENS      STATIC     ATOMS    <user>   **** ""
2 22 23
ATOM$RED        STATIC     ATOMS    COLORGROUP SYSTEM
2 22 23
@<TRIPOS>COMMENT
> <Gold.Version>
2022.3.0

> <Gold.Id.Protein>
unknown|4d1n_clean|pdb

> <Gold.Protein.RotatedTorsions>
[ 6614 6573 6574 6575 ] final  -51.88 input  116.02 | X-H torsion
[ 6700 6661 6662 6663 ] final  169.45 input  125.25 | X-H torsion
[ 8066 8025 8026 8027 ] final  -26.74 input   31.90 | X-H torsion
[ 8137 8104 8105 8106 ] final  -69.67 input   91.64 | X-H torsion
[ 8200 8166 8167 8168 ] final -164.92 input   70.29 | X-H torsion
[ 8280 8242 8243 8244 ] final  -63.99 input   89.64 | X-H torsion
[ 8333 8313 8314 8315 ] final  -81.31 input   85.58 | X-H torsion
[ 9580 9544 9543 9541 ] final  146.85 input   60.01 | X-H torsion
[ 10226 10185 10186 10187 ] final -136.80 input   40.00 | X-H torsion
[ 7988 7940 7941 7942 ] final -118.33 input   82.26 | X-H torsion
[ 7908 7887 7888 7889 ] final   62.21 input   90.27 | X-H torsion
[ 7912 7892 7891 7888 ] final -118.69 input   59.97 | X-H torsion
[ 6852 6804 6805 6806 ] final  -32.01 input  117.17 | X-H torsion
[ 27193 6336 6335 6334 ] final   51.78 input   -0.00 | X-H torsion
[ 27195 6500 6499 6498 ] final -118.37 input    0.00 | X-H torsion
[ 27198 6576 6575 6574 ] final -103.10 input   -0.00 | X-H torsion
[ 27201 7890 7889 7888 ] final   21.99 input    0.00 | X-H torsion
[ 27204 8028 8027 8026 ] final   -7.70 input   -0.00 | X-H torsion
[ 27207 8107 8106 8105 ] final   86.44 input    0.00 | X-H torsion
[ 27210 8169 8168 8167 ] final   76.53 input    0.00 | X-H torsion
[ 27213 10098 10097 10096 ] final -100.77 input    0.00 | X-H torsion
[ 27215 10188 10187 10186 ] final  142.42 input   -0.00 | X-H torsion
[ 27217 8245 8244 8243 ] final -157.15 input   -0.00 | X-H torsion
[ 27224 7943 7942 7941 ] final  -65.37 input    0.00 | X-H torsion
[ 27226 7818 7817 7816 ] final -132.45 input    0.00 | X-H torsion

> <Gold.Protein.ActiveResidues>
 ASP403  THR404  LEU406  ILE407  TYR408  ALA410  LYS411  TRP414  TRP426  SER427 
 LYS428  LEU429  GLN430  VAL431  PHE432  ASP433  TYR453  SER462  ALA463  ILE464 
 ILE466 

> <Gold.Protein.RotatedAtoms>
  241.4542   -0.4390   49.8662 H   0  0  0  0  0  0  0  0  0  0  0  0  # atno 6614 bound_to 6573
  239.6516   -2.6173   48.0923 H   0  0  0  0  0  0  0  0  0  0  0  0  # atno 6700 bound_to 6661
  240.5231    2.8730   44.8756 H   0  0  0  0  0  0  0  0  0  0  0  0  # atno 6852 bound_to 6804
  240.5460   -1.0655   36.6814 H   0  0  0  0  0  0  0  0  0  0  0  0  # atno 7908 bound_to 7887
  238.7925   -3.4958   36.4579 H   0  0  0  0  0  0  0  0  0  0  0  0  # atno 7912 bound_to 7892
  241.9832   -2.8937   38.1879 H   0  0  0  0  0  0  0  0  0  0  0  0  # atno 7988 bound_to 7940
  245.4363   -2.9482   39.6149 H   0  0  0  0  0  0  0  0  0  0  0  0  # atno 8066 bound_to 8025
  246.7541   -1.4189   41.8100 H   0  0  0  0  0  0  0  0  0  0  0  0  # atno 8137 bound_to 8104
  247.5841   -1.4381   44.2332 H   0  0  0  0  0  0  0  0  0  0  0  0  # atno 8200 bound_to 8166
  248.9057   -0.7038   47.6112 H   0  0  0  0  0  0  0  0  0  0  0  0  # atno 8280 bound_to 8242
  250.3100   -0.0192   50.2631 H   0  0  0  0  0  0  0  0  0  0  0  0  # atno 8333 bound_to 8313
  251.1514   -3.8053   40.1392 H   0  0  0  0  0  0  0  0  0  0  0  0  # atno 9580 bound_to 9544
  249.7876    2.9990   42.8547 H   0  0  0  0  0  0  0  0  0  0  0  0  # atno 10226 bound_to 10185
  243.1922   -3.5219   51.2557 LP  0  0  0  0  0  0  0  0  0  0  0  0  # atno 27193 bound_to 6336
  241.5363   -3.0140   51.2450 LP  0  0  0  0  0  0  0  0  0  0  0  0  # atno 27194 bound_to 6336
  241.0615    0.9358   48.5103 LP  0  0  0  0  0  0  0  0  0  0  0  0  # atno 27195 bound_to 6500
  242.4212    1.5104   49.4163 LP  0  0  0  0  0  0  0  0  0  0  0  0  # atno 27196 bound_to 6500
  241.8311   -2.0891   50.3032 LP  0  0  0  0  0  0  0  0  0  0  0  0  # atno 27197 bound_to 6573
  240.6325    0.4740   46.4807 LP  0  0  0  0  0  0  0  0  0  0  0  0  # atno 27198 bound_to 6576
  241.1750   -0.8708   45.5334 LP  0  0  0  0  0  0  0  0  0  0  0  0  # atno 27199 bound_to 6576
  240.2719   -0.9826   48.0069 LP  0  0  0  0  0  0  0  0  0  0  0  0  # atno 27200 bound_to 6661
  241.3444   -4.0536   39.9756 LP  0  0  0  0  0  0  0  0  0  0  0  0  # atno 27201 bound_to 7890
  243.0361   -3.7880   39.7158 LP  0  0  0  0  0  0  0  0  0  0  0  0  # atno 27202 bound_to 7890
  244.3005   -1.7385   39.0583 LP  0  0  0  0  0  0  0  0  0  0  0  0  # atno 27203 bound_to 8025
  244.7861   -2.4007   42.3505 LP  0  0  0  0  0  0  0  0  0  0  0  0  # atno 27204 bound_to 8028
  246.2489   -2.9329   43.1100 LP  0  0  0  0  0  0  0  0  0  0  0  0  # atno 27205 bound_to 8028
  248.2325   -1.2115   40.9030 LP  0  0  0  0  0  0  0  0  0  0  0  0  # atno 27206 bound_to 8104
  248.2673    0.6710   43.5481 LP  0  0  0  0  0  0  0  0  0  0  0  0  # atno 27207 bound_to 8107
  249.8429    0.1820   44.0757 LP  0  0  0  0  0  0  0  0  0  0  0  0  # atno 27208 bound_to 8107
  248.5878   -2.5027   45.1889 LP  0  0  0  0  0  0  0  0  0  0  0  0  # atno 27209 bound_to 8166
  249.1474   -3.0737   47.3691 LP  0  0  0  0  0  0  0  0  0  0  0  0  # atno 27210 bound_to 8169
  248.4826   -2.3391   48.7898 LP  0  0  0  0  0  0  0  0  0  0  0  0  # atno 27211 bound_to 8169
  250.0981    0.2828   46.8036 LP  0  0  0  0  0  0  0  0  0  0  0  0  # atno 27212 bound_to 8242
  248.8750   -0.4481   40.1879 LP  0  0  0  0  0  0  0  0  0  0  0  0  # atno 27213 bound_to 10098
  250.5051   -0.6981   39.6586 LP  0  0  0  0  0  0  0  0  0  0  0  0  # atno 27214 bound_to 10098
  250.6210    1.7519   46.7559 LP  0  0  0  0  0  0  0  0  0  0  0  0  # atno 27215 bound_to 10188
  249.0319    1.6414   46.0760 LP  0  0  0  0  0  0  0  0  0  0  0  0  # atno 27216 bound_to 10188
  249.7908    1.7853   50.8319 LP  0  0  0  0  0  0  0  0  0  0  0  0  # atno 27217 bound_to 8245
  249.6317    1.7860   49.1072 LP  0  0  0  0  0  0  0  0  0  0  0  0  # atno 27218 bound_to 8245
  250.1678   -1.6885   50.7638 LP  0  0  0  0  0  0  0  0  0  0  0  0  # atno 27219 bound_to 8313
  251.8658   -5.2636   40.2495 LP  0  0  0  0  0  0  0  0  0  0  0  0  # atno 27220 bound_to 9544
  252.0607   -4.3554   38.9064 LP  0  0  0  0  0  0  0  0  0  0  0  0  # atno 27221 bound_to 9544
  249.3243    1.8312   44.0690 LP  0  0  0  0  0  0  0  0  0  0  0  0  # atno 27222 bound_to 10185
  242.4481   -1.5073   37.2261 LP  0  0  0  0  0  0  0  0  0  0  0  0  # atno 27223 bound_to 7940
  246.1793   -1.1521   36.9356 LP  0  0  0  0  0  0  0  0  0  0  0  0  # atno 27224 bound_to 7943
  245.2577    0.0148   37.8239 LP  0  0  0  0  0  0  0  0  0  0  0  0  # atno 27225 bound_to 7943
  241.8185   -0.0604   39.6803 LP  0  0  0  0  0  0  0  0  0  0  0  0  # atno 27226 bound_to 7818
  240.6651    1.2250   39.8129 LP  0  0  0  0  0  0  0  0  0  0  0  0  # atno 27227 bound_to 7818
  240.2337    0.0061   38.0213 LP  0  0  0  0  0  0  0  0  0  0  0  0  # atno 27228 bound_to 7887
  239.6320   -4.6786   37.1959 LP  0  0  0  0  0  0  0  0  0  0  0  0  # atno 27229 bound_to 7892
  240.3976   -3.3343   36.6730 LP  0  0  0  0  0  0  0  0  0  0  0  0  # atno 27230 bound_to 7892

> <Gold.Score>
     Fitness  S(hb_ext) S(vdw_ext)  S(hb_int)    S(int)      intcor
     33.13      12.11      15.29       0.00      -0.00      -0.76

> <Gold.Goldscore.Fitness>
33.1331

> <Gold.Goldscore.Internal.Vdw>
-0.3565

> <Gold.Goldscore.Internal.Torsion>
-0.4034

> <Gold.Goldscore.External.Vdw>
15.2910

> <Gold.Goldscore.Internal.HBond>
0.0000

> <Gold.Goldscore.External.HBond>
12.1101

> <Gold.Goldscore.Internal.Correction>
-0.7579

> <Gold.Goldscore.Hbonds>
donor molecule, donor type, donor heavy atom, donor atom, acceptor molecule, acceptor atom, score
      P1  H  6812  6863       L1    11  0.98
      P1  H  8111  8143       L1     9  0.12
      L1  H     8    22       P1  8112  1.00

> <Gold.Goldscore.Internal.Vdw.Weighted>
-0.3565

> <Gold.Goldscore.Internal.Torsion.Weighted>
-0.4034

> <Gold.Goldscore.External.Vdw.Weighted>
21.0251

> <Gold.Goldscore.Internal.HBond.Weighted>
0.0000

> <Gold.Goldscore.External.HBond.Weighted>
12.1101

> <Gold.Goldscore.Internal.Correction.Weighted>
-0.7579

> <Gold.Rescore>
     Score     S(PLP)   S(hbond)     S(cho)   S(metal)  DE(clash)   DE(tors)     intcor
     28.64     -19.67       3.00       0.00       0.00       0.00       0.01       ----

> <Gold.PLP.Fitness>
28.6446

> <Gold.PLP.PLP>
-19.6719

> <Gold.PLP.part.hbond>
-4.0000

> <Gold.PLP.part.metal>
0.0000

> <Gold.PLP.part.buried>
-2.1332

> <Gold.PLP.part.nonpolar>
-14.2703

> <Gold.PLP.part.repulsive>
0.4743

> <Gold.PLP.ligand.clash>
0.0000

> <Gold.PLP.ligand.torsion>
0.0137

> <Gold.PLP.Chemscore.Hbond>
3.0000

> <Gold.PLP.Chemscore.CHOScore>
0.0000

> <Gold.PLP.Chemscore.Metal>
0.0000

> <Gold.Chemscore.Hbonds>
donor molecule, donor type, donor heavy atom, donor atom, acceptor molecule, acceptor atom, score
      L1  H     8    22       P1  8112  0.50
      P1  H  6812  6863       L1    11  1.00
      P1  H  8111  8143       L1     9  0.98

> <Gold.PLP.Chemscore.Internal.Correction>
   9.000000E+99

#       Name:                CT1002167954
#       Creating user name   hitesit
#       Creation time:       Sun Apr 16 23:07:41 2023


#       File generated by GOLD software.
#

@<TRIPOS>MOLECULE
CT1002167954|ligand_prepared|mol2|1|dock2
    29    30     1
SMALL
NO_CHARGES


@<TRIPOS>ATOM
      1 C1         246.1999  -6.7833  42.9202 C.3            1 RES1               0.0000
      2 C2         246.5347  -6.4276  41.4572 C.ar           1 RES1               0.0000
      3 C3         247.4910  -6.5990  43.7122 C.2            1 RES1               0.0000
      4 C4         245.0733  -5.8457  43.3401 C.2            1 RES1               0.0000
      5 C5         245.7086  -8.2369  43.1131 C.3            1 RES1               0.0000
      6 C6         247.3367  -5.3297  41.1607 C.ar           1 RES1               0.0000
      7 C7         246.0519  -7.1882  40.3956 C.ar           1 RES1               0.0000
      8 N8         247.5824  -5.5092  44.5269 N.am           1 RES1               0.0000
      9 O9         248.4300  -7.3765  43.5935 O.2            1 RES1               0.0000
     10 N10        245.3368  -4.9231  44.3184 N.am           1 RES1               0.0000
     11 O11        243.9646  -5.8866  42.8209 O.2            1 RES1               0.0000
     12 C12        245.6392  -8.6727  44.5682 C.3            1 RES1               0.0000
     13 C13        247.6473  -5.0055  39.8504 C.ar           1 RES1               0.0000
     14 C14        246.3636  -6.8621  39.0860 C.ar           1 RES1               0.0000
     15 C15        246.5491  -4.6919  44.9092 C.2            1 RES1               0.0000
     16 C16        247.1615  -5.7716  38.8124 C.ar           1 RES1               0.0000
     17 O17        246.7202  -3.8069  45.7426 O.2            1 RES1               0.0000
     18 H18        244.7111  -8.3346  42.6672 H              1 RES1               0.0000
     19 H19        246.3843  -8.9125  42.5741 H              1 RES1               0.0000
     20 H20        247.7262  -4.7136  41.9643 H              1 RES1               0.0000
     21 H21        245.4216  -8.0500  40.5871 H              1 RES1               0.0000
     22 H22        248.5042  -5.2806  44.8851 H              1 RES1               0.0000
     23 H23        244.5569  -4.3562  44.6357 H              1 RES1               0.0000
     24 H24        245.2889  -9.6997  44.6470 H              1 RES1               0.0000
     25 H25        246.6196  -8.6122  45.0362 H              1 RES1               0.0000
     26 H26        244.9562  -8.0377  45.1288 H              1 RES1               0.0000
     27 H27        248.2745  -4.1454  39.6403 H              1 RES1               0.0000
     28 H28        245.9785  -7.4675  38.2722 H              1 RES1               0.0000
     29 H29        247.4053  -5.5176  37.7861 H              1 RES1               0.0000
@<TRIPOS>BOND
    1    1    2 1     
    2    1    3 1     
    3    1    4 1     
    4    1    5 1     
    5    2    6 ar    
    6    2    7 ar    
    7    3    8 1     
    8    3    9 2     
    9    4   10 1     
   10    4   11 2     
   11    5   12 1     
   12    5   18 1     
   13    5   19 1     
   14    6   13 ar    
   15    6   20 1     
   16    7   14 ar    
   17    7   21 1     
   18    8   15 1     
   19    8   22 1     
   20   10   15 1     
   21   10   23 1     
   22   12   24 1     
   23   12   25 1     
   24   12   26 1     
   25   13   16 ar    
   26   13   27 1     
   27   14   16 ar    
   28   14   28 1     
   29   15   17 2     
   30   16   29 1     
@<TRIPOS>SUBSTRUCTURE
      1 RES1           1
@<TRIPOS>SET
DONOR_HYDROGENS      STATIC     ATOMS    <user>   **** ""
2 22 23
ATOM$RED        STATIC     ATOMS    COLORGROUP SYSTEM
2 22 23
@<TRIPOS>COMMENT
> <Gold.Version>
2022.3.0

> <Gold.Id.Protein>
unknown|4d1n_clean|pdb

> <Gold.Protein.RotatedTorsions>
[ 6614 6573 6574 6575 ] final   54.55 input  116.02 | X-H torsion
[ 6700 6661 6662 6663 ] final  -78.66 input  125.25 | X-H torsion
[ 8066 8025 8026 8027 ] final -135.44 input   31.90 | X-H torsion
[ 8137 8104 8105 8106 ] final -153.18 input   91.64 | X-H torsion
[ 8200 8166 8167 8168 ] final   95.28 input   70.29 | X-H torsion
[ 8280 8242 8243 8244 ] final   47.30 input   89.64 | X-H torsion
[ 8333 8313 8314 8315 ] final  121.47 input   85.58 | X-H torsion
[ 9580 9544 9543 9541 ] final  175.82 input   60.01 | X-H torsion
[ 10226 10185 10186 10187 ] final   95.01 input   40.00 | X-H torsion
[ 7988 7940 7941 7942 ] final -132.10 input   82.26 | X-H torsion
[ 7908 7887 7888 7889 ] final   36.77 input   90.27 | X-H torsion
[ 7912 7892 7891 7888 ] final  -37.03 input   59.97 | X-H torsion
[ 6852 6804 6805 6806 ] final   83.48 input  117.17 | X-H torsion
[ 27193 6336 6335 6334 ] final -147.35 input   -0.00 | X-H torsion
[ 27195 6500 6499 6498 ] final  146.43 input    0.00 | X-H torsion
[ 27198 6576 6575 6574 ] final  165.99 input   -0.00 | X-H torsion
[ 27201 7890 7889 7888 ] final    7.85 input    0.00 | X-H torsion
[ 27204 8028 8027 8026 ] final -139.08 input   -0.00 | X-H torsion
[ 27207 8107 8106 8105 ] final  137.64 input    0.00 | X-H torsion
[ 27210 8169 8168 8167 ] final  143.15 input    0.00 | X-H torsion
[ 27213 10098 10097 10096 ] final  -56.53 input    0.00 | X-H torsion
[ 27215 10188 10187 10186 ] final  -27.34 input   -0.00 | X-H torsion
[ 27217 8245 8244 8243 ] final   64.13 input   -0.00 | X-H torsion
[ 27224 7943 7942 7941 ] final -136.02 input    0.00 | X-H torsion
[ 27226 7818 7817 7816 ] final   95.05 input    0.00 | X-H torsion

> <Gold.Protein.ActiveResidues>
 ASP403  THR404  LEU406  ILE407  TYR408  ALA410  LYS411  TRP414  TRP426  SER427 
 LYS428  LEU429  GLN430  VAL431  PHE432  ASP433  TYR453  SER462  ALA463  ILE464 
 ILE466 

> <Gold.Protein.RotatedAtoms>
  240.8805   -1.7202   50.0657 H   0  0  0  0  0  0  0  0  0  0  0  0  # atno 6614 bound_to 6573
  240.3745   -1.6258   47.2736 H   0  0  0  0  0  0  0  0  0  0  0  0  # atno 6700 bound_to 6661
  240.2334    1.4522   45.2550 H   0  0  0  0  0  0  0  0  0  0  0  0  # atno 6852 bound_to 6804
  240.9011   -0.9631   36.7929 H   0  0  0  0  0  0  0  0  0  0  0  0  # atno 7908 bound_to 7887
  239.9217   -3.0230   36.4332 H   0  0  0  0  0  0  0  0  0  0  0  0  # atno 7912 bound_to 7892
  241.9426   -2.9800   37.9973 H   0  0  0  0  0  0  0  0  0  0  0  0  # atno 7988 bound_to 7940
  245.1908   -1.9452   38.6046 H   0  0  0  0  0  0  0  0  0  0  0  0  # atno 8066 bound_to 8025
  247.2952   -2.1084   41.0271 H   0  0  0  0  0  0  0  0  0  0  0  0  # atno 8137 bound_to 8104
  247.4736   -2.5252   45.0292 H   0  0  0  0  0  0  0  0  0  0  0  0  # atno 8200 bound_to 8166
  249.4319    0.6396   47.4359 H   0  0  0  0  0  0  0  0  0  0  0  0  # atno 8280 bound_to 8242
  249.8562   -1.6581   50.6159 H   0  0  0  0  0  0  0  0  0  0  0  0  # atno 8333 bound_to 8313
  251.2732   -3.6365   39.7195 H   0  0  0  0  0  0  0  0  0  0  0  0  # atno 9580 bound_to 9544
  248.7468    2.0945   43.6443 H   0  0  0  0  0  0  0  0  0  0  0  0  # atno 10226 bound_to 10185
  241.5168   -3.2441   51.0733 LP  0  0  0  0  0  0  0  0  0  0  0  0  # atno 27193 bound_to 6336
  243.2116   -3.2919   51.4273 LP  0  0  0  0  0  0  0  0  0  0  0  0  # atno 27194 bound_to 6336
  242.3328    0.7969   48.4958 LP  0  0  0  0  0  0  0  0  0  0  0  0  # atno 27195 bound_to 6500
  241.1499    1.6493   49.4308 LP  0  0  0  0  0  0  0  0  0  0  0  0  # atno 27196 bound_to 6500
  242.3903   -0.8402   50.1087 LP  0  0  0  0  0  0  0  0  0  0  0  0  # atno 27197 bound_to 6573
  240.0910   -0.3730   45.7642 LP  0  0  0  0  0  0  0  0  0  0  0  0  # atno 27198 bound_to 6576
  241.7165   -0.0238   46.2499 LP  0  0  0  0  0  0  0  0  0  0  0  0  # atno 27199 bound_to 6576
  239.5734   -1.9407   48.7980 LP  0  0  0  0  0  0  0  0  0  0  0  0  # atno 27200 bound_to 6661
  241.3686   -3.8970   40.1183 LP  0  0  0  0  0  0  0  0  0  0  0  0  # atno 27201 bound_to 7890
  243.0119   -3.9446   39.5731 LP  0  0  0  0  0  0  0  0  0  0  0  0  # atno 27202 bound_to 7890
  244.5383   -2.7102   40.0372 LP  0  0  0  0  0  0  0  0  0  0  0  0  # atno 27203 bound_to 8025
  245.9682   -2.3426   43.3949 LP  0  0  0  0  0  0  0  0  0  0  0  0  # atno 27204 bound_to 8028
  245.0667   -2.9910   42.0656 LP  0  0  0  0  0  0  0  0  0  0  0  0  # atno 27205 bound_to 8028
  247.7024   -0.5360   41.6699 LP  0  0  0  0  0  0  0  0  0  0  0  0  # atno 27206 bound_to 8104
  248.3864    0.7054   44.2862 LP  0  0  0  0  0  0  0  0  0  0  0  0  # atno 27207 bound_to 8107
  249.7239    0.1476   43.3376 LP  0  0  0  0  0  0  0  0  0  0  0  0  # atno 27208 bound_to 8107
  248.6958   -1.4398   44.4107 LP  0  0  0  0  0  0  0  0  0  0  0  0  # atno 27209 bound_to 8166
  249.6803   -2.7412   48.0833 LP  0  0  0  0  0  0  0  0  0  0  0  0  # atno 27210 bound_to 8169
  247.9497   -2.6716   48.0756 LP  0  0  0  0  0  0  0  0  0  0  0  0  # atno 27211 bound_to 8169
  249.5806   -1.0379   46.9760 LP  0  0  0  0  0  0  0  0  0  0  0  0  # atno 27212 bound_to 8242
  248.9047   -0.6327   39.5631 LP  0  0  0  0  0  0  0  0  0  0  0  0  # atno 27213 bound_to 10098
  250.4754   -0.5135   40.2834 LP  0  0  0  0  0  0  0  0  0  0  0  0  # atno 27214 bound_to 10098
  249.1055    1.6093   45.9441 LP  0  0  0  0  0  0  0  0  0  0  0  0  # atno 27215 bound_to 10188
  250.5473    1.7840   46.8878 LP  0  0  0  0  0  0  0  0  0  0  0  0  # atno 27216 bound_to 10188
  249.1034    1.6324   49.3720 LP  0  0  0  0  0  0  0  0  0  0  0  0  # atno 27217 bound_to 8245
  250.3191    1.9389   50.5671 LP  0  0  0  0  0  0  0  0  0  0  0  0  # atno 27218 bound_to 8245
  250.6097   -0.0924   50.4201 LP  0  0  0  0  0  0  0  0  0  0  0  0  # atno 27219 bound_to 8313
  251.5882   -5.0099   40.5341 LP  0  0  0  0  0  0  0  0  0  0  0  0  # atno 27220 bound_to 9544
  252.2156   -4.7789   39.0442 LP  0  0  0  0  0  0  0  0  0  0  0  0  # atno 27221 bound_to 9544
  250.3424    2.7160   43.2966 LP  0  0  0  0  0  0  0  0  0  0  0  0  # atno 27222 bound_to 10185
  242.4874   -1.4237   37.4105 LP  0  0  0  0  0  0  0  0  0  0  0  0  # atno 27223 bound_to 7940
  246.4676   -0.7145   37.7891 LP  0  0  0  0  0  0  0  0  0  0  0  0  # atno 27224 bound_to 7943
  244.9695   -0.4228   36.9703 LP  0  0  0  0  0  0  0  0  0  0  0  0  # atno 27225 bound_to 7943
  240.4132    0.6012   39.9978 LP  0  0  0  0  0  0  0  0  0  0  0  0  # atno 27226 bound_to 7818
  242.0704    0.5634   39.4955 LP  0  0  0  0  0  0  0  0  0  0  0  0  # atno 27227 bound_to 7818
  239.8823   -0.0952   37.9110 LP  0  0  0  0  0  0  0  0  0  0  0  0  # atno 27228 bound_to 7887
  238.6895   -4.0494   36.7103 LP  0  0  0  0  0  0  0  0  0  0  0  0  # atno 27229 bound_to 7892
  240.2029   -4.4396   37.1834 LP  0  0  0  0  0  0  0  0  0  0  0  0  # atno 27230 bound_to 7892

> <Gold.Score>
     Fitness  S(hb_ext) S(vdw_ext)  S(hb_int)    S(int)      intcor
     32.63      12.65      14.67       0.00      -0.19      -0.76

> <Gold.Goldscore.Fitness>
32.6302

> <Gold.Goldscore.Internal.Vdw>
-0.3781

> <Gold.Goldscore.Internal.Torsion>
-0.5720

> <Gold.Goldscore.External.Vdw>
14.6701

> <Gold.Goldscore.Internal.HBond>
0.0000

> <Gold.Goldscore.External.HBond>
12.6511

> <Gold.Goldscore.Internal.Correction>
-0.7579

> <Gold.Goldscore.Hbonds>
donor molecule, donor type, donor heavy atom, donor atom, acceptor molecule, acceptor atom, score
      P1  H  6812  6863       L1    11  0.97
      P1  H  8111  8143       L1     9  0.11
      P1  H  8166  8200       L1    17  0.31
      L1  H     8    22       P1  8112  1.00

> <Gold.Goldscore.Internal.Vdw.Weighted>
-0.3781

> <Gold.Goldscore.Internal.Torsion.Weighted>
-0.5720

> <Gold.Goldscore.External.Vdw.Weighted>
20.1714

> <Gold.Goldscore.Internal.HBond.Weighted>
0.0000

> <Gold.Goldscore.External.HBond.Weighted>
12.6511

> <Gold.Goldscore.Internal.Correction.Weighted>
-0.7579

> <Gold.Rescore>
     Score     S(PLP)   S(hbond)     S(cho)   S(metal)  DE(clash)   DE(tors)     intcor
     31.41     -20.93       3.82       0.00       0.00       0.00       0.48       ----

> <Gold.PLP.Fitness>
31.4109

> <Gold.PLP.PLP>
-20.9263

> <Gold.PLP.part.hbond>
-4.0000

> <Gold.PLP.part.metal>
0.0000

> <Gold.PLP.part.buried>
-2.5222

> <Gold.PLP.part.nonpolar>
-15.3866

> <Gold.PLP.part.repulsive>
0.4658

> <Gold.PLP.ligand.clash>
0.0000

> <Gold.PLP.ligand.torsion>
0.4847

> <Gold.PLP.Chemscore.Hbond>
3.8180

> <Gold.PLP.Chemscore.CHOScore>
0.0000

> <Gold.PLP.Chemscore.Metal>
0.0000

> <Gold.Chemscore.Hbonds>
donor molecule, donor type, donor heavy atom, donor atom, acceptor molecule, acceptor atom, score
      L1  H     8    22       P1  8112  0.50
      P1  H  6812  6863       L1    11  0.78
      P1  H  8111  8143       L1     9  0.93
      P1  H  8166  8200       L1    17  0.99

> <Gold.PLP.Chemscore.Internal.Correction>
   9.000000E+99

#       Name:                CT1002167954
#       Creating user name   hitesit
#       Creation time:       Sun Apr 16 23:07:41 2023


#       File generated by GOLD software.
#

@<TRIPOS>MOLECULE
CT1002167954|ligand_prepared|mol2|1|dock3
    29    30     1
SMALL
NO_CHARGES


@<TRIPOS>ATOM
      1 C1         248.1388  -5.2460  36.7916 C.3            1 RES1               0.0000
      2 C2         248.9194  -5.4637  35.4794 C.ar           1 RES1               0.0000
      3 C3         249.1819  -4.9632  37.8688 C.2            1 RES1               0.0000
      4 C4         247.1827  -4.0871  36.5320 C.2            1 RES1               0.0000
      5 C5         247.2995  -6.4688  37.2296 C.3            1 RES1               0.0000
      6 C6         249.5241  -6.6877  35.2093 C.ar           1 RES1               0.0000
      7 C7         249.0411  -4.4527  34.5298 C.ar           1 RES1               0.0000
      8 N8         249.2980  -3.6795  38.3144 N.am           1 RES1               0.0000
      9 O9         249.9185  -5.8454  38.2923 O.2            1 RES1               0.0000
     10 N10        247.3793  -2.9239  37.2293 N.am           1 RES1               0.0000
     11 O11        246.2710  -4.1650  35.7177 O.2            1 RES1               0.0000
     12 C12        246.3171  -6.1684  38.3506 C.3            1 RES1               0.0000
     13 C13        250.2226  -6.8946  34.0314 C.ar           1 RES1               0.0000
     14 C14        249.7402  -4.6617  33.3525 C.ar           1 RES1               0.0000
     15 C15        248.4122  -2.6573  38.0861 C.2            1 RES1               0.0000
     16 C16        250.3308  -5.8820  33.1020 C.ar           1 RES1               0.0000
     17 O17        248.5519  -1.5676  38.6341 O.2            1 RES1               0.0000
     18 H18        246.7419  -6.8433  36.3623 H              1 RES1               0.0000
     19 H19        247.9795  -7.2638  37.5598 H              1 RES1               0.0000
     20 H20        249.4518  -7.4955  35.9299 H              1 RES1               0.0000
     21 H21        248.5856  -3.4842  34.7060 H              1 RES1               0.0000
     22 H22        250.1193  -3.4592  38.8686 H              1 RES1               0.0000
     23 H23        246.6919  -2.1888  37.0974 H              1 RES1               0.0000
     24 H24        245.7541  -7.0598  38.6194 H              1 RES1               0.0000
     25 H25        246.8398  -5.8174  39.2379 H              1 RES1               0.0000
     26 H26        245.6095  -5.3993  38.0476 H              1 RES1               0.0000
     27 H27        250.6867  -7.8564  33.8396 H              1 RES1               0.0000
     28 H28        249.8233  -3.8617  32.6242 H              1 RES1               0.0000
     29 H29        250.8777  -6.0445  32.1792 H              1 RES1               0.0000
@<TRIPOS>BOND
    1    1    2 1     
    2    1    3 1     
    3    1    4 1     
    4    1    5 1     
    5    2    6 ar    
    6    2    7 ar    
    7    3    8 1     
    8    3    9 2     
    9    4   10 1     
   10    4   11 2     
   11    5   12 1     
   12    5   18 1     
   13    5   19 1     
   14    6   13 ar    
   15    6   20 1     
   16    7   14 ar    
   17    7   21 1     
   18    8   15 1     
   19    8   22 1     
   20   10   15 1     
   21   10   23 1     
   22   12   24 1     
   23   12   25 1     
   24   12   26 1     
   25   13   16 ar    
   26   13   27 1     
   27   14   16 ar    
   28   14   28 1     
   29   15   17 2     
   30   16   29 1     
@<TRIPOS>SUBSTRUCTURE
      1 RES1           1
@<TRIPOS>SET
DONOR_HYDROGENS      STATIC     ATOMS    <user>   **** ""
2 22 23
ATOM$RED        STATIC     ATOMS    COLORGROUP SYSTEM
2 22 23
@<TRIPOS>COMMENT
> <Gold.Version>
2022.3.0

> <Gold.Id.Protein>
unknown|4d1n_clean|pdb

> <Gold.Protein.RotatedTorsions>
[ 6614 6573 6574 6575 ] final    0.93 input  116.02 | X-H torsion
[ 6700 6661 6662 6663 ] final  150.65 input  125.25 | X-H torsion
[ 8066 8025 8026 8027 ] final  130.20 input   31.90 | X-H torsion
[ 8137 8104 8105 8106 ] final  150.15 input   91.64 | X-H torsion
[ 8200 8166 8167 8168 ] final -157.36 input   70.29 | X-H torsion
[ 8280 8242 8243 8244 ] final -173.20 input   89.64 | X-H torsion
[ 8333 8313 8314 8315 ] final   15.20 input   85.58 | X-H torsion
[ 9580 9544 9543 9541 ] final  -96.78 input   60.01 | X-H torsion
[ 10226 10185 10186 10187 ] final -174.21 input   40.00 | X-H torsion
[ 7988 7940 7941 7942 ] final  116.11 input   82.26 | X-H torsion
[ 7908 7887 7888 7889 ] final -164.74 input   90.27 | X-H torsion
[ 7912 7892 7891 7888 ] final  -25.34 input   59.97 | X-H torsion
[ 6852 6804 6805 6806 ] final   56.07 input  117.17 | X-H torsion
[ 27193 6336 6335 6334 ] final  -22.20 input   -0.00 | X-H torsion
[ 27195 6500 6499 6498 ] final   12.62 input    0.00 | X-H torsion
[ 27198 6576 6575 6574 ] final  129.54 input   -0.00 | X-H torsion
[ 27201 7890 7889 7888 ] final -125.44 input    0.00 | X-H torsion
[ 27204 8028 8027 8026 ] final  164.08 input   -0.00 | X-H torsion
[ 27207 8107 8106 8105 ] final   87.40 input    0.00 | X-H torsion
[ 27210 8169 8168 8167 ] final  -10.34 input    0.00 | X-H torsion
[ 27213 10098 10097 10096 ] final  -39.26 input    0.00 | X-H torsion
[ 27215 10188 10187 10186 ] final -123.70 input   -0.00 | X-H torsion
[ 27217 8245 8244 8243 ] final  166.86 input   -0.00 | X-H torsion
[ 27224 7943 7942 7941 ] final -107.71 input    0.00 | X-H torsion
[ 27226 7818 7817 7816 ] final -104.40 input    0.00 | X-H torsion

> <Gold.Protein.ActiveResidues>
 ASP403  THR404  LEU406  ILE407  TYR408  ALA410  LYS411  TRP414  TRP426  SER427 
 LYS428  LEU429  GLN430  VAL431  PHE432  ASP433  TYR453  SER462  ALA463  ILE464 
 ILE466 

> <Gold.Protein.RotatedAtoms>
  240.8493   -0.9427   49.8866 H   0  0  0  0  0  0  0  0  0  0  0  0  # atno 6614 bound_to 6573
  239.5625   -2.5191   48.3511 H   0  0  0  0  0  0  0  0  0  0  0  0  # atno 6700 bound_to 6661
  240.0170    1.8119   45.2444 H   0  0  0  0  0  0  0  0  0  0  0  0  # atno 6852 bound_to 6804
  239.6514   -0.2347   37.7282 H   0  0  0  0  0  0  0  0  0  0  0  0  # atno 7908 bound_to 7887
  240.0911   -3.0852   36.4953 H   0  0  0  0  0  0  0  0  0  0  0  0  # atno 7912 bound_to 7892
  242.2086   -2.1493   36.8108 H   0  0  0  0  0  0  0  0  0  0  0  0  # atno 7988 bound_to 7940
  244.1254   -1.8326   39.3479 H   0  0  0  0  0  0  0  0  0  0  0  0  # atno 8066 bound_to 8025
  247.9967   -1.7382   40.7576 H   0  0  0  0  0  0  0  0  0  0  0  0  # atno 8137 bound_to 8104
  247.6824   -1.3816   44.2068 H   0  0  0  0  0  0  0  0  0  0  0  0  # atno 8200 bound_to 8166
  249.9980   -0.7158   46.6805 H   0  0  0  0  0  0  0  0  0  0  0  0  # atno 8280 bound_to 8242
  251.0264   -0.9172   50.9172 H   0  0  0  0  0  0  0  0  0  0  0  0  # atno 8333 bound_to 8313
  252.0329   -4.3025   38.9106 H   0  0  0  0  0  0  0  0  0  0  0  0  # atno 9580 bound_to 9544
  249.2282    2.9156   42.8225 H   0  0  0  0  0  0  0  0  0  0  0  0  # atno 10226 bound_to 10185
  242.7839   -2.7042   51.7563 LP  0  0  0  0  0  0  0  0  0  0  0  0  # atno 27193 bound_to 6336
  241.9446   -3.8317   50.7443 LP  0  0  0  0  0  0  0  0  0  0  0  0  # atno 27194 bound_to 6336
  241.7857    1.7543   49.6458 LP  0  0  0  0  0  0  0  0  0  0  0  0  # atno 27195 bound_to 6500
  241.6970    0.6919   48.2807 LP  0  0  0  0  0  0  0  0  0  0  0  0  # atno 27196 bound_to 6500
  242.4206   -1.5981   50.2833 LP  0  0  0  0  0  0  0  0  0  0  0  0  # atno 27197 bound_to 6573
  240.4188   -0.7367   45.5326 LP  0  0  0  0  0  0  0  0  0  0  0  0  # atno 27198 bound_to 6576
  241.3887    0.3398   46.4815 LP  0  0  0  0  0  0  0  0  0  0  0  0  # atno 27199 bound_to 6576
  240.3581   -1.0775   47.7568 LP  0  0  0  0  0  0  0  0  0  0  0  0  # atno 27200 bound_to 6661
  242.8999   -3.4726   40.0592 LP  0  0  0  0  0  0  0  0  0  0  0  0  # atno 27201 bound_to 7890
  241.4806   -4.3689   39.6322 LP  0  0  0  0  0  0  0  0  0  0  0  0  # atno 27202 bound_to 7890
  245.5705   -2.8193   39.3170 LP  0  0  0  0  0  0  0  0  0  0  0  0  # atno 27203 bound_to 8025
  246.2476   -3.0255   43.0273 LP  0  0  0  0  0  0  0  0  0  0  0  0  # atno 27204 bound_to 8028
  244.7873   -2.3082   42.4332 LP  0  0  0  0  0  0  0  0  0  0  0  0  # atno 27205 bound_to 8028
  247.0152   -0.8987   41.9338 LP  0  0  0  0  0  0  0  0  0  0  0  0  # atno 27206 bound_to 8104
  248.2637    0.6737   43.5620 LP  0  0  0  0  0  0  0  0  0  0  0  0  # atno 27207 bound_to 8107
  249.8466    0.1793   44.0618 LP  0  0  0  0  0  0  0  0  0  0  0  0  # atno 27208 bound_to 8107
  248.4916   -2.5579   45.2147 LP  0  0  0  0  0  0  0  0  0  0  0  0  # atno 27209 bound_to 8166
  248.0354   -2.8472   47.7297 LP  0  0  0  0  0  0  0  0  0  0  0  0  # atno 27210 bound_to 8169
  249.5947   -2.5656   48.4292 LP  0  0  0  0  0  0  0  0  0  0  0  0  # atno 27211 bound_to 8169
  249.0241    0.2946   47.7187 LP  0  0  0  0  0  0  0  0  0  0  0  0  # atno 27212 bound_to 8242
  249.0476   -0.7014   39.3569 LP  0  0  0  0  0  0  0  0  0  0  0  0  # atno 27213 bound_to 10098
  250.3325   -0.4448   40.4896 LP  0  0  0  0  0  0  0  0  0  0  0  0  # atno 27214 bound_to 10098
  249.4298    1.8780   47.1642 LP  0  0  0  0  0  0  0  0  0  0  0  0  # atno 27215 bound_to 10188
  250.2230    1.5153   45.6677 LP  0  0  0  0  0  0  0  0  0  0  0  0  # atno 27216 bound_to 10188
  249.2875    1.6486   50.7123 LP  0  0  0  0  0  0  0  0  0  0  0  0  # atno 27217 bound_to 8245
  250.1350    1.9226   49.2268 LP  0  0  0  0  0  0  0  0  0  0  0  0  # atno 27218 bound_to 8245
  249.4701   -0.8139   50.1267 LP  0  0  0  0  0  0  0  0  0  0  0  0  # atno 27219 bound_to 8313
  251.1402   -3.8361   40.1892 LP  0  0  0  0  0  0  0  0  0  0  0  0  # atno 27220 bound_to 9544
  251.8987   -5.2822   40.2035 LP  0  0  0  0  0  0  0  0  0  0  0  0  # atno 27221 bound_to 9544
  249.8715    1.9128   44.1005 LP  0  0  0  0  0  0  0  0  0  0  0  0  # atno 27222 bound_to 10185
  242.2299   -2.2279   38.5592 LP  0  0  0  0  0  0  0  0  0  0  0  0  # atno 27223 bound_to 7940
  246.4849   -0.9661   37.4487 LP  0  0  0  0  0  0  0  0  0  0  0  0  # atno 27224 bound_to 7943
  244.9522   -0.1712   37.3107 LP  0  0  0  0  0  0  0  0  0  0  0  0  # atno 27225 bound_to 7943
  242.0307    0.2799   39.5565 LP  0  0  0  0  0  0  0  0  0  0  0  0  # atno 27226 bound_to 7818
  240.4529    0.8847   39.9367 LP  0  0  0  0  0  0  0  0  0  0  0  0  # atno 27227 bound_to 7818
  241.1186   -0.8158   36.9859 LP  0  0  0  0  0  0  0  0  0  0  0  0  # atno 27228 bound_to 7887
  238.6759   -3.8786   36.6234 LP  0  0  0  0  0  0  0  0  0  0  0  0  # atno 27229 bound_to 7892
  240.0460   -4.5477   37.2078 LP  0  0  0  0  0  0  0  0  0  0  0  0  # atno 27230 bound_to 7892

> <Gold.Score>
     Fitness  S(hb_ext) S(vdw_ext)  S(hb_int)    S(int)      intcor
     31.28       3.09      21.18       0.00      -0.94      -0.76

> <Gold.Goldscore.Fitness>
31.2757

> <Gold.Goldscore.Internal.Vdw>
-1.1151

> <Gold.Goldscore.Internal.Torsion>
-0.5810

> <Gold.Goldscore.External.Vdw>
21.1777

> <Gold.Goldscore.Internal.HBond>
0.0000

> <Gold.Goldscore.External.HBond>
3.0946

> <Gold.Goldscore.Internal.Correction>
-0.7579

> <Gold.Goldscore.Hbonds>
donor molecule, donor type, donor heavy atom, donor atom, acceptor molecule, acceptor atom, score
      P1  H  8104  8137       L1    17  0.79
      P1  H  9544  9580       L1     9  0.02
      L1  H     8    22       P1  9544  0.01
      L1  H    10    23       P1  7943  0.73

> <Gold.Goldscore.Internal.Vdw.Weighted>
-1.1151

> <Gold.Goldscore.Internal.Torsion.Weighted>
-0.5810

> <Gold.Goldscore.External.Vdw.Weighted>
29.1193

> <Gold.Goldscore.Internal.HBond.Weighted>
0.0000

> <Gold.Goldscore.External.HBond.Weighted>
3.0946

> <Gold.Goldscore.Internal.Correction.Weighted>
-0.7579

> <Gold.Rescore>
     Score     S(PLP)   S(hbond)     S(cho)   S(metal)  DE(clash)   DE(tors)     intcor
     30.41     -27.79       1.46       0.00       0.00       1.41       0.18       ----

> <Gold.PLP.Fitness>
30.4114

> <Gold.PLP.PLP>
-27.7886

> <Gold.PLP.part.hbond>
-2.5082

> <Gold.PLP.part.metal>
0.0000

> <Gold.PLP.part.buried>
-2.9861

> <Gold.PLP.part.nonpolar>
-28.3097

> <Gold.PLP.part.repulsive>
4.9916

> <Gold.PLP.ligand.clash>
1.4111

> <Gold.PLP.ligand.torsion>
0.1792

> <Gold.PLP.Chemscore.Hbond>
1.4641

> <Gold.PLP.Chemscore.CHOScore>
0.0000

> <Gold.PLP.Chemscore.Metal>
0.0000

> <Gold.Chemscore.Hbonds>
donor molecule, donor type, donor heavy atom, donor atom, acceptor molecule, acceptor atom, score
      L1  H    10    23       P1  7943  0.30
      P1  H  8104  8137       L1    17  0.75

> <Gold.PLP.Chemscore.Internal.Correction>
   9.000000E+99

#       Name:                CT1002167954
#       Creating user name   hitesit
#       Creation time:       Sun Apr 16 23:07:43 2023


#       File generated by GOLD software.
#

@<TRIPOS>MOLECULE
CT1002167954|ligand_prepared|mol2|1|dock7
    29    30     1
SMALL
NO_CHARGES


@<TRIPOS>ATOM
      1 C1         245.9949  -7.1140  43.3822 C.3            1 RES1               0.0000
      2 C2         245.5772  -8.3478  44.2082 C.ar           1 RES1               0.0000
      3 C3         244.8750  -6.0905  43.5447 C.2            1 RES1               0.0000
      4 C4         247.3384  -6.6604  43.9426 C.2            1 RES1               0.0000
      5 C5         246.1797  -7.4048  41.8746 C.3            1 RES1               0.0000
      6 C6         245.7365  -8.3620  45.5906 C.ar           1 RES1               0.0000
      7 C7         245.0297  -9.4760  43.6032 C.ar           1 RES1               0.0000
      8 N8         245.1164  -5.0110  44.3425 N.am           1 RES1               0.0000
      9 O9         243.7830  -6.2482  43.0128 O.2            1 RES1               0.0000
     10 N10        247.3958  -5.4408  44.5647 N.am           1 RES1               0.0000
     11 O11        248.3440  -7.3554  43.8656 O.2            1 RES1               0.0000
     12 C12        246.7894  -6.2488  41.0975 C.3            1 RES1               0.0000
     13 C13        245.3593  -9.4631  46.3415 C.ar           1 RES1               0.0000
     14 C14        244.6535 -10.5761  44.3560 C.ar           1 RES1               0.0000
     15 C15        246.3391  -4.6091  44.8172 C.2            1 RES1               0.0000
     16 C16        244.8173 -10.5705  45.7249 C.ar           1 RES1               0.0000
     17 O17        246.4611  -3.5529  45.4309 O.2            1 RES1               0.0000
     18 H18        246.8239  -8.2853  41.7612 H              1 RES1               0.0000
     19 H19        245.2022  -7.6462  41.4392 H              1 RES1               0.0000
     20 H20        246.1636  -7.5006  46.0931 H              1 RES1               0.0000
     21 H21        244.8926  -9.5031  42.5275 H              1 RES1               0.0000
     22 H22        244.3137  -4.4508  44.6110 H              1 RES1               0.0000
     23 H23        248.3112  -5.1235  44.8676 H              1 RES1               0.0000
     24 H24        246.8972  -6.5053  40.0457 H              1 RES1               0.0000
     25 H25        246.1615  -5.3630  41.1676 H              1 RES1               0.0000
     26 H26        247.7737  -5.9983  41.4878 H              1 RES1               0.0000
     27 H27        245.4916  -9.4542  47.4184 H              1 RES1               0.0000
     28 H28        244.2278 -11.4458  43.8664 H              1 RES1               0.0000
     29 H29        244.5216 -11.4328  46.3133 H              1 RES1               0.0000
@<TRIPOS>BOND
    1    1    2 1     
    2    1    3 1     
    3    1    4 1     
    4    1    5 1     
    5    2    6 ar    
    6    2    7 ar    
    7    3    8 1     
    8    3    9 2     
    9    4   10 1     
   10    4   11 2     
   11    5   12 1     
   12    5   18 1     
   13    5   19 1     
   14    6   13 ar    
   15    6   20 1     
   16    7   14 ar    
   17    7   21 1     
   18    8   15 1     
   19    8   22 1     
   20   10   15 1     
   21   10   23 1     
   22   12   24 1     
   23   12   25 1     
   24   12   26 1     
   25   13   16 ar    
   26   13   27 1     
   27   14   16 ar    
   28   14   28 1     
   29   15   17 2     
   30   16   29 1     
@<TRIPOS>SUBSTRUCTURE
      1 RES1           1
@<TRIPOS>SET
DONOR_HYDROGENS      STATIC     ATOMS    <user>   **** ""
2 22 23
ATOM$RED        STATIC     ATOMS    COLORGROUP SYSTEM
2 22 23
@<TRIPOS>COMMENT
> <Gold.Version>
2022.3.0

> <Gold.Id.Protein>
unknown|4d1n_clean|pdb

> <Gold.Protein.RotatedTorsions>
[ 6614 6573 6574 6575 ] final   48.76 input  116.02 | X-H torsion
[ 6700 6661 6662 6663 ] final -157.40 input  125.25 | X-H torsion
[ 8066 8025 8026 8027 ] final  104.67 input   31.90 | X-H torsion
[ 8137 8104 8105 8106 ] final   91.50 input   91.64 | X-H torsion
[ 8200 8166 8167 8168 ] final   94.83 input   70.29 | X-H torsion
[ 8280 8242 8243 8244 ] final    0.88 input   89.64 | X-H torsion
[ 8333 8313 8314 8315 ] final  -14.69 input   85.58 | X-H torsion
[ 9580 9544 9543 9541 ] final -149.83 input   60.01 | X-H torsion
[ 10226 10185 10186 10187 ] final  -51.46 input   40.00 | X-H torsion
[ 7988 7940 7941 7942 ] final   96.29 input   82.26 | X-H torsion
[ 7908 7887 7888 7889 ] final  -52.39 input   90.27 | X-H torsion
[ 7912 7892 7891 7888 ] final   92.32 input   59.97 | X-H torsion
[ 6852 6804 6805 6806 ] final -119.38 input  117.17 | X-H torsion
[ 27193 6336 6335 6334 ] final  -16.24 input   -0.00 | X-H torsion
[ 27195 6500 6499 6498 ] final -169.39 input    0.00 | X-H torsion
[ 27198 6576 6575 6574 ] final  143.01 input   -0.00 | X-H torsion
[ 27201 7890 7889 7888 ] final   -9.92 input    0.00 | X-H torsion
[ 27204 8028 8027 8026 ] final  -11.48 input   -0.00 | X-H torsion
[ 27207 8107 8106 8105 ] final -130.63 input    0.00 | X-H torsion
[ 27210 8169 8168 8167 ] final   20.65 input    0.00 | X-H torsion
[ 27213 10098 10097 10096 ] final   81.44 input    0.00 | X-H torsion
[ 27215 10188 10187 10186 ] final  101.06 input   -0.00 | X-H torsion
[ 27217 8245 8244 8243 ] final  140.06 input   -0.00 | X-H torsion
[ 27224 7943 7942 7941 ] final -125.55 input    0.00 | X-H torsion
[ 27226 7818 7817 7816 ] final   76.97 input    0.00 | X-H torsion

> <Gold.Protein.ActiveResidues>
 ASP403  THR404  LEU406  ILE407  TYR408  ALA410  LYS411  TRP414  TRP426  SER427 
 LYS428  LEU429  GLN430  VAL431  PHE432  ASP433  TYR453  SER462  ALA463  ILE464 
 ILE466 

> <Gold.Protein.RotatedAtoms>
  240.8414   -1.6432   50.0425 H   0  0  0  0  0  0  0  0  0  0  0  0  # atno 6614 bound_to 6573
  239.8803   -2.5725   47.6409 H   0  0  0  0  0  0  0  0  0  0  0  0  # atno 6700 bound_to 6661
  241.6054    2.3406   44.6666 H   0  0  0  0  0  0  0  0  0  0  0  0  # atno 6852 bound_to 6804
  241.1073   -0.1899   37.7280 H   0  0  0  0  0  0  0  0  0  0  0  0  # atno 7908 bound_to 7887
  240.0756   -4.5227   37.2031 H   0  0  0  0  0  0  0  0  0  0  0  0  # atno 7912 bound_to 7892
  242.3169   -1.8702   36.8748 H   0  0  0  0  0  0  0  0  0  0  0  0  # atno 7988 bound_to 7940
  244.0802   -2.0625   39.6632 H   0  0  0  0  0  0  0  0  0  0  0  0  # atno 8066 bound_to 8025
  248.2477   -0.9613   41.0412 H   0  0  0  0  0  0  0  0  0  0  0  0  # atno 8137 bound_to 8104
  247.4785   -2.5288   45.0326 H   0  0  0  0  0  0  0  0  0  0  0  0  # atno 8200 bound_to 8166
  248.9677    0.2286   47.7472 H   0  0  0  0  0  0  0  0  0  0  0  0  # atno 8280 bound_to 8242
  251.0034   -0.4897   50.7577 H   0  0  0  0  0  0  0  0  0  0  0  0  # atno 8333 bound_to 8313
  251.5494   -3.7076   39.2455 H   0  0  0  0  0  0  0  0  0  0  0  0  # atno 9580 bound_to 9544
  250.4109    2.3956   43.6799 H   0  0  0  0  0  0  0  0  0  0  0  0  # atno 10226 bound_to 10185
  242.8585   -2.7515   51.7391 LP  0  0  0  0  0  0  0  0  0  0  0  0  # atno 27193 bound_to 6336
  241.8699   -3.7845   50.7616 LP  0  0  0  0  0  0  0  0  0  0  0  0  # atno 27194 bound_to 6336
  241.7273    0.6894   48.2814 LP  0  0  0  0  0  0  0  0  0  0  0  0  # atno 27195 bound_to 6500
  241.7554    1.7568   49.6452 LP  0  0  0  0  0  0  0  0  0  0  0  0  # atno 27196 bound_to 6500
  242.4283   -0.9153   50.1314 LP  0  0  0  0  0  0  0  0  0  0  0  0  # atno 27197 bound_to 6573
  240.2664   -0.6206   45.6001 LP  0  0  0  0  0  0  0  0  0  0  0  0  # atno 27198 bound_to 6576
  241.5410    0.2237   46.4141 LP  0  0  0  0  0  0  0  0  0  0  0  0  # atno 27199 bound_to 6576
  240.0510   -1.0259   48.4431 LP  0  0  0  0  0  0  0  0  0  0  0  0  # atno 27200 bound_to 6661
  241.4690   -3.7035   40.2731 LP  0  0  0  0  0  0  0  0  0  0  0  0  # atno 27201 bound_to 7890
  242.9114   -4.1381   39.4183 LP  0  0  0  0  0  0  0  0  0  0  0  0  # atno 27202 bound_to 7890
  245.6143   -2.5966   39.0116 LP  0  0  0  0  0  0  0  0  0  0  0  0  # atno 27203 bound_to 8025
  244.7848   -2.3573   42.3877 LP  0  0  0  0  0  0  0  0  0  0  0  0  # atno 27204 bound_to 8028
  246.2502   -2.9763   43.0728 LP  0  0  0  0  0  0  0  0  0  0  0  0  # atno 27205 bound_to 8028
  246.7693   -1.6597   41.6560 LP  0  0  0  0  0  0  0  0  0  0  0  0  # atno 27206 bound_to 8104
  249.5482    0.3287   44.5171 LP  0  0  0  0  0  0  0  0  0  0  0  0  # atno 27207 bound_to 8107
  248.5620    0.5244   43.1067 LP  0  0  0  0  0  0  0  0  0  0  0  0  # atno 27208 bound_to 8107
  248.6909   -1.4364   44.4073 LP  0  0  0  0  0  0  0  0  0  0  0  0  # atno 27209 bound_to 8166
  248.3400   -3.0125   47.4232 LP  0  0  0  0  0  0  0  0  0  0  0  0  # atno 27210 bound_to 8169
  249.2901   -2.4003   48.7357 LP  0  0  0  0  0  0  0  0  0  0  0  0  # atno 27211 bound_to 8169
  250.0370   -0.6338   46.6700 LP  0  0  0  0  0  0  0  0  0  0  0  0  # atno 27212 bound_to 8242
  250.5156   -0.6898   39.6892 LP  0  0  0  0  0  0  0  0  0  0  0  0  # atno 27213 bound_to 10098
  248.8644   -0.4564   40.1573 LP  0  0  0  0  0  0  0  0  0  0  0  0  # atno 27214 bound_to 10098
  250.6499    1.6155   46.1602 LP  0  0  0  0  0  0  0  0  0  0  0  0  # atno 27215 bound_to 10188
  249.0030    1.7778   46.6717 LP  0  0  0  0  0  0  0  0  0  0  0  0  # atno 27216 bound_to 10188
  249.0089    1.5786   50.4319 LP  0  0  0  0  0  0  0  0  0  0  0  0  # atno 27217 bound_to 8245
  250.4136    1.9927   49.5071 LP  0  0  0  0  0  0  0  0  0  0  0  0  # atno 27218 bound_to 8245
  249.4925   -1.2303   50.2821 LP  0  0  0  0  0  0  0  0  0  0  0  0  # atno 27219 bound_to 8313
  251.2977   -4.5426   40.6197 LP  0  0  0  0  0  0  0  0  0  0  0  0  # atno 27220 bound_to 9544
  252.2281   -5.1747   39.4359 LP  0  0  0  0  0  0  0  0  0  0  0  0  # atno 27221 bound_to 9544
  248.7146    2.4215   43.2618 LP  0  0  0  0  0  0  0  0  0  0  0  0  # atno 27222 bound_to 10185
  242.1251   -2.4981   38.4973 LP  0  0  0  0  0  0  0  0  0  0  0  0  # atno 27223 bound_to 7940
  246.4961   -0.8151   37.6706 LP  0  0  0  0  0  0  0  0  0  0  0  0  # atno 27224 bound_to 7943
  244.9410   -0.3221   37.0888 LP  0  0  0  0  0  0  0  0  0  0  0  0  # atno 27225 bound_to 7943
  240.4470    0.8655   39.9418 LP  0  0  0  0  0  0  0  0  0  0  0  0  # atno 27226 bound_to 7818
  242.0366    0.2991   39.5514 LP  0  0  0  0  0  0  0  0  0  0  0  0  # atno 27227 bound_to 7818
  239.6784   -0.8601   36.9861 LP  0  0  0  0  0  0  0  0  0  0  0  0  # atno 27228 bound_to 7887
  240.0619   -3.0657   36.4781 LP  0  0  0  0  0  0  0  0  0  0  0  0  # atno 27229 bound_to 7892
  238.6755   -3.9131   36.6404 LP  0  0  0  0  0  0  0  0  0  0  0  0  # atno 27230 bound_to 7892

> <Gold.Score>
     Fitness  S(hb_ext) S(vdw_ext)  S(hb_int)    S(int)      intcor
     28.43      13.41      10.99       0.00      -0.10      -0.76

> <Gold.Goldscore.Fitness>
28.4253

> <Gold.Goldscore.Internal.Vdw>
-0.3710

> <Gold.Goldscore.Internal.Torsion>
-0.4839

> <Gold.Goldscore.External.Vdw>
10.9886

> <Gold.Goldscore.Internal.HBond>
0.0000

> <Gold.Goldscore.External.HBond>
13.4130

> <Gold.Goldscore.Internal.Correction>
-0.7579

> <Gold.Goldscore.Hbonds>
donor molecule, donor type, donor heavy atom, donor atom, acceptor molecule, acceptor atom, score
      P1  H  6812  6863       L1     9  1.00
      P1  H  8111  8143       L1    11  0.14
      P1  H  8166  8200       L1    17  0.56
      L1  H    10    23       P1  8112  1.00

> <Gold.Goldscore.Internal.Vdw.Weighted>
-0.3710

> <Gold.Goldscore.Internal.Torsion.Weighted>
-0.4839

> <Gold.Goldscore.External.Vdw.Weighted>
15.1093

> <Gold.Goldscore.Internal.HBond.Weighted>
0.0000

> <Gold.Goldscore.External.HBond.Weighted>
13.4130

> <Gold.Goldscore.Internal.Correction.Weighted>
-0.7579

> <Gold.Rescore>
     Score     S(PLP)   S(hbond)     S(cho)   S(metal)  DE(clash)   DE(tors)     intcor
     25.17     -13.46       3.91       0.00       0.00       0.00       0.01       ----

> <Gold.PLP.Fitness>
25.1661

> <Gold.PLP.PLP>
-13.4601

> <Gold.PLP.part.hbond>
-4.0000

> <Gold.PLP.part.metal>
0.0000

> <Gold.PLP.part.buried>
-1.4945

> <Gold.PLP.part.nonpolar>
-8.7062

> <Gold.PLP.part.repulsive>
0.4611

> <Gold.PLP.ligand.clash>
0.0000

> <Gold.PLP.ligand.torsion>
0.0150

> <Gold.PLP.Chemscore.Hbond>
3.9120

> <Gold.PLP.Chemscore.CHOScore>
0.0000

> <Gold.PLP.Chemscore.Metal>
0.0000

> <Gold.Chemscore.Hbonds>
donor molecule, donor type, donor heavy atom, donor atom, acceptor molecule, acceptor atom, score
      L1  H    10    23       P1  8112  0.45
      P1  H  6812  6863       L1     9  1.00
      P1  H  8111  8143       L1    11  0.91
      P1  H  8166  8200       L1    17  0.75

> <Gold.PLP.Chemscore.Internal.Correction>
   9.000000E+99

#       Name:                CT1002167954
#       Creating user name   hitesit
#       Creation time:       Sun Apr 16 23:07:42 2023


#       File generated by GOLD software.
#

@<TRIPOS>MOLECULE
CT1002167954|ligand_prepared|mol2|1|dock4
    29    30     1
SMALL
NO_CHARGES


@<TRIPOS>ATOM
      1 C1         246.1992  -6.9206  43.4499 C.3            1 RES1               0.0000
      2 C2         246.4921  -6.4588  44.8921 C.ar           1 RES1               0.0000
      3 C3         245.0661  -6.0358  42.9385 C.2            1 RES1               0.0000
      4 C4         247.5055  -6.7662  42.6790 C.2            1 RES1               0.0000
      5 C5         245.7544  -8.3980  43.3451 C.3            1 RES1               0.0000
      6 C6         247.0409  -5.2034  45.1365 C.ar           1 RES1               0.0000
      7 C7         246.2169  -7.2744  45.9864 C.ar           1 RES1               0.0000
      8 N8         245.3803  -5.0696  42.0288 N.am           1 RES1               0.0000
      9 O9         243.9214  -6.1581  43.3567 O.2            1 RES1               0.0000
     10 N10        247.5499  -5.8402  41.6698 N.am           1 RES1               0.0000
     11 O11        248.5018  -7.4262  42.9473 O.2            1 RES1               0.0000
     12 C12        245.5779  -8.8852  41.9156 C.3            1 RES1               0.0000
     13 C13        247.3023  -4.7777  46.4282 C.ar           1 RES1               0.0000
     14 C14        246.4793  -6.8467  47.2774 C.ar           1 RES1               0.0000
     15 C15        246.5559  -4.9634  41.3300 C.2            1 RES1               0.0000
     16 C16        247.0214  -5.5987  47.4995 C.ar           1 RES1               0.0000
     17 O17        246.6902  -4.1223  40.4459 O.2            1 RES1               0.0000
     18 H18        246.5017  -9.0279  43.8432 H              1 RES1               0.0000
     19 H19        244.8040  -8.5193  43.8794 H              1 RES1               0.0000
     20 H20        247.2709  -4.5445  44.3059 H              1 RES1               0.0000
     21 H21        245.7912  -8.2606  45.8355 H              1 RES1               0.0000
     22 H22        244.6761  -4.3604  41.8517 H              1 RES1               0.0000
     23 H23        248.4028  -5.8011  41.1209 H              1 RES1               0.0000
     24 H24        245.2654  -9.9272  41.8991 H              1 RES1               0.0000
     25 H25        244.8232  -8.2968  41.3979 H              1 RES1               0.0000
     26 H26        246.5109  -8.8024  41.3620 H              1 RES1               0.0000
     27 H27        247.7303  -3.7951  46.5976 H              1 RES1               0.0000
     28 H28        246.2572  -7.4964  48.1175 H              1 RES1               0.0000
     29 H29        247.2260  -5.2647  48.5113 H              1 RES1               0.0000
@<TRIPOS>BOND
    1    1    2 1     
    2    1    3 1     
    3    1    4 1     
    4    1    5 1     
    5    2    6 ar    
    6    2    7 ar    
    7    3    8 1     
    8    3    9 2     
    9    4   10 1     
   10    4   11 2     
   11    5   12 1     
   12    5   18 1     
   13    5   19 1     
   14    6   13 ar    
   15    6   20 1     
   16    7   14 ar    
   17    7   21 1     
   18    8   15 1     
   19    8   22 1     
   20   10   15 1     
   21   10   23 1     
   22   12   24 1     
   23   12   25 1     
   24   12   26 1     
   25   13   16 ar    
   26   13   27 1     
   27   14   16 ar    
   28   14   28 1     
   29   15   17 2     
   30   16   29 1     
@<TRIPOS>SUBSTRUCTURE
      1 RES1           1
@<TRIPOS>SET
DONOR_HYDROGENS      STATIC     ATOMS    <user>   **** ""
2 22 23
ATOM$RED        STATIC     ATOMS    COLORGROUP SYSTEM
2 22 23
@<TRIPOS>COMMENT
> <Gold.Version>
2022.3.0

> <Gold.Id.Protein>
unknown|4d1n_clean|pdb

> <Gold.Protein.RotatedTorsions>
[ 6614 6573 6574 6575 ] final -133.97 input  116.02 | X-H torsion
[ 6700 6661 6662 6663 ] final    0.42 input  125.25 | X-H torsion
[ 8066 8025 8026 8027 ] final  -95.17 input   31.90 | X-H torsion
[ 8137 8104 8105 8106 ] final -145.82 input   91.64 | X-H torsion
[ 8200 8166 8167 8168 ] final    3.64 input   70.29 | X-H torsion
[ 8280 8242 8243 8244 ] final  -90.23 input   89.64 | X-H torsion
[ 8333 8313 8314 8315 ] final   50.35 input   85.58 | X-H torsion
[ 9580 9544 9543 9541 ] final   67.12 input   60.01 | X-H torsion
[ 10226 10185 10186 10187 ] final   18.97 input   40.00 | X-H torsion
[ 7988 7940 7941 7942 ] final   -3.87 input   82.26 | X-H torsion
[ 7908 7887 7888 7889 ] final   60.75 input   90.27 | X-H torsion
[ 7912 7892 7891 7888 ] final  -46.97 input   59.97 | X-H torsion
[ 6852 6804 6805 6806 ] final   34.36 input  117.17 | X-H torsion
[ 27193 6336 6335 6334 ] final  -57.34 input   -0.00 | X-H torsion
[ 27195 6500 6499 6498 ] final -175.58 input    0.00 | X-H torsion
[ 27198 6576 6575 6574 ] final  168.84 input   -0.00 | X-H torsion
[ 27201 7890 7889 7888 ] final -145.49 input    0.00 | X-H torsion
[ 27204 8028 8027 8026 ] final -123.07 input   -0.00 | X-H torsion
[ 27207 8107 8106 8105 ] final -102.59 input    0.00 | X-H torsion
[ 27210 8169 8168 8167 ] final -129.83 input    0.00 | X-H torsion
[ 27213 10098 10097 10096 ] final   71.28 input    0.00 | X-H torsion
[ 27215 10188 10187 10186 ] final  138.93 input   -0.00 | X-H torsion
[ 27217 8245 8244 8243 ] final  -53.80 input   -0.00 | X-H torsion
[ 27224 7943 7942 7941 ] final  -31.85 input    0.00 | X-H torsion
[ 27226 7818 7817 7816 ] final -174.54 input    0.00 | X-H torsion

> <Gold.Protein.ActiveResidues>
 ASP403  THR404  LEU406  ILE407  TYR408  ALA410  LYS411  TRP414  TRP426  SER427 
 LYS428  LEU429  GLN430  VAL431  PHE432  ASP433  TYR453  SER462  ALA463  ILE464 
 ILE466 

> <Gold.Protein.RotatedAtoms>
  242.4655   -0.9456   50.1345 H   0  0  0  0  0  0  0  0  0  0  0  0  # atno 6614 bound_to 6573
  240.1946   -0.9313   48.1511 H   0  0  0  0  0  0  0  0  0  0  0  0  # atno 6700 bound_to 6661
  239.9731    2.1382   45.1898 H   0  0  0  0  0  0  0  0  0  0  0  0  # atno 6852 bound_to 6804
  240.5680   -1.0624   36.6844 H   0  0  0  0  0  0  0  0  0  0  0  0  # atno 7908 bound_to 7887
  239.7673   -2.9966   36.3915 H   0  0  0  0  0  0  0  0  0  0  0  0  # atno 7912 bound_to 7892
  242.5124   -1.4950   38.1716 H   0  0  0  0  0  0  0  0  0  0  0  0  # atno 7988 bound_to 7940
  245.5757   -2.3757   38.8075 H   0  0  0  0  0  0  0  0  0  0  0  0  # atno 8066 bound_to 8025
  247.2036   -2.1037   41.0935 H   0  0  0  0  0  0  0  0  0  0  0  0  # atno 8137 bound_to 8104
  248.7304   -2.4099   45.1465 H   0  0  0  0  0  0  0  0  0  0  0  0  # atno 8200 bound_to 8166
  249.1057   -0.9679   47.3878 H   0  0  0  0  0  0  0  0  0  0  0  0  # atno 8280 bound_to 8242
  250.7873   -1.3930   50.9684 H   0  0  0  0  0  0  0  0  0  0  0  0  # atno 8333 bound_to 8313
  251.4860   -4.8663   40.5907 H   0  0  0  0  0  0  0  0  0  0  0  0  # atno 9580 bound_to 9544
  249.6847    1.8469   44.1374 H   0  0  0  0  0  0  0  0  0  0  0  0  # atno 10226 bound_to 10185
  242.2810   -2.5617   51.7446 LP  0  0  0  0  0  0  0  0  0  0  0  0  # atno 27193 bound_to 6336
  242.4474   -3.9742   50.7561 LP  0  0  0  0  0  0  0  0  0  0  0  0  # atno 27194 bound_to 6336
  241.8204    0.6858   48.2887 LP  0  0  0  0  0  0  0  0  0  0  0  0  # atno 27195 bound_to 6500
  241.6623    1.7604   49.6379 LP  0  0  0  0  0  0  0  0  0  0  0  0  # atno 27196 bound_to 6500
  240.8452   -1.5953   50.0416 LP  0  0  0  0  0  0  0  0  0  0  0  0  # atno 27197 bound_to 6573
  240.0779   -0.3394   45.7879 LP  0  0  0  0  0  0  0  0  0  0  0  0  # atno 27198 bound_to 6576
  241.7296   -0.0574   46.2262 LP  0  0  0  0  0  0  0  0  0  0  0  0  # atno 27199 bound_to 6576
  239.7472   -2.6118   47.9500 LP  0  0  0  0  0  0  0  0  0  0  0  0  # atno 27200 bound_to 6661
  243.0147   -3.6557   39.8490 LP  0  0  0  0  0  0  0  0  0  0  0  0  # atno 27201 bound_to 7890
  241.3658   -4.1859   39.8424 LP  0  0  0  0  0  0  0  0  0  0  0  0  # atno 27202 bound_to 7890
  244.1654   -2.2931   39.8406 LP  0  0  0  0  0  0  0  0  0  0  0  0  # atno 27203 bound_to 8025
  245.7914   -2.1786   43.3910 LP  0  0  0  0  0  0  0  0  0  0  0  0  # atno 27204 bound_to 8028
  245.2435   -3.1550   42.0695 LP  0  0  0  0  0  0  0  0  0  0  0  0  # atno 27205 bound_to 8028
  247.7921   -0.5406   41.6048 LP  0  0  0  0  0  0  0  0  0  0  0  0  # atno 27206 bound_to 8104
  249.7979    0.2104   44.2012 LP  0  0  0  0  0  0  0  0  0  0  0  0  # atno 27207 bound_to 8107
  248.3124    0.6427   43.4226 LP  0  0  0  0  0  0  0  0  0  0  0  0  # atno 27208 bound_to 8107
  247.4671   -1.5526   44.2960 LP  0  0  0  0  0  0  0  0  0  0  0  0  # atno 27209 bound_to 8166
  248.8719   -2.3236   48.8542 LP  0  0  0  0  0  0  0  0  0  0  0  0  # atno 27210 bound_to 8169
  248.7581   -3.0892   47.3047 LP  0  0  0  0  0  0  0  0  0  0  0  0  # atno 27211 bound_to 8169
  249.9014    0.5425   47.0233 LP  0  0  0  0  0  0  0  0  0  0  0  0  # atno 27212 bound_to 8242
  250.4574   -0.7265   39.5522 LP  0  0  0  0  0  0  0  0  0  0  0  0  # atno 27213 bound_to 10098
  248.9227   -0.4197   40.2943 LP  0  0  0  0  0  0  0  0  0  0  0  0  # atno 27214 bound_to 10098
  250.6405    1.7405   46.7081 LP  0  0  0  0  0  0  0  0  0  0  0  0  # atno 27215 bound_to 10188
  249.0124    1.6528   46.1238 LP  0  0  0  0  0  0  0  0  0  0  0  0  # atno 27216 bound_to 10188
  250.5011    2.0121   49.6959 LP  0  0  0  0  0  0  0  0  0  0  0  0  # atno 27217 bound_to 8245
  248.9214    1.5592   50.2431 LP  0  0  0  0  0  0  0  0  0  0  0  0  # atno 27218 bound_to 8245
  249.7029   -0.3505   50.0769 LP  0  0  0  0  0  0  0  0  0  0  0  0  # atno 27219 bound_to 8313
  252.2415   -4.9289   39.1504 LP  0  0  0  0  0  0  0  0  0  0  0  0  # atno 27220 bound_to 9544
  251.3480   -3.6219   39.5507 LP  0  0  0  0  0  0  0  0  0  0  0  0  # atno 27221 bound_to 9544
  249.4250    2.9582   42.8143 LP  0  0  0  0  0  0  0  0  0  0  0  0  # atno 27222 bound_to 10185
  241.9358   -2.8613   37.2419 LP  0  0  0  0  0  0  0  0  0  0  0  0  # atno 27223 bound_to 7940
  245.7536   -1.0828   36.6837 LP  0  0  0  0  0  0  0  0  0  0  0  0  # atno 27224 bound_to 7943
  245.6835   -0.0545   38.0757 LP  0  0  0  0  0  0  0  0  0  0  0  0  # atno 27225 bound_to 7943
  241.2707   -0.2721   39.8850 LP  0  0  0  0  0  0  0  0  0  0  0  0  # atno 27226 bound_to 7818
  241.2129    1.4367   39.6082 LP  0  0  0  0  0  0  0  0  0  0  0  0  # atno 27227 bound_to 7818
  240.2118    0.0030   38.0183 LP  0  0  0  0  0  0  0  0  0  0  0  0  # atno 27228 bound_to 7887
  238.7310   -4.1877   36.7864 LP  0  0  0  0  0  0  0  0  0  0  0  0  # atno 27229 bound_to 7892
  240.3170   -4.3278   37.1493 LP  0  0  0  0  0  0  0  0  0  0  0  0  # atno 27230 bound_to 7892

> <Gold.Score>
     Fitness  S(hb_ext) S(vdw_ext)  S(hb_int)    S(int)      intcor
     27.85       6.31      15.67       0.00      -0.01      -0.76

> <Gold.Goldscore.Fitness>
27.8497

> <Gold.Goldscore.Internal.Vdw>
-0.3681

> <Gold.Goldscore.Internal.Torsion>
-0.4028

> <Gold.Goldscore.External.Vdw>
15.6727

> <Gold.Goldscore.Internal.HBond>
0.0000

> <Gold.Goldscore.External.HBond>
6.3128

> <Gold.Goldscore.Internal.Correction>
-0.7579

> <Gold.Goldscore.Hbonds>
donor molecule, donor type, donor heavy atom, donor atom, acceptor molecule, acceptor atom, score
      P1  H  6812  6863       L1     9  1.00
      P1  H  8104  8137       L1    17  0.01
      P1  H  8111  8143       L1    11  0.15

> <Gold.Goldscore.Internal.Vdw.Weighted>
-0.3681

> <Gold.Goldscore.Internal.Torsion.Weighted>
-0.4028

> <Gold.Goldscore.External.Vdw.Weighted>
21.5500

> <Gold.Goldscore.Internal.HBond.Weighted>
0.0000

> <Gold.Goldscore.External.HBond.Weighted>
6.3128

> <Gold.Goldscore.Internal.Correction.Weighted>
-0.7579

> <Gold.Rescore>
     Score     S(PLP)   S(hbond)     S(cho)   S(metal)  DE(clash)   DE(tors)     intcor
     28.75     -22.76       2.22       0.00       0.00       0.00       0.33       ----

> <Gold.PLP.Fitness>
28.7494

> <Gold.PLP.PLP>
-22.7551

> <Gold.PLP.part.hbond>
-3.7666

> <Gold.PLP.part.metal>
0.0000

> <Gold.PLP.part.buried>
-1.5224

> <Gold.PLP.part.nonpolar>
-18.2591

> <Gold.PLP.part.repulsive>
0.4178

> <Gold.PLP.ligand.clash>
0.0000

> <Gold.PLP.ligand.torsion>
0.3268

> <Gold.PLP.Chemscore.Hbond>
2.2160

> <Gold.PLP.Chemscore.CHOScore>
0.0000

> <Gold.PLP.Chemscore.Metal>
0.0000

> <Gold.Chemscore.Hbonds>
donor molecule, donor type, donor heavy atom, donor atom, acceptor molecule, acceptor atom, score
      L1  H     8    22       P1  8028  0.02
      P1  H  6812  6863       L1     9  1.00
      P1  H  8104  8137       L1    17  0.74
      P1  H  8111  8143       L1    11  0.80

> <Gold.PLP.Chemscore.Internal.Correction>
   9.000000E+99

#       Name:                CT1002167954
#       Creating user name   hitesit
#       Creation time:       Sun Apr 16 23:07:42 2023


#       File generated by GOLD software.
#

@<TRIPOS>MOLECULE
CT1002167954|ligand_prepared|mol2|1|dock5
    29    30     1
SMALL
NO_CHARGES


@<TRIPOS>ATOM
      1 C1         246.5366  -6.8066  43.1491 C.3            1 RES1               0.0000
      2 C2         247.1766  -6.3659  44.4814 C.ar           1 RES1               0.0000
      3 C3         245.5170  -5.7307  42.7870 C.2            1 RES1               0.0000
      4 C4         247.6806  -6.9409  42.1501 C.2            1 RES1               0.0000
      5 C5         245.8075  -8.1682  43.2264 C.3            1 RES1               0.0000
      6 C6         248.1001  -7.1819  45.1280 C.ar           1 RES1               0.0000
      7 C7         246.8561  -5.1473  45.0736 C.ar           1 RES1               0.0000
      8 N8         245.8332  -4.8766  41.7719 N.am           1 RES1               0.0000
      9 O9         244.4688  -5.6086  43.4088 O.2            1 RES1               0.0000
     10 N10        247.7104  -6.0757  41.0879 N.am           1 RES1               0.0000
     11 O11        248.5656  -7.7774  42.2823 O.2            1 RES1               0.0000
     12 C12        245.2739  -8.6548  41.8883 C.3            1 RES1               0.0000
     13 C13        248.6843  -6.7924  46.3219 C.ar           1 RES1               0.0000
     14 C14        247.4413  -4.7598  46.2678 C.ar           1 RES1               0.0000
     15 C15        246.8555  -5.0298  40.8702 C.2            1 RES1               0.0000
     16 C16        248.3557  -5.5811  46.8923 C.ar           1 RES1               0.0000
     17 O17        246.9794  -4.2615  39.9207 O.2            1 RES1               0.0000
     18 H18        246.5021  -8.9186  43.6236 H              1 RES1               0.0000
     19 H19        244.9701  -8.0809  43.9297 H              1 RES1               0.0000
     20 H20        248.3693  -8.1397  44.6954 H              1 RES1               0.0000
     21 H21        246.1385  -4.4855  44.6007 H              1 RES1               0.0000
     22 H22        245.2561  -4.0473  41.6742 H              1 RES1               0.0000
     23 H23        248.4372  -6.2254  40.3952 H              1 RES1               0.0000
     24 H24        244.7717  -9.6136  41.9989 H              1 RES1               0.0000
     25 H25        244.5606  -7.9442  41.4759 H              1 RES1               0.0000
     26 H26        246.0835  -8.7770  41.1716 H              1 RES1               0.0000
     27 H27        249.4024  -7.4430  46.8101 H              1 RES1               0.0000
     28 H28        247.1792  -3.8059  46.7134 H              1 RES1               0.0000
     29 H29        248.8137  -5.2761  47.8274 H              1 RES1               0.0000
@<TRIPOS>BOND
    1    1    2 1     
    2    1    3 1     
    3    1    4 1     
    4    1    5 1     
    5    2    6 ar    
    6    2    7 ar    
    7    3    8 1     
    8    3    9 2     
    9    4   10 1     
   10    4   11 2     
   11    5   12 1     
   12    5   18 1     
   13    5   19 1     
   14    6   13 ar    
   15    6   20 1     
   16    7   14 ar    
   17    7   21 1     
   18    8   15 1     
   19    8   22 1     
   20   10   15 1     
   21   10   23 1     
   22   12   24 1     
   23   12   25 1     
   24   12   26 1     
   25   13   16 ar    
   26   13   27 1     
   27   14   16 ar    
   28   14   28 1     
   29   15   17 2     
   30   16   29 1     
@<TRIPOS>SUBSTRUCTURE
      1 RES1           1
@<TRIPOS>SET
DONOR_HYDROGENS      STATIC     ATOMS    <user>   **** ""
2 22 23
ATOM$RED        STATIC     ATOMS    COLORGROUP SYSTEM
2 22 23
@<TRIPOS>COMMENT
> <Gold.Version>
2022.3.0

> <Gold.Id.Protein>
unknown|4d1n_clean|pdb

> <Gold.Protein.RotatedTorsions>
[ 6614 6573 6574 6575 ] final   50.61 input  116.02 | X-H torsion
[ 6700 6661 6662 6663 ] final  101.78 input  125.25 | X-H torsion
[ 8066 8025 8026 8027 ] final  -46.06 input   31.90 | X-H torsion
[ 8137 8104 8105 8106 ] final   86.27 input   91.64 | X-H torsion
[ 8200 8166 8167 8168 ] final  105.91 input   70.29 | X-H torsion
[ 8280 8242 8243 8244 ] final   77.85 input   89.64 | X-H torsion
[ 8333 8313 8314 8315 ] final   34.21 input   85.58 | X-H torsion
[ 9580 9544 9543 9541 ] final   79.70 input   60.01 | X-H torsion
[ 10226 10185 10186 10187 ] final  -30.28 input   40.00 | X-H torsion
[ 7988 7940 7941 7942 ] final -103.61 input   82.26 | X-H torsion
[ 7908 7887 7888 7889 ] final   22.21 input   90.27 | X-H torsion
[ 7912 7892 7891 7888 ] final -149.49 input   59.97 | X-H torsion
[ 6852 6804 6805 6806 ] final -123.12 input  117.17 | X-H torsion
[ 27193 6336 6335 6334 ] final  163.76 input   -0.00 | X-H torsion
[ 27195 6500 6499 6498 ] final -127.33 input    0.00 | X-H torsion
[ 27198 6576 6575 6574 ] final   24.03 input   -0.00 | X-H torsion
[ 27201 7890 7889 7888 ] final   19.65 input    0.00 | X-H torsion
[ 27204 8028 8027 8026 ] final  133.02 input   -0.00 | X-H torsion
[ 27207 8107 8106 8105 ] final  -91.53 input    0.00 | X-H torsion
[ 27210 8169 8168 8167 ] final -160.10 input    0.00 | X-H torsion
[ 27213 10098 10097 10096 ] final  -55.31 input    0.00 | X-H torsion
[ 27215 10188 10187 10186 ] final   82.79 input   -0.00 | X-H torsion
[ 27217 8245 8244 8243 ] final    8.60 input   -0.00 | X-H torsion
[ 27224 7943 7942 7941 ] final  -90.76 input    0.00 | X-H torsion
[ 27226 7818 7817 7816 ] final  110.47 input    0.00 | X-H torsion

> <Gold.Protein.ActiveResidues>
 ASP403  THR404  LEU406  ILE407  TYR408  ALA410  LYS411  TRP414  TRP426  SER427 
 LYS428  LEU429  GLN430  VAL431  PHE432  ASP433  TYR453  SER462  ALA463  ILE464 
 ILE466 

> <Gold.Protein.RotatedAtoms>
  240.8530   -1.6683   50.0499 H   0  0  0  0  0  0  0  0  0  0  0  0  # atno 6614 bound_to 6573
  239.5384   -1.9457   48.8126 H   0  0  0  0  0  0  0  0  0  0  0  0  # atno 6700 bound_to 6661
  241.6257    2.2867   44.6718 H   0  0  0  0  0  0  0  0  0  0  0  0  # atno 6852 bound_to 6804
  241.0634   -0.8640   36.9077 H   0  0  0  0  0  0  0  0  0  0  0  0  # atno 7908 bound_to 7887
  238.6823   -3.9383   36.6562 H   0  0  0  0  0  0  0  0  0  0  0  0  # atno 7912 bound_to 7892
  242.0421   -2.7569   38.3604 H   0  0  0  0  0  0  0  0  0  0  0  0  # atno 7988 bound_to 7940
  245.5824   -2.8491   39.3744 H   0  0  0  0  0  0  0  0  0  0  0  0  # atno 8066 bound_to 8025
  248.2332   -0.8979   41.0887 H   0  0  0  0  0  0  0  0  0  0  0  0  # atno 8137 bound_to 8104
  247.3696   -2.4328   44.9431 H   0  0  0  0  0  0  0  0  0  0  0  0  # atno 8200 bound_to 8166
  249.7839    0.6263   47.1341 H   0  0  0  0  0  0  0  0  0  0  0  0  # atno 8280 bound_to 8242
  250.9296   -1.1890   50.9654 H   0  0  0  0  0  0  0  0  0  0  0  0  # atno 8333 bound_to 8313
  251.3793   -4.6935   40.6210 H   0  0  0  0  0  0  0  0  0  0  0  0  # atno 9580 bound_to 9544
  250.2933    2.1825   43.8948 H   0  0  0  0  0  0  0  0  0  0  0  0  # atno 10226 bound_to 10185
  241.8699   -3.7845   50.7616 LP  0  0  0  0  0  0  0  0  0  0  0  0  # atno 27193 bound_to 6336
  242.8585   -2.7515   51.7391 LP  0  0  0  0  0  0  0  0  0  0  0  0  # atno 27194 bound_to 6336
  241.1526    0.8686   48.4363 LP  0  0  0  0  0  0  0  0  0  0  0  0  # atno 27195 bound_to 6500
  242.3301    1.5776   49.4903 LP  0  0  0  0  0  0  0  0  0  0  0  0  # atno 27196 bound_to 6500
  242.4170   -0.8908   50.1241 LP  0  0  0  0  0  0  0  0  0  0  0  0  # atno 27197 bound_to 6573
  241.7190   -0.4736   45.9088 LP  0  0  0  0  0  0  0  0  0  0  0  0  # atno 27198 bound_to 6576
  240.0885    0.0768   46.1054 LP  0  0  0  0  0  0  0  0  0  0  0  0  # atno 27199 bound_to 6576
  240.3813   -1.6316   47.3108 LP  0  0  0  0  0  0  0  0  0  0  0  0  # atno 27200 bound_to 6661
  241.3448   -4.0280   40.0000 LP  0  0  0  0  0  0  0  0  0  0  0  0  # atno 27201 bound_to 7890
  243.0356   -3.8135   39.6914 LP  0  0  0  0  0  0  0  0  0  0  0  0  # atno 27202 bound_to 7890
  244.1589   -1.8345   39.2913 LP  0  0  0  0  0  0  0  0  0  0  0  0  # atno 27203 bound_to 8025
  246.1113   -3.2948   42.6753 LP  0  0  0  0  0  0  0  0  0  0  0  0  # atno 27204 bound_to 8028
  244.9236   -2.0389   42.7852 LP  0  0  0  0  0  0  0  0  0  0  0  0  # atno 27205 bound_to 8028
  246.7835   -1.7217   41.6095 LP  0  0  0  0  0  0  0  0  0  0  0  0  # atno 27206 bound_to 8104
  249.8504    0.1764   44.0464 LP  0  0  0  0  0  0  0  0  0  0  0  0  # atno 27207 bound_to 8107
  248.2599    0.6766   43.5774 LP  0  0  0  0  0  0  0  0  0  0  0  0  # atno 27208 bound_to 8107
  248.7974   -1.5302   44.4948 LP  0  0  0  0  0  0  0  0  0  0  0  0  # atno 27209 bound_to 8166
  249.2995   -2.4034   48.7302 LP  0  0  0  0  0  0  0  0  0  0  0  0  # atno 27210 bound_to 8169
  248.3305   -3.0094   47.4287 LP  0  0  0  0  0  0  0  0  0  0  0  0  # atno 27211 bound_to 8169
  249.2346   -1.0249   47.2728 LP  0  0  0  0  0  0  0  0  0  0  0  0  # atno 27212 bound_to 8242
  248.9126   -0.6378   39.5472 LP  0  0  0  0  0  0  0  0  0  0  0  0  # atno 27213 bound_to 10098
  250.4675   -0.5084   40.2993 LP  0  0  0  0  0  0  0  0  0  0  0  0  # atno 27214 bound_to 10098
  250.5246    1.5645   45.9208 LP  0  0  0  0  0  0  0  0  0  0  0  0  # atno 27215 bound_to 10188
  249.1283    1.8288   46.9111 LP  0  0  0  0  0  0  0  0  0  0  0  0  # atno 27216 bound_to 10188
  249.8387    1.8432   49.1149 LP  0  0  0  0  0  0  0  0  0  0  0  0  # atno 27217 bound_to 8245
  249.5838    1.7280   50.8242 LP  0  0  0  0  0  0  0  0  0  0  0  0  # atno 27218 bound_to 8245
  249.5644   -0.5492   50.0797 LP  0  0  0  0  0  0  0  0  0  0  0  0  # atno 27219 bound_to 8313
  252.2453   -5.0749   39.2966 LP  0  0  0  0  0  0  0  0  0  0  0  0  # atno 27220 bound_to 9544
  251.4517   -3.6498   39.3741 LP  0  0  0  0  0  0  0  0  0  0  0  0  # atno 27221 bound_to 9544
  248.8297    2.6299   43.0516 LP  0  0  0  0  0  0  0  0  0  0  0  0  # atno 27222 bound_to 10185
  242.3911   -1.6397   37.0591 LP  0  0  0  0  0  0  0  0  0  0  0  0  # atno 27223 bound_to 7940
  246.4059   -1.0742   37.2314 LP  0  0  0  0  0  0  0  0  0  0  0  0  # atno 27224 bound_to 7943
  245.0312   -0.0631   37.5280 LP  0  0  0  0  0  0  0  0  0  0  0  0  # atno 27225 bound_to 7943
  240.4491    0.3734   40.0260 LP  0  0  0  0  0  0  0  0  0  0  0  0  # atno 27226 bound_to 7818
  242.0345    0.7912   39.4672 LP  0  0  0  0  0  0  0  0  0  0  0  0  # atno 27227 bound_to 7818
  239.7218   -0.1933   37.7974 LP  0  0  0  0  0  0  0  0  0  0  0  0  # atno 27228 bound_to 7887
  240.1043   -4.5124   37.2012 LP  0  0  0  0  0  0  0  0  0  0  0  0  # atno 27229 bound_to 7892
  240.0361   -3.0549   36.4679 LP  0  0  0  0  0  0  0  0  0  0  0  0  # atno 27230 bound_to 7892

> <Gold.Score>
     Fitness  S(hb_ext) S(vdw_ext)  S(hb_int)    S(int)      intcor
     27.52       6.27      17.35       0.00      -2.60      -0.76

> <Gold.Goldscore.Fitness>
27.5181

> <Gold.Goldscore.Internal.Vdw>
-2.9606

> <Gold.Goldscore.Internal.Torsion>
-0.4003

> <Gold.Goldscore.External.Vdw>
17.3497

> <Gold.Goldscore.Internal.HBond>
0.0000

> <Gold.Goldscore.External.HBond>
6.2653

> <Gold.Goldscore.Internal.Correction>
-0.7579

> <Gold.Goldscore.Hbonds>
donor molecule, donor type, donor heavy atom, donor atom, acceptor molecule, acceptor atom, score
      P1  H  6812  6863       L1     9  0.92
      P1  H  8025  8066       L1    17  0.34
      P1  H  8111  8143       L1    11  0.02
      L1  H     8    22       P1  8028  0.01

> <Gold.Goldscore.Internal.Vdw.Weighted>
-2.9606

> <Gold.Goldscore.Internal.Torsion.Weighted>
-0.4003

> <Gold.Goldscore.External.Vdw.Weighted>
23.8559

> <Gold.Goldscore.Internal.HBond.Weighted>
0.0000

> <Gold.Goldscore.External.HBond.Weighted>
6.2653

> <Gold.Goldscore.Internal.Correction.Weighted>
-0.7579

> <Gold.Rescore>
     Score     S(PLP)   S(hbond)     S(cho)   S(metal)  DE(clash)   DE(tors)     intcor
     32.10     -25.63       2.62       0.00       0.00       1.37       0.01       ----

> <Gold.PLP.Fitness>
32.1027

> <Gold.PLP.PLP>
-25.6260

> <Gold.PLP.part.hbond>
-3.8761

> <Gold.PLP.part.metal>
0.0000

> <Gold.PLP.part.buried>
-3.4792

> <Gold.PLP.part.nonpolar>
-21.0671

> <Gold.PLP.part.repulsive>
0.4176

> <Gold.PLP.ligand.clash>
1.3661

> <Gold.PLP.ligand.torsion>
0.0146

> <Gold.PLP.Chemscore.Hbond>
2.6240

> <Gold.PLP.Chemscore.CHOScore>
0.0000

> <Gold.PLP.Chemscore.Metal>
0.0000

> <Gold.Chemscore.Hbonds>
donor molecule, donor type, donor heavy atom, donor atom, acceptor molecule, acceptor atom, score
      L1  H     8    22       P1  8028  0.43
      P1  H  6812  6863       L1     9  1.00
      P1  H  8025  8066       L1    17  0.94
      P1  H  8111  8143       L1    11  0.19

> <Gold.PLP.Chemscore.Internal.Correction>
   9.000000E+99

#       Name:                CT1002167954
#       Creating user name   hitesit
#       Creation time:       Sun Apr 16 23:07:44 2023


#       File generated by GOLD software.
#

@<TRIPOS>MOLECULE
CT1002167954|ligand_prepared|mol2|1|dock8
    29    30     1
SMALL
NO_CHARGES


@<TRIPOS>ATOM
      1 C1         247.7551  -5.6162  39.1750 C.3            1 RES1               0.0000
      2 C2         247.7537  -6.6687  38.0476 C.ar           1 RES1               0.0000
      3 C3         249.2185  -5.3732  39.5325 C.2            1 RES1               0.0000
      4 C4         247.0396  -4.3913  38.6159 C.2            1 RES1               0.0000
      5 C5         247.0059  -6.0662  40.4508 C.3            1 RES1               0.0000
      6 C6         247.8411  -8.0255  38.3448 C.ar           1 RES1               0.0000
      7 C7         247.6631  -6.2991  36.7083 C.ar           1 RES1               0.0000
      8 N8         249.7825  -4.2009  39.1236 N.am           1 RES1               0.0000
      9 O9         249.8785  -6.2146  40.1297 O.2            1 RES1               0.0000
     10 N10        247.7693  -3.2442  38.4443 N.am           1 RES1               0.0000
     11 O11        245.8546  -4.4141  38.3070 O.2            1 RES1               0.0000
     12 C12        246.6967  -4.9302  41.4131 C.3            1 RES1               0.0000
     13 C13        247.8352  -8.9784  37.3397 C.ar           1 RES1               0.0000
     14 C14        247.6575  -7.2537  35.7047 C.ar           1 RES1               0.0000
     15 C15        249.1155  -3.1024  38.6439 C.2            1 RES1               0.0000
     16 C16        247.7429  -8.5933  36.0192 C.ar           1 RES1               0.0000
     17 O17        249.7107  -2.0533  38.4152 O.2            1 RES1               0.0000
     18 H18        246.0643  -6.5460  40.1567 H              1 RES1               0.0000
     19 H19        247.6150  -6.8148  40.9724 H              1 RES1               0.0000
     20 H20        247.9169  -8.3474  39.3780 H              1 RES1               0.0000
     21 H21        247.5960  -5.2509  36.4374 H              1 RES1               0.0000
     22 H22        250.7939  -4.1348  39.1796 H              1 RES1               0.0000
     23 H23        247.2619  -2.4196  38.1395 H              1 RES1               0.0000
     24 H24        246.1709  -5.3004  42.2907 H              1 RES1               0.0000
     25 H25        247.6126  -4.4464  41.7459 H              1 RES1               0.0000
     26 H26        246.0711  -4.1792  40.9350 H              1 RES1               0.0000
     27 H27        247.9040 -10.0313  37.5923 H              1 RES1               0.0000
     28 H28        247.5854  -6.9459  34.6667 H              1 RES1               0.0000
     29 H29        247.7379  -9.3400  35.2320 H              1 RES1               0.0000
@<TRIPOS>BOND
    1    1    2 1     
    2    1    3 1     
    3    1    4 1     
    4    1    5 1     
    5    2    6 ar    
    6    2    7 ar    
    7    3    8 1     
    8    3    9 2     
    9    4   10 1     
   10    4   11 2     
   11    5   12 1     
   12    5   18 1     
   13    5   19 1     
   14    6   13 ar    
   15    6   20 1     
   16    7   14 ar    
   17    7   21 1     
   18    8   15 1     
   19    8   22 1     
   20   10   15 1     
   21   10   23 1     
   22   12   24 1     
   23   12   25 1     
   24   12   26 1     
   25   13   16 ar    
   26   13   27 1     
   27   14   16 ar    
   28   14   28 1     
   29   15   17 2     
   30   16   29 1     
@<TRIPOS>SUBSTRUCTURE
      1 RES1           1
@<TRIPOS>SET
DONOR_HYDROGENS      STATIC     ATOMS    <user>   **** ""
2 22 23
ATOM$RED        STATIC     ATOMS    COLORGROUP SYSTEM
2 22 23
@<TRIPOS>COMMENT
> <Gold.Version>
2022.3.0

> <Gold.Id.Protein>
unknown|4d1n_clean|pdb

> <Gold.Protein.RotatedTorsions>
[ 6614 6573 6574 6575 ] final  125.95 input  116.02 | X-H torsion
[ 6700 6661 6662 6663 ] final -123.34 input  125.25 | X-H torsion
[ 8066 8025 8026 8027 ] final  -58.44 input   31.90 | X-H torsion
[ 8137 8104 8105 8106 ] final  -65.81 input   91.64 | X-H torsion
[ 8200 8166 8167 8168 ] final   12.48 input   70.29 | X-H torsion
[ 8280 8242 8243 8244 ] final   -7.01 input   89.64 | X-H torsion
[ 8333 8313 8314 8315 ] final -144.94 input   85.58 | X-H torsion
[ 9580 9544 9543 9541 ] final   14.59 input   60.01 | X-H torsion
[ 10226 10185 10186 10187 ] final   25.39 input   40.00 | X-H torsion
[ 7988 7940 7941 7942 ] final   34.74 input   82.26 | X-H torsion
[ 7908 7887 7888 7889 ] final  153.46 input   90.27 | X-H torsion
[ 7912 7892 7891 7888 ] final   96.03 input   59.97 | X-H torsion
[ 6852 6804 6805 6806 ] final   69.90 input  117.17 | X-H torsion
[ 27193 6336 6335 6334 ] final  -74.67 input   -0.00 | X-H torsion
[ 27195 6500 6499 6498 ] final   -0.63 input    0.00 | X-H torsion
[ 27198 6576 6575 6574 ] final   95.53 input   -0.00 | X-H torsion
[ 27201 7890 7889 7888 ] final  -42.42 input    0.00 | X-H torsion
[ 27204 8028 8027 8026 ] final   23.33 input   -0.00 | X-H torsion
[ 27207 8107 8106 8105 ] final  176.85 input    0.00 | X-H torsion
[ 27210 8169 8168 8167 ] final  148.82 input    0.00 | X-H torsion
[ 27213 10098 10097 10096 ] final   67.93 input    0.00 | X-H torsion
[ 27215 10188 10187 10186 ] final   58.25 input   -0.00 | X-H torsion
[ 27217 8245 8244 8243 ] final -109.17 input   -0.00 | X-H torsion
[ 27224 7943 7942 7941 ] final   70.51 input    0.00 | X-H torsion
[ 27226 7818 7817 7816 ] final  -96.07 input    0.00 | X-H torsion

> <Gold.Protein.ActiveResidues>
 ASP403  THR404  LEU406  ILE407  TYR408  ALA410  LYS411  TRP414  TRP426  SER427 
 LYS428  LEU429  GLN430  VAL431  PHE432  ASP433  TYR453  SER462  ALA463  ILE464 
 ILE466 

> <Gold.Protein.RotatedAtoms>
  241.8048   -2.1197   50.2968 H   0  0  0  0  0  0  0  0  0  0  0  0  # atno 6614 bound_to 6573
  240.1404   -2.2594   47.3151 H   0  0  0  0  0  0  0  0  0  0  0  0  # atno 6700 bound_to 6661
  240.1058    1.6183   45.2583 H   0  0  0  0  0  0  0  0  0  0  0  0  # atno 6852 bound_to 6804
  239.5234   -0.6253   37.2567 H   0  0  0  0  0  0  0  0  0  0  0  0  # atno 7908 bound_to 7887
  240.0232   -4.5527   37.2082 H   0  0  0  0  0  0  0  0  0  0  0  0  # atno 7912 bound_to 7892
  242.5381   -1.3650   37.5988 H   0  0  0  0  0  0  0  0  0  0  0  0  # atno 7988 bound_to 7940
  245.6342   -2.7538   39.2164 H   0  0  0  0  0  0  0  0  0  0  0  0  # atno 8066 bound_to 8025
  246.7640   -1.3656   41.8344 H   0  0  0  0  0  0  0  0  0  0  0  0  # atno 8137 bound_to 8104
  248.6307   -2.4911   45.1911 H   0  0  0  0  0  0  0  0  0  0  0  0  # atno 8200 bound_to 8166
  248.9165    0.1209   47.7690 H   0  0  0  0  0  0  0  0  0  0  0  0  # atno 8280 bound_to 8242
  249.5484   -0.5262   50.0756 H   0  0  0  0  0  0  0  0  0  0  0  0  # atno 8333 bound_to 8313
  251.9735   -5.3070   40.0858 H   0  0  0  0  0  0  0  0  0  0  0  0  # atno 9580 bound_to 9544
  249.5872    1.8297   44.1348 H   0  0  0  0  0  0  0  0  0  0  0  0  # atno 10226 bound_to 10185
  242.0323   -2.5866   51.6694 LP  0  0  0  0  0  0  0  0  0  0  0  0  # atno 27193 bound_to 6336
  242.6961   -3.9493   50.8313 LP  0  0  0  0  0  0  0  0  0  0  0  0  # atno 27194 bound_to 6336
  241.5870    1.7587   49.6261 LP  0  0  0  0  0  0  0  0  0  0  0  0  # atno 27195 bound_to 6500
  241.8957    0.6875   48.3005 LP  0  0  0  0  0  0  0  0  0  0  0  0  # atno 27196 bound_to 6500
  241.4892   -0.4507   49.8835 LP  0  0  0  0  0  0  0  0  0  0  0  0  # atno 27197 bound_to 6573
  240.8998   -0.8879   45.4831 LP  0  0  0  0  0  0  0  0  0  0  0  0  # atno 27198 bound_to 6576
  240.9077    0.4911   46.5311 LP  0  0  0  0  0  0  0  0  0  0  0  0  # atno 27199 bound_to 6576
  239.7996   -1.3285   48.7579 LP  0  0  0  0  0  0  0  0  0  0  0  0  # atno 27200 bound_to 6661
  241.8195   -3.4149   40.4429 LP  0  0  0  0  0  0  0  0  0  0  0  0  # atno 27201 bound_to 7890
  242.5610   -4.4267   39.2485 LP  0  0  0  0  0  0  0  0  0  0  0  0  # atno 27202 bound_to 7890
  244.1087   -1.9268   39.4444 LP  0  0  0  0  0  0  0  0  0  0  0  0  # atno 27203 bound_to 8025
  244.9132   -2.7824   42.1207 LP  0  0  0  0  0  0  0  0  0  0  0  0  # atno 27204 bound_to 8028
  246.1217   -2.5512   43.3398 LP  0  0  0  0  0  0  0  0  0  0  0  0  # atno 27205 bound_to 8028
  248.2228   -1.2636   40.8790 LP  0  0  0  0  0  0  0  0  0  0  0  0  # atno 27206 bound_to 8104
  248.8361    0.5861   44.6345 LP  0  0  0  0  0  0  0  0  0  0  0  0  # atno 27207 bound_to 8107
  249.2742    0.2670   42.9894 LP  0  0  0  0  0  0  0  0  0  0  0  0  # atno 27208 bound_to 8107
  247.5645   -1.4732   44.2524 LP  0  0  0  0  0  0  0  0  0  0  0  0  # atno 27209 bound_to 8166
  249.6773   -2.7029   48.1600 LP  0  0  0  0  0  0  0  0  0  0  0  0  # atno 27210 bound_to 8169
  247.9528   -2.7098   47.9989 LP  0  0  0  0  0  0  0  0  0  0  0  0  # atno 27211 bound_to 8169
  250.0874   -0.5280   46.6486 LP  0  0  0  0  0  0  0  0  0  0  0  0  # atno 27212 bound_to 8242
  250.4328   -0.7376   39.5094 LP  0  0  0  0  0  0  0  0  0  0  0  0  # atno 27213 bound_to 10098
  248.9473   -0.4086   40.3371 LP  0  0  0  0  0  0  0  0  0  0  0  0  # atno 27214 bound_to 10098
  250.2490    1.5177   45.6815 LP  0  0  0  0  0  0  0  0  0  0  0  0  # atno 27215 bound_to 10188
  249.4039    1.8756   47.1504 LP  0  0  0  0  0  0  0  0  0  0  0  0  # atno 27216 bound_to 10188
  250.3816    1.9582   50.4899 LP  0  0  0  0  0  0  0  0  0  0  0  0  # atno 27217 bound_to 8245
  249.0409    1.6130   49.4492 LP  0  0  0  0  0  0  0  0  0  0  0  0  # atno 27218 bound_to 8245
  250.9094   -1.1947   50.9463 LP  0  0  0  0  0  0  0  0  0  0  0  0  # atno 27219 bound_to 8313
  251.9640   -4.1788   38.9127 LP  0  0  0  0  0  0  0  0  0  0  0  0  # atno 27220 bound_to 9544
  251.1348   -3.9282   40.2969 LP  0  0  0  0  0  0  0  0  0  0  0  0  # atno 27221 bound_to 9544
  249.5203    2.9750   42.8169 LP  0  0  0  0  0  0  0  0  0  0  0  0  # atno 27222 bound_to 10185
  241.9110   -2.9871   37.7964 LP  0  0  0  0  0  0  0  0  0  0  0  0  # atno 27223 bound_to 7940
  244.9477   -0.1848   37.2879 LP  0  0  0  0  0  0  0  0  0  0  0  0  # atno 27224 bound_to 7943
  246.4894   -0.9525   37.4715 LP  0  0  0  0  0  0  0  0  0  0  0  0  # atno 27225 bound_to 7943
  242.0593    0.3990   39.5272 LP  0  0  0  0  0  0  0  0  0  0  0  0  # atno 27226 bound_to 7818
  240.4243    0.7656   39.9660 LP  0  0  0  0  0  0  0  0  0  0  0  0  # atno 27227 bound_to 7818
  241.2452   -0.4294   37.4522 LP  0  0  0  0  0  0  0  0  0  0  0  0  # atno 27228 bound_to 7887
  240.1134   -3.0903   36.4997 LP  0  0  0  0  0  0  0  0  0  0  0  0  # atno 27229 bound_to 7892
  238.6768   -3.8583   36.6135 LP  0  0  0  0  0  0  0  0  0  0  0  0  # atno 27230 bound_to 7892

> <Gold.Score>
     Fitness  S(hb_ext) S(vdw_ext)  S(hb_int)    S(int)      intcor
     21.28       2.34      14.41       0.00      -0.88      -0.76

> <Gold.Goldscore.Fitness>
21.2775

> <Gold.Goldscore.Internal.Vdw>
-0.9419

> <Gold.Goldscore.Internal.Torsion>
-0.6967

> <Gold.Goldscore.External.Vdw>
14.4147

> <Gold.Goldscore.Internal.HBond>
0.0000

> <Gold.Goldscore.External.HBond>
2.3381

> <Gold.Goldscore.Internal.Correction>
-0.7579

> <Gold.Goldscore.Hbonds>
donor molecule, donor type, donor heavy atom, donor atom, acceptor molecule, acceptor atom, score
      P1  H  8025  8066       L1    11  0.25
      P1  H  8111  8144       L1     9  0.01
      L1  H     8    22       P1  9544  0.30
      L1  H    10    23       P1  7943  0.61

> <Gold.Goldscore.Internal.Vdw.Weighted>
-0.9419

> <Gold.Goldscore.Internal.Torsion.Weighted>
-0.6967

> <Gold.Goldscore.External.Vdw.Weighted>
19.8202

> <Gold.Goldscore.Internal.HBond.Weighted>
0.0000

> <Gold.Goldscore.External.HBond.Weighted>
2.3381

> <Gold.Goldscore.Internal.Correction.Weighted>
-0.7579

> <Gold.Rescore>
     Score     S(PLP)   S(hbond)     S(cho)   S(metal)  DE(clash)   DE(tors)     intcor
     14.92     -14.78       0.81       0.00       0.00       0.22       1.03       ----

> <Gold.PLP.Fitness>
14.9200

> <Gold.PLP.PLP>
-14.7793

> <Gold.PLP.part.hbond>
-3.1492

> <Gold.PLP.part.metal>
0.0000

> <Gold.PLP.part.buried>
2.8559

> <Gold.PLP.part.nonpolar>
-15.5616

> <Gold.PLP.part.repulsive>
1.1095

> <Gold.PLP.ligand.clash>
0.2167

> <Gold.PLP.ligand.torsion>
1.0297

> <Gold.PLP.Chemscore.Hbond>
0.8056

> <Gold.PLP.Chemscore.CHOScore>
0.0000

> <Gold.PLP.Chemscore.Metal>
0.0000

> <Gold.Chemscore.Hbonds>
donor molecule, donor type, donor heavy atom, donor atom, acceptor molecule, acceptor atom, score
      L1  H     8    22       P1  9544  0.44
      P1  H  8025  8066       L1    11  0.45
      P1  H  8111  8144       L1     9  0.37
      P1  H  9544  9580       L1     9  0.14

> <Gold.PLP.Chemscore.Internal.Correction>
   9.000000E+99

#       Name:                CT1002167954
#       Creating user name   hitesit
#       Creation time:       Sun Apr 16 23:07:45 2023


#       File generated by GOLD software.
#

@<TRIPOS>MOLECULE
CT1002167954|ligand_prepared|mol2|1|dock10
    29    30     1
SMALL
NO_CHARGES


@<TRIPOS>ATOM
      1 C1         247.6295  -5.9528  38.7904 C.3            1 RES1               0.0000
      2 C2         246.5234  -6.7208  38.0383 C.ar           1 RES1               0.0000
      3 C3         246.9411  -4.7823  39.4863 C.2            1 RES1               0.0000
      4 C4         248.2706  -6.9542  39.7449 C.2            1 RES1               0.0000
      5 C5         248.7385  -5.3933  37.8693 C.3            1 RES1               0.0000
      6 C6         246.3286  -6.5273  36.6740 C.ar           1 RES1               0.0000
      7 C7         245.6931  -7.6263  38.6936 C.ar           1 RES1               0.0000
      8 N8         246.7753  -4.8596  40.8378 N.am           1 RES1               0.0000
      9 O9         246.5148  -3.8240  38.8537 O.2            1 RES1               0.0000
     10 N10        248.1255  -6.7419  41.0908 N.am           1 RES1               0.0000
     11 O11        248.8859  -7.9342  39.3434 O.2            1 RES1               0.0000
     12 C12        250.0021  -4.9842  38.6098 C.3            1 RES1               0.0000
     13 C13        245.3416  -7.2163  35.9889 C.ar           1 RES1               0.0000
     14 C14        244.7065  -8.3140  38.0065 C.ar           1 RES1               0.0000
     15 C15        247.3809  -5.7568  41.6804 C.2            1 RES1               0.0000
     16 C16        244.5302  -8.1103  36.6544 C.ar           1 RES1               0.0000
     17 O17        247.2540  -5.6632  42.8978 O.2            1 RES1               0.0000
     18 H18        248.9970  -6.1560  37.1244 H              1 RES1               0.0000
     19 H19        248.3454  -4.5207  37.3331 H              1 RES1               0.0000
     20 H20        246.9559  -5.8260  36.1339 H              1 RES1               0.0000
     21 H21        245.8128  -7.8017  39.7573 H              1 RES1               0.0000
     22 H22        246.1426  -4.1882  41.2611 H              1 RES1               0.0000
     23 H23        248.6183  -7.3769  41.7107 H              1 RES1               0.0000
     24 H24        250.7473  -4.5988  37.9172 H              1 RES1               0.0000
     25 H25        249.7863  -4.2085  39.3416 H              1 RES1               0.0000
     26 H26        250.4341  -5.8341  39.1341 H              1 RES1               0.0000
     27 H27        245.2061  -7.0513  34.9251 H              1 RES1               0.0000
     28 H28        244.0698  -9.0162  38.5345 H              1 RES1               0.0000
     29 H29        243.7574  -8.6502  36.1174 H              1 RES1               0.0000
@<TRIPOS>BOND
    1    1    2 1     
    2    1    3 1     
    3    1    4 1     
    4    1    5 1     
    5    2    6 ar    
    6    2    7 ar    
    7    3    8 1     
    8    3    9 2     
    9    4   10 1     
   10    4   11 2     
   11    5   12 1     
   12    5   18 1     
   13    5   19 1     
   14    6   13 ar    
   15    6   20 1     
   16    7   14 ar    
   17    7   21 1     
   18    8   15 1     
   19    8   22 1     
   20   10   15 1     
   21   10   23 1     
   22   12   24 1     
   23   12   25 1     
   24   12   26 1     
   25   13   16 ar    
   26   13   27 1     
   27   14   16 ar    
   28   14   28 1     
   29   15   17 2     
   30   16   29 1     
@<TRIPOS>SUBSTRUCTURE
      1 RES1           1
@<TRIPOS>SET
DONOR_HYDROGENS      STATIC     ATOMS    <user>   **** ""
2 22 23
ATOM$RED        STATIC     ATOMS    COLORGROUP SYSTEM
2 22 23
@<TRIPOS>COMMENT
> <Gold.Version>
2022.3.0

> <Gold.Id.Protein>
unknown|4d1n_clean|pdb

> <Gold.Protein.RotatedTorsions>
[ 6614 6573 6574 6575 ] final  -28.45 input  116.02 | X-H torsion
[ 6700 6661 6662 6663 ] final  148.32 input  125.25 | X-H torsion
[ 8066 8025 8026 8027 ] final  -48.83 input   31.90 | X-H torsion
[ 8137 8104 8105 8106 ] final -161.33 input   91.64 | X-H torsion
[ 8200 8166 8167 8168 ] final  112.57 input   70.29 | X-H torsion
[ 8280 8242 8243 8244 ] final  135.04 input   89.64 | X-H torsion
[ 8333 8313 8314 8315 ] final   14.93 input   85.58 | X-H torsion
[ 9580 9544 9543 9541 ] final   -1.84 input   60.01 | X-H torsion
[ 10226 10185 10186 10187 ] final  -18.39 input   40.00 | X-H torsion
[ 7988 7940 7941 7942 ] final   89.52 input   82.26 | X-H torsion
[ 7908 7887 7888 7889 ] final -108.31 input   90.27 | X-H torsion
[ 7912 7892 7891 7888 ] final   78.35 input   59.97 | X-H torsion
[ 6852 6804 6805 6806 ] final   65.04 input  117.17 | X-H torsion
[ 27193 6336 6335 6334 ] final  -15.32 input   -0.00 | X-H torsion
[ 27195 6500 6499 6498 ] final -104.17 input    0.00 | X-H torsion
[ 27198 6576 6575 6574 ] final   91.68 input   -0.00 | X-H torsion
[ 27201 7890 7889 7888 ] final  -33.81 input    0.00 | X-H torsion
[ 27204 8028 8027 8026 ] final -128.70 input   -0.00 | X-H torsion
[ 27207 8107 8106 8105 ] final  -51.15 input    0.00 | X-H torsion
[ 27210 8169 8168 8167 ] final -133.60 input    0.00 | X-H torsion
[ 27213 10098 10097 10096 ] final -152.68 input    0.00 | X-H torsion
[ 27215 10188 10187 10186 ] final  148.66 input   -0.00 | X-H torsion
[ 27217 8245 8244 8243 ] final  -22.73 input   -0.00 | X-H torsion
[ 27224 7943 7942 7941 ] final   14.29 input    0.00 | X-H torsion
[ 27226 7818 7817 7816 ] final  -88.31 input    0.00 | X-H torsion

> <Gold.Protein.ActiveResidues>
 ASP403  THR404  LEU406  ILE407  TYR408  ALA410  LYS411  TRP414  TRP426  SER427 
 LYS428  LEU429  GLN430  VAL431  PHE432  ASP433  TYR453  SER462  ALA463  ILE464 
 ILE466 

> <Gold.Protein.RotatedAtoms>
  241.1302   -0.5942   49.8514 H   0  0  0  0  0  0  0  0  0  0  0  0  # atno 6614 bound_to 6573
  239.5542   -2.5012   48.3814 H   0  0  0  0  0  0  0  0  0  0  0  0  # atno 6700 bound_to 6661
  240.0695    1.6841   45.2554 H   0  0  0  0  0  0  0  0  0  0  0  0  # atno 6852 bound_to 6804
  240.3757    0.0341   38.0287 H   0  0  0  0  0  0  0  0  0  0  0  0  # atno 7908 bound_to 7887
  240.2536   -4.3851   37.1680 H   0  0  0  0  0  0  0  0  0  0  0  0  # atno 7912 bound_to 7892
  242.3521   -1.7821   36.9197 H   0  0  0  0  0  0  0  0  0  0  0  0  # atno 7988 bound_to 7940
  245.5971   -2.8298   39.3390 H   0  0  0  0  0  0  0  0  0  0  0  0  # atno 8066 bound_to 8025
  247.4006   -2.0982   40.9597 H   0  0  0  0  0  0  0  0  0  0  0  0  # atno 8137 bound_to 8104
  247.3168   -2.3666   44.8850 H   0  0  0  0  0  0  0  0  0  0  0  0  # atno 8200 bound_to 8166
  250.1744    0.0321   46.6820 H   0  0  0  0  0  0  0  0  0  0  0  0  # atno 8280 bound_to 8242
  251.0271   -0.9131   50.9162 H   0  0  0  0  0  0  0  0  0  0  0  0  # atno 8333 bound_to 8313
  252.0965   -5.3136   39.8482 H   0  0  0  0  0  0  0  0  0  0  0  0  # atno 9580 bound_to 9544
  250.1818    2.0747   43.9918 H   0  0  0  0  0  0  0  0  0  0  0  0  # atno 10226 bound_to 10185
  242.8696   -2.7593   51.7360 LP  0  0  0  0  0  0  0  0  0  0  0  0  # atno 27193 bound_to 6336
  241.8588   -3.7766   50.7647 LP  0  0  0  0  0  0  0  0  0  0  0  0  # atno 27194 bound_to 6336
  240.9517    1.0560   48.6494 LP  0  0  0  0  0  0  0  0  0  0  0  0  # atno 27195 bound_to 6500
  242.5310    1.3903   49.2772 LP  0  0  0  0  0  0  0  0  0  0  0  0  # atno 27196 bound_to 6500
  242.1468   -1.9378   50.3176 LP  0  0  0  0  0  0  0  0  0  0  0  0  # atno 27197 bound_to 6573
  240.9576   -0.8904   45.4891 LP  0  0  0  0  0  0  0  0  0  0  0  0  # atno 27198 bound_to 6576
  240.8498    0.4935   46.5251 LP  0  0  0  0  0  0  0  0  0  0  0  0  # atno 27199 bound_to 6576
  240.3660   -1.0948   47.7275 LP  0  0  0  0  0  0  0  0  0  0  0  0  # atno 27200 bound_to 6661
  241.7099   -3.4789   40.4149 LP  0  0  0  0  0  0  0  0  0  0  0  0  # atno 27201 bound_to 7890
  242.6705   -4.3627   39.2765 LP  0  0  0  0  0  0  0  0  0  0  0  0  # atno 27202 bound_to 7890
  244.1447   -1.8532   39.3257 LP  0  0  0  0  0  0  0  0  0  0  0  0  # atno 27203 bound_to 8025
  245.8567   -2.2325   43.3983 LP  0  0  0  0  0  0  0  0  0  0  0  0  # atno 27204 bound_to 8028
  245.1782   -3.1011   42.0622 LP  0  0  0  0  0  0  0  0  0  0  0  0  # atno 27205 bound_to 8028
  247.5991   -0.5459   41.7358 LP  0  0  0  0  0  0  0  0  0  0  0  0  # atno 27206 bound_to 8104
  249.7883    0.1372   43.4531 LP  0  0  0  0  0  0  0  0  0  0  0  0  # atno 27207 bound_to 8107
  248.3219    0.7158   44.1707 LP  0  0  0  0  0  0  0  0  0  0  0  0  # atno 27208 bound_to 8107
  248.8490   -1.5949   44.5516 LP  0  0  0  0  0  0  0  0  0  0  0  0  # atno 27209 bound_to 8166
  248.9285   -2.3280   48.8501 LP  0  0  0  0  0  0  0  0  0  0  0  0  # atno 27210 bound_to 8169
  248.7015   -3.0848   47.3088 LP  0  0  0  0  0  0  0  0  0  0  0  0  # atno 27211 bound_to 8169
  248.8507   -0.4406   47.7173 LP  0  0  0  0  0  0  0  0  0  0  0  0  # atno 27212 bound_to 8242
  249.4145   -0.3277   40.7067 LP  0  0  0  0  0  0  0  0  0  0  0  0  # atno 27213 bound_to 10098
  249.9656   -0.8185   39.1398 LP  0  0  0  0  0  0  0  0  0  0  0  0  # atno 27214 bound_to 10098
  250.5790    1.7718   46.8378 LP  0  0  0  0  0  0  0  0  0  0  0  0  # atno 27215 bound_to 10188
  249.0739    1.6215   45.9941 LP  0  0  0  0  0  0  0  0  0  0  0  0  # atno 27216 bound_to 10188
  250.2489    1.9520   49.3113 LP  0  0  0  0  0  0  0  0  0  0  0  0  # atno 27217 bound_to 8245
  249.1737    1.6192   50.6278 LP  0  0  0  0  0  0  0  0  0  0  0  0  # atno 27218 bound_to 8245
  249.4694   -0.8179   50.1277 LP  0  0  0  0  0  0  0  0  0  0  0  0  # atno 27219 bound_to 8313
  251.8158   -3.9646   38.9818 LP  0  0  0  0  0  0  0  0  0  0  0  0  # atno 27220 bound_to 9544
  251.1591   -4.1358   40.4670 LP  0  0  0  0  0  0  0  0  0  0  0  0  # atno 27221 bound_to 9544
  248.9387    2.7354   42.9567 LP  0  0  0  0  0  0  0  0  0  0  0  0  # atno 27222 bound_to 10185
  242.0909   -2.5834   38.4537 LP  0  0  0  0  0  0  0  0  0  0  0  0  # atno 27223 bound_to 7940
  245.1794   -0.7228   36.7197 LP  0  0  0  0  0  0  0  0  0  0  0  0  # atno 27224 bound_to 7943
  246.2577   -0.4145   38.0397 LP  0  0  0  0  0  0  0  0  0  0  0  0  # atno 27225 bound_to 7943
  242.0703    0.5133   39.5041 LP  0  0  0  0  0  0  0  0  0  0  0  0  # atno 27226 bound_to 7818
  240.4133    0.6513   39.9891 LP  0  0  0  0  0  0  0  0  0  0  0  0  # atno 27227 bound_to 7818
  240.4021   -1.0817   36.6887 LP  0  0  0  0  0  0  0  0  0  0  0  0  # atno 27228 bound_to 7887
  239.8528   -3.0028   36.4082 LP  0  0  0  0  0  0  0  0  0  0  0  0  # atno 27229 bound_to 7892
  238.7054   -4.1146   36.7455 LP  0  0  0  0  0  0  0  0  0  0  0  0  # atno 27230 bound_to 7892

> <Gold.Score>
     Fitness  S(hb_ext) S(vdw_ext)  S(hb_int)    S(int)      intcor
     18.96       2.54      12.59       0.00      -0.90      -0.76

> <Gold.Goldscore.Fitness>
18.9554

> <Gold.Goldscore.Internal.Vdw>
-0.9092

> <Gold.Goldscore.Internal.Torsion>
-0.7526

> <Gold.Goldscore.External.Vdw>
12.5942

> <Gold.Goldscore.Internal.HBond>
0.0000

> <Gold.Goldscore.External.HBond>
2.5424

> <Gold.Goldscore.Internal.Correction>
-0.7579

> <Gold.Goldscore.Hbonds>
donor molecule, donor type, donor heavy atom, donor atom, acceptor molecule, acceptor atom, score
      P1  H  8025  8066       L1     9  1.00
      P1  H  8104  8137       L1     9  0.20
      L1  H     8    22       P1  8028  0.07

> <Gold.Goldscore.Internal.Vdw.Weighted>
-0.9092

> <Gold.Goldscore.Internal.Torsion.Weighted>
-0.7526

> <Gold.Goldscore.External.Vdw.Weighted>
17.3170

> <Gold.Goldscore.Internal.HBond.Weighted>
0.0000

> <Gold.Goldscore.External.HBond.Weighted>
2.5424

> <Gold.Goldscore.Internal.Correction.Weighted>
-0.7579

> <Gold.Rescore>
     Score     S(PLP)   S(hbond)     S(cho)   S(metal)  DE(clash)   DE(tors)     intcor
     25.31     -17.91       2.60       0.00       0.00       0.00       0.20       ----

> <Gold.PLP.Fitness>
25.3079

> <Gold.PLP.PLP>
-17.9106

> <Gold.PLP.part.hbond>
-3.0000

> <Gold.PLP.part.metal>
0.0000

> <Gold.PLP.part.buried>
-2.8500

> <Gold.PLP.part.nonpolar>
-13.0734

> <Gold.PLP.part.repulsive>
0.4064

> <Gold.PLP.ligand.clash>
0.0000

> <Gold.PLP.ligand.torsion>
0.1954

> <Gold.PLP.Chemscore.Hbond>
2.5960

> <Gold.PLP.Chemscore.CHOScore>
0.0000

> <Gold.PLP.Chemscore.Metal>
0.0000

> <Gold.Chemscore.Hbonds>
donor molecule, donor type, donor heavy atom, donor atom, acceptor molecule, acceptor atom, score
      L1  H     8    22       P1  8028  0.50
      P1  H  8025  8066       L1     9  0.60

> <Gold.PLP.Chemscore.Internal.Correction>
   9.000000E+99

#       Name:                CT1002167954
#       Creating user name   hitesit
#       Creation time:       Sun Apr 16 23:07:44 2023


#       File generated by GOLD software.
#

@<TRIPOS>MOLECULE
CT1002167954|ligand_prepared|mol2|1|dock9
    29    30     1
SMALL
NO_CHARGES


@<TRIPOS>ATOM
      1 C1         246.3856  -7.5743  45.1991 C.3            1 RES1               0.0000
      2 C2         247.1476  -8.0365  46.4578 C.ar           1 RES1               0.0000
      3 C3         245.2271  -6.7123  45.6920 C.2            1 RES1               0.0000
      4 C4         247.3972  -6.8244  44.3394 C.2            1 RES1               0.0000
      5 C5         245.8096  -8.7356  44.3557 C.3            1 RES1               0.0000
      6 C6         247.3770  -7.1558  47.5106 C.ar           1 RES1               0.0000
      7 C7         247.6239  -9.3390  46.5817 C.ar           1 RES1               0.0000
      8 N8         245.3230  -5.3635  45.5145 N.am           1 RES1               0.0000
      9 O9         244.2620  -7.2048  46.2632 O.2            1 RES1               0.0000
     10 N10        247.2034  -5.4821  44.1434 N.am           1 RES1               0.0000
     11 O11        248.3694  -7.3805  43.8436 O.2            1 RES1               0.0000
     12 C12        244.8546  -8.2841  43.2620 C.3            1 RES1               0.0000
     13 C13        248.0555  -7.5630  48.6473 C.ar           1 RES1               0.0000
     14 C14        248.3024  -9.7441  47.7193 C.ar           1 RES1               0.0000
     15 C15        246.2291  -4.7116  44.7172 C.2            1 RES1               0.0000
     16 C16        248.5182  -8.8574  48.7527 C.ar           1 RES1               0.0000
     17 O17        246.1523  -3.4998  44.5357 O.2            1 RES1               0.0000
     18 H18        246.6408  -9.2833  43.8947 H              1 RES1               0.0000
     19 H19        245.2809  -9.4278  45.0225 H              1 RES1               0.0000
     20 H20        247.0224  -6.1326  47.4446 H              1 RES1               0.0000
     21 H21        247.4667 -10.0534  45.7808 H              1 RES1               0.0000
     22 H22        244.6597  -4.7862  46.0215 H              1 RES1               0.0000
     23 H23        247.8447  -5.0140  43.5111 H              1 RES1               0.0000
     24 H24        244.4798  -9.1375  42.7007 H              1 RES1               0.0000
     25 H25        244.0026  -7.7575  43.6870 H              1 RES1               0.0000
     26 H26        245.3545  -7.6138  42.5659 H              1 RES1               0.0000
     27 H27        248.2239  -6.8609  49.4572 H              1 RES1               0.0000
     28 H28        248.6654 -10.7636  47.7976 H              1 RES1               0.0000
     29 H29        249.0493  -9.1763  49.6434 H              1 RES1               0.0000
@<TRIPOS>BOND
    1    1    2 1     
    2    1    3 1     
    3    1    4 1     
    4    1    5 1     
    5    2    6 ar    
    6    2    7 ar    
    7    3    8 1     
    8    3    9 2     
    9    4   10 1     
   10    4   11 2     
   11    5   12 1     
   12    5   18 1     
   13    5   19 1     
   14    6   13 ar    
   15    6   20 1     
   16    7   14 ar    
   17    7   21 1     
   18    8   15 1     
   19    8   22 1     
   20   10   15 1     
   21   10   23 1     
   22   12   24 1     
   23   12   25 1     
   24   12   26 1     
   25   13   16 ar    
   26   13   27 1     
   27   14   16 ar    
   28   14   28 1     
   29   15   17 2     
   30   16   29 1     
@<TRIPOS>SUBSTRUCTURE
      1 RES1           1
@<TRIPOS>SET
DONOR_HYDROGENS      STATIC     ATOMS    <user>   **** ""
2 22 23
ATOM$RED        STATIC     ATOMS    COLORGROUP SYSTEM
2 22 23
@<TRIPOS>COMMENT
> <Gold.Version>
2022.3.0

> <Gold.Id.Protein>
unknown|4d1n_clean|pdb

> <Gold.Protein.RotatedTorsions>
[ 6614 6573 6574 6575 ] final  -98.89 input  116.02 | X-H torsion
[ 6700 6661 6662 6663 ] final -124.39 input  125.25 | X-H torsion
[ 8066 8025 8026 8027 ] final -123.69 input   31.90 | X-H torsion
[ 8137 8104 8105 8106 ] final   89.59 input   91.64 | X-H torsion
[ 8200 8166 8167 8168 ] final -106.88 input   70.29 | X-H torsion
[ 8280 8242 8243 8244 ] final   31.88 input   89.64 | X-H torsion
[ 8333 8313 8314 8315 ] final  135.56 input   85.58 | X-H torsion
[ 9580 9544 9543 9541 ] final -161.12 input   60.01 | X-H torsion
[ 10226 10185 10186 10187 ] final   41.36 input   40.00 | X-H torsion
[ 7988 7940 7941 7942 ] final -142.86 input   82.26 | X-H torsion
[ 7908 7887 7888 7889 ] final   22.58 input   90.27 | X-H torsion
[ 7912 7892 7891 7888 ] final  -23.20 input   59.97 | X-H torsion
[ 6852 6804 6805 6806 ] final  121.96 input  117.17 | X-H torsion
[ 27193 6336 6335 6334 ] final  123.53 input   -0.00 | X-H torsion
[ 27195 6500 6499 6498 ] final   71.70 input    0.00 | X-H torsion
[ 27198 6576 6575 6574 ] final   79.48 input   -0.00 | X-H torsion
[ 27201 7890 7889 7888 ] final -124.79 input    0.00 | X-H torsion
[ 27204 8028 8027 8026 ] final  110.33 input   -0.00 | X-H torsion
[ 27207 8107 8106 8105 ] final -118.38 input    0.00 | X-H torsion
[ 27210 8169 8168 8167 ] final  149.45 input    0.00 | X-H torsion
[ 27213 10098 10097 10096 ] final  144.21 input    0.00 | X-H torsion
[ 27215 10188 10187 10186 ] final  -14.89 input   -0.00 | X-H torsion
[ 27217 8245 8244 8243 ] final -152.89 input   -0.00 | X-H torsion
[ 27224 7943 7942 7941 ] final   50.70 input    0.00 | X-H torsion
[ 27226 7818 7817 7816 ] final    0.73 input    0.00 | X-H torsion

> <Gold.Protein.ActiveResidues>
 ASP403  THR404  LEU406  ILE407  TYR408  ALA410  LYS411  TRP414  TRP426  SER427 
 LYS428  LEU429  GLN430  VAL431  PHE432  ASP433  TYR453  SER462  ALA463  ILE464 
 ILE466 

> <Gold.Protein.RotatedAtoms>
  242.1399   -0.5465   49.9952 H   0  0  0  0  0  0  0  0  0  0  0  0  # atno 6614 bound_to 6573
  240.1328   -2.2722   47.3218 H   0  0  0  0  0  0  0  0  0  0  0  0  # atno 6700 bound_to 6661
  240.7435    1.1841   45.1601 H   0  0  0  0  0  0  0  0  0  0  0  0  # atno 6852 bound_to 6804
  241.0598   -0.8667   36.9045 H   0  0  0  0  0  0  0  0  0  0  0  0  # atno 7908 bound_to 7887
  240.1201   -3.1001   36.5080 H   0  0  0  0  0  0  0  0  0  0  0  0  # atno 7912 bound_to 7892
  241.9222   -3.0162   37.8357 H   0  0  0  0  0  0  0  0  0  0  0  0  # atno 7988 bound_to 7940
  245.3296   -2.0603   38.6291 H   0  0  0  0  0  0  0  0  0  0  0  0  # atno 8066 bound_to 8025
  248.2431   -0.9377   41.0583 H   0  0  0  0  0  0  0  0  0  0  0  0  # atno 8137 bound_to 8104
  248.4290   -1.2964   44.2640 H   0  0  0  0  0  0  0  0  0  0  0  0  # atno 8200 bound_to 8166
  249.2558    0.5546   47.5684 H   0  0  0  0  0  0  0  0  0  0  0  0  # atno 8280 bound_to 8242
  249.6942   -1.5641   50.5058 H   0  0  0  0  0  0  0  0  0  0  0  0  # atno 8333 bound_to 8313
  251.4477   -3.6515   39.3885 H   0  0  0  0  0  0  0  0  0  0  0  0  # atno 9580 bound_to 9544
  249.3458    1.8189   44.0925 H   0  0  0  0  0  0  0  0  0  0  0  0  # atno 10226 bound_to 10185
  242.4346   -3.9738   50.7535 LP  0  0  0  0  0  0  0  0  0  0  0  0  # atno 27193 bound_to 6336
  242.2938   -2.5621   51.7472 LP  0  0  0  0  0  0  0  0  0  0  0  0  # atno 27194 bound_to 6336
  242.5038    1.4266   49.3200 LP  0  0  0  0  0  0  0  0  0  0  0  0  # atno 27195 bound_to 6500
  240.9789    1.0196   48.6065 LP  0  0  0  0  0  0  0  0  0  0  0  0  # atno 27196 bound_to 6500
  241.1626   -1.9843   50.1774 LP  0  0  0  0  0  0  0  0  0  0  0  0  # atno 27197 bound_to 6573
  241.1379   -0.8775   45.5233 LP  0  0  0  0  0  0  0  0  0  0  0  0  # atno 27198 bound_to 6576
  240.6695    0.4807   46.4908 LP  0  0  0  0  0  0  0  0  0  0  0  0  # atno 27199 bound_to 6576
  239.8069   -1.3160   48.7515 LP  0  0  0  0  0  0  0  0  0  0  0  0  # atno 27200 bound_to 6661
  242.8946   -3.4675   40.0657 LP  0  0  0  0  0  0  0  0  0  0  0  0  # atno 27201 bound_to 7890
  241.4858   -4.3741   39.6257 LP  0  0  0  0  0  0  0  0  0  0  0  0  # atno 27202 bound_to 7890
  244.4038   -2.5987   40.0134 LP  0  0  0  0  0  0  0  0  0  0  0  0  # atno 27203 bound_to 8025
  245.8997   -3.3802   42.4222 LP  0  0  0  0  0  0  0  0  0  0  0  0  # atno 27204 bound_to 8028
  245.1352   -1.9534   43.0384 LP  0  0  0  0  0  0  0  0  0  0  0  0  # atno 27205 bound_to 8028
  246.7738   -1.6828   41.6393 LP  0  0  0  0  0  0  0  0  0  0  0  0  # atno 27206 bound_to 8104
  249.6759    0.2723   44.3958 LP  0  0  0  0  0  0  0  0  0  0  0  0  # atno 27207 bound_to 8107
  248.4344    0.5808   43.2281 LP  0  0  0  0  0  0  0  0  0  0  0  0  # atno 27208 bound_to 8107
  247.7617   -2.6412   45.1588 LP  0  0  0  0  0  0  0  0  0  0  0  0  # atno 27209 bound_to 8166
  249.6764   -2.6986   48.1685 LP  0  0  0  0  0  0  0  0  0  0  0  0  # atno 27210 bound_to 8169
  247.9536   -2.7141   47.9904 LP  0  0  0  0  0  0  0  0  0  0  0  0  # atno 27211 bound_to 8169
  249.7538   -0.9544   46.8458 LP  0  0  0  0  0  0  0  0  0  0  0  0  # atno 27212 bound_to 8242
  250.2963   -0.4322   40.5254 LP  0  0  0  0  0  0  0  0  0  0  0  0  # atno 27213 bound_to 10098
  249.0838   -0.7140   39.3211 LP  0  0  0  0  0  0  0  0  0  0  0  0  # atno 27214 bound_to 10098
  249.2258    1.5741   45.8042 LP  0  0  0  0  0  0  0  0  0  0  0  0  # atno 27215 bound_to 10188
  250.4271    1.8192   47.0277 LP  0  0  0  0  0  0  0  0  0  0  0  0  # atno 27216 bound_to 10188
  249.8522    1.8026   50.8238 LP  0  0  0  0  0  0  0  0  0  0  0  0  # atno 27217 bound_to 8245
  249.5703    1.7687   49.1152 LP  0  0  0  0  0  0  0  0  0  0  0  0  # atno 27218 bound_to 8245
  250.7675   -0.1839   50.5273 LP  0  0  0  0  0  0  0  0  0  0  0  0  # atno 27219 bound_to 8313
  251.3823   -4.7076   40.6252 LP  0  0  0  0  0  0  0  0  0  0  0  0  # atno 27220 bound_to 9544
  252.2458   -5.0663   39.2864 LP  0  0  0  0  0  0  0  0  0  0  0  0  # atno 27221 bound_to 9544
  249.7564    2.9856   42.8583 LP  0  0  0  0  0  0  0  0  0  0  0  0  # atno 27222 bound_to 10185
  242.5071   -1.3886   37.5670 LP  0  0  0  0  0  0  0  0  0  0  0  0  # atno 27223 bound_to 7940
  244.9482   -0.3574   37.0451 LP  0  0  0  0  0  0  0  0  0  0  0  0  # atno 27224 bound_to 7943
  246.4889   -0.7799   37.7144 LP  0  0  0  0  0  0  0  0  0  0  0  0  # atno 27225 bound_to 7943
  241.2814    1.4327   39.5879 LP  0  0  0  0  0  0  0  0  0  0  0  0  # atno 27226 bound_to 7818
  241.2022   -0.2681   39.9054 LP  0  0  0  0  0  0  0  0  0  0  0  0  # atno 27227 bound_to 7818
  239.7253   -0.1906   37.8007 LP  0  0  0  0  0  0  0  0  0  0  0  0  # atno 27228 bound_to 7887
  238.6776   -3.8469   36.6081 LP  0  0  0  0  0  0  0  0  0  0  0  0  # atno 27229 bound_to 7892
  240.0151   -4.5644   37.2104 LP  0  0  0  0  0  0  0  0  0  0  0  0  # atno 27230 bound_to 7892

> <Gold.Score>
     Fitness  S(hb_ext) S(vdw_ext)  S(hb_int)    S(int)      intcor
     13.61       0.64       9.55       0.00      -0.17      -0.76

> <Gold.Goldscore.Fitness>
13.6088

> <Gold.Goldscore.Internal.Vdw>
-0.3896

> <Gold.Goldscore.Internal.Torsion>
-0.5401

> <Gold.Goldscore.External.Vdw>
9.5535

> <Gold.Goldscore.Internal.HBond>
0.0000

> <Gold.Goldscore.External.HBond>
0.6445

> <Gold.Goldscore.Internal.Correction>
-0.7579

> <Gold.Goldscore.Hbonds>
donor molecule, donor type, donor heavy atom, donor atom, acceptor molecule, acceptor atom, score
      P1  H  8111  8143       L1    11  0.32

> <Gold.Goldscore.Internal.Vdw.Weighted>
-0.3896

> <Gold.Goldscore.Internal.Torsion.Weighted>
-0.5401

> <Gold.Goldscore.External.Vdw.Weighted>
13.1361

> <Gold.Goldscore.Internal.HBond.Weighted>
0.0000

> <Gold.Goldscore.External.HBond.Weighted>
0.6445

> <Gold.Goldscore.Internal.Correction.Weighted>
-0.7579

> <Gold.Rescore>
     Score     S(PLP)   S(hbond)     S(cho)   S(metal)  DE(clash)   DE(tors)     intcor
     12.94     -10.09       0.96       0.00       0.00       0.00       0.02       ----

> <Gold.PLP.Fitness>
12.9376

> <Gold.PLP.PLP>
-10.0887

> <Gold.PLP.part.hbond>
-2.2336

> <Gold.PLP.part.metal>
0.0000

> <Gold.PLP.part.buried>
-2.5066

> <Gold.PLP.part.nonpolar>
-6.1272

> <Gold.PLP.part.repulsive>
0.3701

> <Gold.PLP.ligand.clash>
0.0000

> <Gold.PLP.ligand.torsion>
0.0155

> <Gold.PLP.Chemscore.Hbond>
0.9600

> <Gold.PLP.Chemscore.CHOScore>
0.0000

> <Gold.PLP.Chemscore.Metal>
0.0000

> <Gold.Chemscore.Hbonds>
donor molecule, donor type, donor heavy atom, donor atom, acceptor molecule, acceptor atom, score
      P1  H  8111  8143       L1    11  0.93

> <Gold.PLP.Chemscore.Internal.Correction>
   9.000000E+99

