#       Name:                CT1002167954
#       Creating user name   hitesit
#       Creation time:       Sun Apr 16 23:07:45 2023


#       File generated by GOLD software.
#

@<TRIPOS>MOLECULE
CT1002167954|ligand_prepared|mol2|1|dock10
    29    30     1
SMALL
NO_CHARGES


@<TRIPOS>ATOM
      1 C1         247.6295  -5.9528  38.7904 C.3            1 RES1               0.0000
      2 C2         246.5234  -6.7208  38.0383 C.ar           1 RES1               0.0000
      3 C3         246.9411  -4.7823  39.4863 C.2            1 RES1               0.0000
      4 C4         248.2706  -6.9542  39.7449 C.2            1 RES1               0.0000
      5 C5         248.7385  -5.3933  37.8693 C.3            1 RES1               0.0000
      6 C6         246.3286  -6.5273  36.6740 C.ar           1 RES1               0.0000
      7 C7         245.6931  -7.6263  38.6936 C.ar           1 RES1               0.0000
      8 N8         246.7753  -4.8596  40.8378 N.am           1 RES1               0.0000
      9 O9         246.5148  -3.8240  38.8537 O.2            1 RES1               0.0000
     10 N10        248.1255  -6.7419  41.0908 N.am           1 RES1               0.0000
     11 O11        248.8859  -7.9342  39.3434 O.2            1 RES1               0.0000
     12 C12        250.0021  -4.9842  38.6098 C.3            1 RES1               0.0000
     13 C13        245.3416  -7.2163  35.9889 C.ar           1 RES1               0.0000
     14 C14        244.7065  -8.3140  38.0065 C.ar           1 RES1               0.0000
     15 C15        247.3809  -5.7568  41.6804 C.2            1 RES1               0.0000
     16 C16        244.5302  -8.1103  36.6544 C.ar           1 RES1               0.0000
     17 O17        247.2540  -5.6632  42.8978 O.2            1 RES1               0.0000
     18 H18        248.9970  -6.1560  37.1244 H              1 RES1               0.0000
     19 H19        248.3454  -4.5207  37.3331 H              1 RES1               0.0000
     20 H20        246.9559  -5.8260  36.1339 H              1 RES1               0.0000
     21 H21        245.8128  -7.8017  39.7573 H              1 RES1               0.0000
     22 H22        246.1426  -4.1882  41.2611 H              1 RES1               0.0000
     23 H23        248.6183  -7.3769  41.7107 H              1 RES1               0.0000
     24 H24        250.7473  -4.5988  37.9172 H              1 RES1               0.0000
     25 H25        249.7863  -4.2085  39.3416 H              1 RES1               0.0000
     26 H26        250.4341  -5.8341  39.1341 H              1 RES1               0.0000
     27 H27        245.2061  -7.0513  34.9251 H              1 RES1               0.0000
     28 H28        244.0698  -9.0162  38.5345 H              1 RES1               0.0000
     29 H29        243.7574  -8.6502  36.1174 H              1 RES1               0.0000
@<TRIPOS>BOND
    1    1    2 1     
    2    1    3 1     
    3    1    4 1     
    4    1    5 1     
    5    2    6 ar    
    6    2    7 ar    
    7    3    8 1     
    8    3    9 2     
    9    4   10 1     
   10    4   11 2     
   11    5   12 1     
   12    5   18 1     
   13    5   19 1     
   14    6   13 ar    
   15    6   20 1     
   16    7   14 ar    
   17    7   21 1     
   18    8   15 1     
   19    8   22 1     
   20   10   15 1     
   21   10   23 1     
   22   12   24 1     
   23   12   25 1     
   24   12   26 1     
   25   13   16 ar    
   26   13   27 1     
   27   14   16 ar    
   28   14   28 1     
   29   15   17 2     
   30   16   29 1     
@<TRIPOS>SUBSTRUCTURE
      1 RES1           1
@<TRIPOS>SET
DONOR_HYDROGENS      STATIC     ATOMS    <user>   **** ""
2 22 23
ATOM$RED        STATIC     ATOMS    COLORGROUP SYSTEM
2 22 23
@<TRIPOS>COMMENT
> <Gold.Version>
2022.3.0

> <Gold.Id.Protein>
unknown|4d1n_clean|pdb

> <Gold.Protein.RotatedTorsions>
[ 6614 6573 6574 6575 ] final  -28.45 input  116.02 | X-H torsion
[ 6700 6661 6662 6663 ] final  148.32 input  125.25 | X-H torsion
[ 8066 8025 8026 8027 ] final  -48.83 input   31.90 | X-H torsion
[ 8137 8104 8105 8106 ] final -161.33 input   91.64 | X-H torsion
[ 8200 8166 8167 8168 ] final  112.57 input   70.29 | X-H torsion
[ 8280 8242 8243 8244 ] final  135.04 input   89.64 | X-H torsion
[ 8333 8313 8314 8315 ] final   14.93 input   85.58 | X-H torsion
[ 9580 9544 9543 9541 ] final   -1.84 input   60.01 | X-H torsion
[ 10226 10185 10186 10187 ] final  -18.39 input   40.00 | X-H torsion
[ 7988 7940 7941 7942 ] final   89.52 input   82.26 | X-H torsion
[ 7908 7887 7888 7889 ] final -108.31 input   90.27 | X-H torsion
[ 7912 7892 7891 7888 ] final   78.35 input   59.97 | X-H torsion
[ 6852 6804 6805 6806 ] final   65.04 input  117.17 | X-H torsion
[ 27193 6336 6335 6334 ] final  -15.32 input   -0.00 | X-H torsion
[ 27195 6500 6499 6498 ] final -104.17 input    0.00 | X-H torsion
[ 27198 6576 6575 6574 ] final   91.68 input   -0.00 | X-H torsion
[ 27201 7890 7889 7888 ] final  -33.81 input    0.00 | X-H torsion
[ 27204 8028 8027 8026 ] final -128.70 input   -0.00 | X-H torsion
[ 27207 8107 8106 8105 ] final  -51.15 input    0.00 | X-H torsion
[ 27210 8169 8168 8167 ] final -133.60 input    0.00 | X-H torsion
[ 27213 10098 10097 10096 ] final -152.68 input    0.00 | X-H torsion
[ 27215 10188 10187 10186 ] final  148.66 input   -0.00 | X-H torsion
[ 27217 8245 8244 8243 ] final  -22.73 input   -0.00 | X-H torsion
[ 27224 7943 7942 7941 ] final   14.29 input    0.00 | X-H torsion
[ 27226 7818 7817 7816 ] final  -88.31 input    0.00 | X-H torsion

> <Gold.Protein.ActiveResidues>
 ASP403  THR404  LEU406  ILE407  TYR408  ALA410  LYS411  TRP414  TRP426  SER427 
 LYS428  LEU429  GLN430  VAL431  PHE432  ASP433  TYR453  SER462  ALA463  ILE464 
 ILE466 

> <Gold.Protein.RotatedAtoms>
  241.1302   -0.5942   49.8514 H   0  0  0  0  0  0  0  0  0  0  0  0  # atno 6614 bound_to 6573
  239.5542   -2.5012   48.3814 H   0  0  0  0  0  0  0  0  0  0  0  0  # atno 6700 bound_to 6661
  240.0695    1.6841   45.2554 H   0  0  0  0  0  0  0  0  0  0  0  0  # atno 6852 bound_to 6804
  240.3757    0.0341   38.0287 H   0  0  0  0  0  0  0  0  0  0  0  0  # atno 7908 bound_to 7887
  240.2536   -4.3851   37.1680 H   0  0  0  0  0  0  0  0  0  0  0  0  # atno 7912 bound_to 7892
  242.3521   -1.7821   36.9197 H   0  0  0  0  0  0  0  0  0  0  0  0  # atno 7988 bound_to 7940
  245.5971   -2.8298   39.3390 H   0  0  0  0  0  0  0  0  0  0  0  0  # atno 8066 bound_to 8025
  247.4006   -2.0982   40.9597 H   0  0  0  0  0  0  0  0  0  0  0  0  # atno 8137 bound_to 8104
  247.3168   -2.3666   44.8850 H   0  0  0  0  0  0  0  0  0  0  0  0  # atno 8200 bound_to 8166
  250.1744    0.0321   46.6820 H   0  0  0  0  0  0  0  0  0  0  0  0  # atno 8280 bound_to 8242
  251.0271   -0.9131   50.9162 H   0  0  0  0  0  0  0  0  0  0  0  0  # atno 8333 bound_to 8313
  252.0965   -5.3136   39.8482 H   0  0  0  0  0  0  0  0  0  0  0  0  # atno 9580 bound_to 9544
  250.1818    2.0747   43.9918 H   0  0  0  0  0  0  0  0  0  0  0  0  # atno 10226 bound_to 10185
  242.8696   -2.7593   51.7360 LP  0  0  0  0  0  0  0  0  0  0  0  0  # atno 27193 bound_to 6336
  241.8588   -3.7766   50.7647 LP  0  0  0  0  0  0  0  0  0  0  0  0  # atno 27194 bound_to 6336
  240.9517    1.0560   48.6494 LP  0  0  0  0  0  0  0  0  0  0  0  0  # atno 27195 bound_to 6500
  242.5310    1.3903   49.2772 LP  0  0  0  0  0  0  0  0  0  0  0  0  # atno 27196 bound_to 6500
  242.1468   -1.9378   50.3176 LP  0  0  0  0  0  0  0  0  0  0  0  0  # atno 27197 bound_to 6573
  240.9576   -0.8904   45.4891 LP  0  0  0  0  0  0  0  0  0  0  0  0  # atno 27198 bound_to 6576
  240.8498    0.4935   46.5251 LP  0  0  0  0  0  0  0  0  0  0  0  0  # atno 27199 bound_to 6576
  240.3660   -1.0948   47.7275 LP  0  0  0  0  0  0  0  0  0  0  0  0  # atno 27200 bound_to 6661
  241.7099   -3.4789   40.4149 LP  0  0  0  0  0  0  0  0  0  0  0  0  # atno 27201 bound_to 7890
  242.6705   -4.3627   39.2765 LP  0  0  0  0  0  0  0  0  0  0  0  0  # atno 27202 bound_to 7890
  244.1447   -1.8532   39.3257 LP  0  0  0  0  0  0  0  0  0  0  0  0  # atno 27203 bound_to 8025
  245.8567   -2.2325   43.3983 LP  0  0  0  0  0  0  0  0  0  0  0  0  # atno 27204 bound_to 8028
  245.1782   -3.1011   42.0622 LP  0  0  0  0  0  0  0  0  0  0  0  0  # atno 27205 bound_to 8028
  247.5991   -0.5459   41.7358 LP  0  0  0  0  0  0  0  0  0  0  0  0  # atno 27206 bound_to 8104
  249.7883    0.1372   43.4531 LP  0  0  0  0  0  0  0  0  0  0  0  0  # atno 27207 bound_to 8107
  248.3219    0.7158   44.1707 LP  0  0  0  0  0  0  0  0  0  0  0  0  # atno 27208 bound_to 8107
  248.8490   -1.5949   44.5516 LP  0  0  0  0  0  0  0  0  0  0  0  0  # atno 27209 bound_to 8166
  248.9285   -2.3280   48.8501 LP  0  0  0  0  0  0  0  0  0  0  0  0  # atno 27210 bound_to 8169
  248.7015   -3.0848   47.3088 LP  0  0  0  0  0  0  0  0  0  0  0  0  # atno 27211 bound_to 8169
  248.8507   -0.4406   47.7173 LP  0  0  0  0  0  0  0  0  0  0  0  0  # atno 27212 bound_to 8242
  249.4145   -0.3277   40.7067 LP  0  0  0  0  0  0  0  0  0  0  0  0  # atno 27213 bound_to 10098
  249.9656   -0.8185   39.1398 LP  0  0  0  0  0  0  0  0  0  0  0  0  # atno 27214 bound_to 10098
  250.5790    1.7718   46.8378 LP  0  0  0  0  0  0  0  0  0  0  0  0  # atno 27215 bound_to 10188
  249.0739    1.6215   45.9941 LP  0  0  0  0  0  0  0  0  0  0  0  0  # atno 27216 bound_to 10188
  250.2489    1.9520   49.3113 LP  0  0  0  0  0  0  0  0  0  0  0  0  # atno 27217 bound_to 8245
  249.1737    1.6192   50.6278 LP  0  0  0  0  0  0  0  0  0  0  0  0  # atno 27218 bound_to 8245
  249.4694   -0.8179   50.1277 LP  0  0  0  0  0  0  0  0  0  0  0  0  # atno 27219 bound_to 8313
  251.8158   -3.9646   38.9818 LP  0  0  0  0  0  0  0  0  0  0  0  0  # atno 27220 bound_to 9544
  251.1591   -4.1358   40.4670 LP  0  0  0  0  0  0  0  0  0  0  0  0  # atno 27221 bound_to 9544
  248.9387    2.7354   42.9567 LP  0  0  0  0  0  0  0  0  0  0  0  0  # atno 27222 bound_to 10185
  242.0909   -2.5834   38.4537 LP  0  0  0  0  0  0  0  0  0  0  0  0  # atno 27223 bound_to 7940
  245.1794   -0.7228   36.7197 LP  0  0  0  0  0  0  0  0  0  0  0  0  # atno 27224 bound_to 7943
  246.2577   -0.4145   38.0397 LP  0  0  0  0  0  0  0  0  0  0  0  0  # atno 27225 bound_to 7943
  242.0703    0.5133   39.5041 LP  0  0  0  0  0  0  0  0  0  0  0  0  # atno 27226 bound_to 7818
  240.4133    0.6513   39.9891 LP  0  0  0  0  0  0  0  0  0  0  0  0  # atno 27227 bound_to 7818
  240.4021   -1.0817   36.6887 LP  0  0  0  0  0  0  0  0  0  0  0  0  # atno 27228 bound_to 7887
  239.8528   -3.0028   36.4082 LP  0  0  0  0  0  0  0  0  0  0  0  0  # atno 27229 bound_to 7892
  238.7054   -4.1146   36.7455 LP  0  0  0  0  0  0  0  0  0  0  0  0  # atno 27230 bound_to 7892

> <Gold.Score>
     Fitness  S(hb_ext) S(vdw_ext)  S(hb_int)    S(int)      intcor
     18.96       2.54      12.59       0.00      -0.90      -0.76

> <Gold.Goldscore.Fitness>
18.9554

> <Gold.Goldscore.Internal.Vdw>
-0.9092

> <Gold.Goldscore.Internal.Torsion>
-0.7526

> <Gold.Goldscore.External.Vdw>
12.5942

> <Gold.Goldscore.Internal.HBond>
0.0000

> <Gold.Goldscore.External.HBond>
2.5424

> <Gold.Goldscore.Internal.Correction>
-0.7579

> <Gold.Goldscore.Hbonds>
donor molecule, donor type, donor heavy atom, donor atom, acceptor molecule, acceptor atom, score
      P1  H  8025  8066       L1     9  1.00
      P1  H  8104  8137       L1     9  0.20
      L1  H     8    22       P1  8028  0.07

> <Gold.Goldscore.Internal.Vdw.Weighted>
-0.9092

> <Gold.Goldscore.Internal.Torsion.Weighted>
-0.7526

> <Gold.Goldscore.External.Vdw.Weighted>
17.3170

> <Gold.Goldscore.Internal.HBond.Weighted>
0.0000

> <Gold.Goldscore.External.HBond.Weighted>
2.5424

> <Gold.Goldscore.Internal.Correction.Weighted>
-0.7579

> <Gold.Rescore>
     Score     S(PLP)   S(hbond)     S(cho)   S(metal)  DE(clash)   DE(tors)     intcor
     25.31     -17.91       2.60       0.00       0.00       0.00       0.20       ----

> <Gold.PLP.Fitness>
25.3079

> <Gold.PLP.PLP>
-17.9106

> <Gold.PLP.part.hbond>
-3.0000

> <Gold.PLP.part.metal>
0.0000

> <Gold.PLP.part.buried>
-2.8500

> <Gold.PLP.part.nonpolar>
-13.0734

> <Gold.PLP.part.repulsive>
0.4064

> <Gold.PLP.ligand.clash>
0.0000

> <Gold.PLP.ligand.torsion>
0.1954

> <Gold.PLP.Chemscore.Hbond>
2.5960

> <Gold.PLP.Chemscore.CHOScore>
0.0000

> <Gold.PLP.Chemscore.Metal>
0.0000

> <Gold.Chemscore.Hbonds>
donor molecule, donor type, donor heavy atom, donor atom, acceptor molecule, acceptor atom, score
      L1  H     8    22       P1  8028  0.50
      P1  H  8025  8066       L1     9  0.60

> <Gold.PLP.Chemscore.Internal.Correction>
   9.000000E+99

