#       Name:                CT1002167954
#       Creating user name   hitesit
#       Creation time:       Sun Apr 16 23:07:40 2023


#       File generated by GOLD software.
#

@<TRIPOS>MOLECULE
CT1002167954|ligand_prepared|mol2|1|dock1
    29    30     1
SMALL
NO_CHARGES


@<TRIPOS>ATOM
      1 C1         246.2678  -6.8360  42.9739 C.3            1 RES1               0.0000
      2 C2         246.6457  -6.5619  41.5039 C.ar           1 RES1               0.0000
      3 C3         247.5353  -6.6071  43.7920 C.2            1 RES1               0.0000
      4 C4         245.1303  -5.8773  43.3078 C.2            1 RES1               0.0000
      5 C5         245.7697  -8.2770  43.2327 C.3            1 RES1               0.0000
      6 C6         246.9411  -5.2706  41.0772 C.ar           1 RES1               0.0000
      7 C7         246.7055  -7.5885  40.5653 C.ar           1 RES1               0.0000
      8 N8         247.6038  -5.4737  44.5473 N.am           1 RES1               0.0000
      9 O9         248.4766  -7.3894  43.7442 O.2            1 RES1               0.0000
     10 N10        245.3658  -4.9015  44.2407 N.am           1 RES1               0.0000
     11 O11        244.0373  -5.9476  42.7594 O.2            1 RES1               0.0000
     12 C12        245.2877  -8.5128  44.6554 C.3            1 RES1               0.0000
     13 C13        247.2868  -5.0153  39.7605 C.ar           1 RES1               0.0000
     14 C14        247.0512  -7.3309  39.2490 C.ar           1 RES1               0.0000
     15 C15        246.5605  -4.6371  44.8531 C.2            1 RES1               0.0000
     16 C16        247.3425  -6.0452  38.8457 C.ar           1 RES1               0.0000
     17 O17        246.7080  -3.7071  45.6408 O.2            1 RES1               0.0000
     18 H18        244.9474  -8.4960  42.5404 H              1 RES1               0.0000
     19 H19        246.5860  -8.9770  43.0159 H              1 RES1               0.0000
     20 H20        246.9002  -4.4470  41.7822 H              1 RES1               0.0000
     21 H21        246.4793  -8.6077  40.8598 H              1 RES1               0.0000
     22 H22        248.5150  -5.2250  44.9191 H              1 RES1               0.0000
     23 H23        244.5775  -4.3184  44.5031 H              1 RES1               0.0000
     24 H24        244.9494  -9.5390  44.7830 H              1 RES1               0.0000
     25 H25        246.0878  -8.3286  45.3693 H              1 RES1               0.0000
     26 H26        244.4589  -7.8504  44.8967 H              1 RES1               0.0000
     27 H27        247.5139  -4.0014  39.4479 H              1 RES1               0.0000
     28 H28        247.0932  -8.1445  38.5323 H              1 RES1               0.0000
     29 H29        247.6137  -5.8449  37.8144 H              1 RES1               0.0000
@<TRIPOS>BOND
    1    1    2 1     
    2    1    3 1     
    3    1    4 1     
    4    1    5 1     
    5    2    6 ar    
    6    2    7 ar    
    7    3    8 1     
    8    3    9 2     
    9    4   10 1     
   10    4   11 2     
   11    5   12 1     
   12    5   18 1     
   13    5   19 1     
   14    6   13 ar    
   15    6   20 1     
   16    7   14 ar    
   17    7   21 1     
   18    8   15 1     
   19    8   22 1     
   20   10   15 1     
   21   10   23 1     
   22   12   24 1     
   23   12   25 1     
   24   12   26 1     
   25   13   16 ar    
   26   13   27 1     
   27   14   16 ar    
   28   14   28 1     
   29   15   17 2     
   30   16   29 1     
@<TRIPOS>SUBSTRUCTURE
      1 RES1           1
@<TRIPOS>SET
DONOR_HYDROGENS      STATIC     ATOMS    <user>   **** ""
2 22 23
ATOM$RED        STATIC     ATOMS    COLORGROUP SYSTEM
2 22 23
@<TRIPOS>COMMENT
> <Gold.Version>
2022.3.0

> <Gold.Id.Protein>
unknown|4d1n_clean|pdb

> <Gold.Protein.RotatedTorsions>
[ 6614 6573 6574 6575 ] final  -51.88 input  116.02 | X-H torsion
[ 6700 6661 6662 6663 ] final  169.45 input  125.25 | X-H torsion
[ 8066 8025 8026 8027 ] final  -26.74 input   31.90 | X-H torsion
[ 8137 8104 8105 8106 ] final  -69.67 input   91.64 | X-H torsion
[ 8200 8166 8167 8168 ] final -164.92 input   70.29 | X-H torsion
[ 8280 8242 8243 8244 ] final  -63.99 input   89.64 | X-H torsion
[ 8333 8313 8314 8315 ] final  -81.31 input   85.58 | X-H torsion
[ 9580 9544 9543 9541 ] final  146.85 input   60.01 | X-H torsion
[ 10226 10185 10186 10187 ] final -136.80 input   40.00 | X-H torsion
[ 7988 7940 7941 7942 ] final -118.33 input   82.26 | X-H torsion
[ 7908 7887 7888 7889 ] final   62.21 input   90.27 | X-H torsion
[ 7912 7892 7891 7888 ] final -118.69 input   59.97 | X-H torsion
[ 6852 6804 6805 6806 ] final  -32.01 input  117.17 | X-H torsion
[ 27193 6336 6335 6334 ] final   51.78 input   -0.00 | X-H torsion
[ 27195 6500 6499 6498 ] final -118.37 input    0.00 | X-H torsion
[ 27198 6576 6575 6574 ] final -103.10 input   -0.00 | X-H torsion
[ 27201 7890 7889 7888 ] final   21.99 input    0.00 | X-H torsion
[ 27204 8028 8027 8026 ] final   -7.70 input   -0.00 | X-H torsion
[ 27207 8107 8106 8105 ] final   86.44 input    0.00 | X-H torsion
[ 27210 8169 8168 8167 ] final   76.53 input    0.00 | X-H torsion
[ 27213 10098 10097 10096 ] final -100.77 input    0.00 | X-H torsion
[ 27215 10188 10187 10186 ] final  142.42 input   -0.00 | X-H torsion
[ 27217 8245 8244 8243 ] final -157.15 input   -0.00 | X-H torsion
[ 27224 7943 7942 7941 ] final  -65.37 input    0.00 | X-H torsion
[ 27226 7818 7817 7816 ] final -132.45 input    0.00 | X-H torsion

> <Gold.Protein.ActiveResidues>
 ASP403  THR404  LEU406  ILE407  TYR408  ALA410  LYS411  TRP414  TRP426  SER427 
 LYS428  LEU429  GLN430  VAL431  PHE432  ASP433  TYR453  SER462  ALA463  ILE464 
 ILE466 

> <Gold.Protein.RotatedAtoms>
  241.4542   -0.4390   49.8662 H   0  0  0  0  0  0  0  0  0  0  0  0  # atno 6614 bound_to 6573
  239.6516   -2.6173   48.0923 H   0  0  0  0  0  0  0  0  0  0  0  0  # atno 6700 bound_to 6661
  240.5231    2.8730   44.8756 H   0  0  0  0  0  0  0  0  0  0  0  0  # atno 6852 bound_to 6804
  240.5460   -1.0655   36.6814 H   0  0  0  0  0  0  0  0  0  0  0  0  # atno 7908 bound_to 7887
  238.7925   -3.4958   36.4579 H   0  0  0  0  0  0  0  0  0  0  0  0  # atno 7912 bound_to 7892
  241.9832   -2.8937   38.1879 H   0  0  0  0  0  0  0  0  0  0  0  0  # atno 7988 bound_to 7940
  245.4363   -2.9482   39.6149 H   0  0  0  0  0  0  0  0  0  0  0  0  # atno 8066 bound_to 8025
  246.7541   -1.4189   41.8100 H   0  0  0  0  0  0  0  0  0  0  0  0  # atno 8137 bound_to 8104
  247.5841   -1.4381   44.2332 H   0  0  0  0  0  0  0  0  0  0  0  0  # atno 8200 bound_to 8166
  248.9057   -0.7038   47.6112 H   0  0  0  0  0  0  0  0  0  0  0  0  # atno 8280 bound_to 8242
  250.3100   -0.0192   50.2631 H   0  0  0  0  0  0  0  0  0  0  0  0  # atno 8333 bound_to 8313
  251.1514   -3.8053   40.1392 H   0  0  0  0  0  0  0  0  0  0  0  0  # atno 9580 bound_to 9544
  249.7876    2.9990   42.8547 H   0  0  0  0  0  0  0  0  0  0  0  0  # atno 10226 bound_to 10185
  243.1922   -3.5219   51.2557 LP  0  0  0  0  0  0  0  0  0  0  0  0  # atno 27193 bound_to 6336
  241.5363   -3.0140   51.2450 LP  0  0  0  0  0  0  0  0  0  0  0  0  # atno 27194 bound_to 6336
  241.0615    0.9358   48.5103 LP  0  0  0  0  0  0  0  0  0  0  0  0  # atno 27195 bound_to 6500
  242.4212    1.5104   49.4163 LP  0  0  0  0  0  0  0  0  0  0  0  0  # atno 27196 bound_to 6500
  241.8311   -2.0891   50.3032 LP  0  0  0  0  0  0  0  0  0  0  0  0  # atno 27197 bound_to 6573
  240.6325    0.4740   46.4807 LP  0  0  0  0  0  0  0  0  0  0  0  0  # atno 27198 bound_to 6576
  241.1750   -0.8708   45.5334 LP  0  0  0  0  0  0  0  0  0  0  0  0  # atno 27199 bound_to 6576
  240.2719   -0.9826   48.0069 LP  0  0  0  0  0  0  0  0  0  0  0  0  # atno 27200 bound_to 6661
  241.3444   -4.0536   39.9756 LP  0  0  0  0  0  0  0  0  0  0  0  0  # atno 27201 bound_to 7890
  243.0361   -3.7880   39.7158 LP  0  0  0  0  0  0  0  0  0  0  0  0  # atno 27202 bound_to 7890
  244.3005   -1.7385   39.0583 LP  0  0  0  0  0  0  0  0  0  0  0  0  # atno 27203 bound_to 8025
  244.7861   -2.4007   42.3505 LP  0  0  0  0  0  0  0  0  0  0  0  0  # atno 27204 bound_to 8028
  246.2489   -2.9329   43.1100 LP  0  0  0  0  0  0  0  0  0  0  0  0  # atno 27205 bound_to 8028
  248.2325   -1.2115   40.9030 LP  0  0  0  0  0  0  0  0  0  0  0  0  # atno 27206 bound_to 8104
  248.2673    0.6710   43.5481 LP  0  0  0  0  0  0  0  0  0  0  0  0  # atno 27207 bound_to 8107
  249.8429    0.1820   44.0757 LP  0  0  0  0  0  0  0  0  0  0  0  0  # atno 27208 bound_to 8107
  248.5878   -2.5027   45.1889 LP  0  0  0  0  0  0  0  0  0  0  0  0  # atno 27209 bound_to 8166
  249.1474   -3.0737   47.3691 LP  0  0  0  0  0  0  0  0  0  0  0  0  # atno 27210 bound_to 8169
  248.4826   -2.3391   48.7898 LP  0  0  0  0  0  0  0  0  0  0  0  0  # atno 27211 bound_to 8169
  250.0981    0.2828   46.8036 LP  0  0  0  0  0  0  0  0  0  0  0  0  # atno 27212 bound_to 8242
  248.8750   -0.4481   40.1879 LP  0  0  0  0  0  0  0  0  0  0  0  0  # atno 27213 bound_to 10098
  250.5051   -0.6981   39.6586 LP  0  0  0  0  0  0  0  0  0  0  0  0  # atno 27214 bound_to 10098
  250.6210    1.7519   46.7559 LP  0  0  0  0  0  0  0  0  0  0  0  0  # atno 27215 bound_to 10188
  249.0319    1.6414   46.0760 LP  0  0  0  0  0  0  0  0  0  0  0  0  # atno 27216 bound_to 10188
  249.7908    1.7853   50.8319 LP  0  0  0  0  0  0  0  0  0  0  0  0  # atno 27217 bound_to 8245
  249.6317    1.7860   49.1072 LP  0  0  0  0  0  0  0  0  0  0  0  0  # atno 27218 bound_to 8245
  250.1678   -1.6885   50.7638 LP  0  0  0  0  0  0  0  0  0  0  0  0  # atno 27219 bound_to 8313
  251.8658   -5.2636   40.2495 LP  0  0  0  0  0  0  0  0  0  0  0  0  # atno 27220 bound_to 9544
  252.0607   -4.3554   38.9064 LP  0  0  0  0  0  0  0  0  0  0  0  0  # atno 27221 bound_to 9544
  249.3243    1.8312   44.0690 LP  0  0  0  0  0  0  0  0  0  0  0  0  # atno 27222 bound_to 10185
  242.4481   -1.5073   37.2261 LP  0  0  0  0  0  0  0  0  0  0  0  0  # atno 27223 bound_to 7940
  246.1793   -1.1521   36.9356 LP  0  0  0  0  0  0  0  0  0  0  0  0  # atno 27224 bound_to 7943
  245.2577    0.0148   37.8239 LP  0  0  0  0  0  0  0  0  0  0  0  0  # atno 27225 bound_to 7943
  241.8185   -0.0604   39.6803 LP  0  0  0  0  0  0  0  0  0  0  0  0  # atno 27226 bound_to 7818
  240.6651    1.2250   39.8129 LP  0  0  0  0  0  0  0  0  0  0  0  0  # atno 27227 bound_to 7818
  240.2337    0.0061   38.0213 LP  0  0  0  0  0  0  0  0  0  0  0  0  # atno 27228 bound_to 7887
  239.6320   -4.6786   37.1959 LP  0  0  0  0  0  0  0  0  0  0  0  0  # atno 27229 bound_to 7892
  240.3976   -3.3343   36.6730 LP  0  0  0  0  0  0  0  0  0  0  0  0  # atno 27230 bound_to 7892

> <Gold.Score>
     Fitness  S(hb_ext) S(vdw_ext)  S(hb_int)    S(int)      intcor
     33.13      12.11      15.29       0.00      -0.00      -0.76

> <Gold.Goldscore.Fitness>
33.1331

> <Gold.Goldscore.Internal.Vdw>
-0.3565

> <Gold.Goldscore.Internal.Torsion>
-0.4034

> <Gold.Goldscore.External.Vdw>
15.2910

> <Gold.Goldscore.Internal.HBond>
0.0000

> <Gold.Goldscore.External.HBond>
12.1101

> <Gold.Goldscore.Internal.Correction>
-0.7579

> <Gold.Goldscore.Hbonds>
donor molecule, donor type, donor heavy atom, donor atom, acceptor molecule, acceptor atom, score
      P1  H  6812  6863       L1    11  0.98
      P1  H  8111  8143       L1     9  0.12
      L1  H     8    22       P1  8112  1.00

> <Gold.Goldscore.Internal.Vdw.Weighted>
-0.3565

> <Gold.Goldscore.Internal.Torsion.Weighted>
-0.4034

> <Gold.Goldscore.External.Vdw.Weighted>
21.0251

> <Gold.Goldscore.Internal.HBond.Weighted>
0.0000

> <Gold.Goldscore.External.HBond.Weighted>
12.1101

> <Gold.Goldscore.Internal.Correction.Weighted>
-0.7579

> <Gold.Rescore>
     Score     S(PLP)   S(hbond)     S(cho)   S(metal)  DE(clash)   DE(tors)     intcor
     28.64     -19.67       3.00       0.00       0.00       0.00       0.01       ----

> <Gold.PLP.Fitness>
28.6446

> <Gold.PLP.PLP>
-19.6719

> <Gold.PLP.part.hbond>
-4.0000

> <Gold.PLP.part.metal>
0.0000

> <Gold.PLP.part.buried>
-2.1332

> <Gold.PLP.part.nonpolar>
-14.2703

> <Gold.PLP.part.repulsive>
0.4743

> <Gold.PLP.ligand.clash>
0.0000

> <Gold.PLP.ligand.torsion>
0.0137

> <Gold.PLP.Chemscore.Hbond>
3.0000

> <Gold.PLP.Chemscore.CHOScore>
0.0000

> <Gold.PLP.Chemscore.Metal>
0.0000

> <Gold.Chemscore.Hbonds>
donor molecule, donor type, donor heavy atom, donor atom, acceptor molecule, acceptor atom, score
      L1  H     8    22       P1  8112  0.50
      P1  H  6812  6863       L1    11  1.00
      P1  H  8111  8143       L1     9  0.98

> <Gold.PLP.Chemscore.Internal.Correction>
   9.000000E+99

