#       Name:                CT1002167954
#       Creating user name   hitesit
#       Creation time:       Sun Apr 16 23:07:43 2023


#       File generated by GOLD software.
#

@<TRIPOS>MOLECULE
CT1002167954|ligand_prepared|mol2|1|dock6
    29    30     1
SMALL
NO_CHARGES


@<TRIPOS>ATOM
      1 C1         248.6550  -3.7899  37.3572 C.3            1 RES1               0.0000
      2 C2         248.2362  -2.6040  36.4644 C.ar           1 RES1               0.0000
      3 C3         248.7660  -3.2398  38.7761 C.2            1 RES1               0.0000
      4 C4         247.5773  -4.8547  37.1852 C.2            1 RES1               0.0000
      5 C5         250.0132  -4.4174  36.9660 C.3            1 RES1               0.0000
      6 C6         248.5738  -2.5794  35.1146 C.ar           1 RES1               0.0000
      7 C7         247.5111  -1.5306  36.9749 C.ar           1 RES1               0.0000
      8 N8         247.7835  -3.5727  39.6614 N.am           1 RES1               0.0000
      9 O9         249.6805  -2.4931  39.1022 O.2            1 RES1               0.0000
     10 N10        246.8029  -5.1658  38.2721 N.am           1 RES1               0.0000
     11 O11        247.3808  -5.4152  36.1140 O.2            1 RES1               0.0000
     12 C12        250.4942  -5.4892  37.9313 C.3            1 RES1               0.0000
     13 C13        248.1976  -1.5215  34.3036 C.ar           1 RES1               0.0000
     14 C14        247.1360  -0.4735  36.1622 C.ar           1 RES1               0.0000
     15 C15        246.8367  -4.5512  39.4941 C.2            1 RES1               0.0000
     16 C16        247.4782  -0.4682  34.8267 C.ar           1 RES1               0.0000
     17 O17        246.0706  -4.8499  40.4057 O.2            1 RES1               0.0000
     18 H18        249.9236  -4.8579  35.9653 H              1 RES1               0.0000
     19 H19        250.7680  -3.6228  36.9161 H              1 RES1               0.0000
     20 H20        249.1418  -3.3983  34.6857 H              1 RES1               0.0000
     21 H21        247.2318  -1.5130  38.0229 H              1 RES1               0.0000
     22 H22        247.7496  -3.0454  40.5281 H              1 RES1               0.0000
     23 H23        246.1398  -5.9261  38.1598 H              1 RES1               0.0000
     24 H24        251.4509  -5.8962  37.6104 H              1 RES1               0.0000
     25 H25        250.6186  -5.0797  38.9316 H              1 RES1               0.0000
     26 H26        249.7792  -6.3075  37.9865 H              1 RES1               0.0000
     27 H27        248.4705  -1.5214  33.2535 H              1 RES1               0.0000
     28 H28        246.5704   0.3536  36.5783 H              1 RES1               0.0000
     29 H29        247.1832   0.3603  34.1911 H              1 RES1               0.0000
@<TRIPOS>BOND
    1    1    2 1     
    2    1    3 1     
    3    1    4 1     
    4    1    5 1     
    5    2    6 ar    
    6    2    7 ar    
    7    3    8 1     
    8    3    9 2     
    9    4   10 1     
   10    4   11 2     
   11    5   12 1     
   12    5   18 1     
   13    5   19 1     
   14    6   13 ar    
   15    6   20 1     
   16    7   14 ar    
   17    7   21 1     
   18    8   15 1     
   19    8   22 1     
   20   10   15 1     
   21   10   23 1     
   22   12   24 1     
   23   12   25 1     
   24   12   26 1     
   25   13   16 ar    
   26   13   27 1     
   27   14   16 ar    
   28   14   28 1     
   29   15   17 2     
   30   16   29 1     
@<TRIPOS>SUBSTRUCTURE
      1 RES1           1
@<TRIPOS>SET
DONOR_HYDROGENS      STATIC     ATOMS    <user>   **** ""
2 22 23
ATOM$RED        STATIC     ATOMS    COLORGROUP SYSTEM
2 22 23
@<TRIPOS>COMMENT
> <Gold.Version>
2022.3.0

> <Gold.Id.Protein>
unknown|4d1n_clean|pdb

> <Gold.Protein.RotatedTorsions>
[ 6614 6573 6574 6575 ] final   -7.34 input  116.02 | X-H torsion
[ 6700 6661 6662 6663 ] final -132.59 input  125.25 | X-H torsion
[ 8066 8025 8026 8027 ] final   -5.24 input   31.90 | X-H torsion
[ 8137 8104 8105 8106 ] final  -44.00 input   91.64 | X-H torsion
[ 8200 8166 8167 8168 ] final -162.32 input   70.29 | X-H torsion
[ 8280 8242 8243 8244 ] final -109.47 input   89.64 | X-H torsion
[ 8333 8313 8314 8315 ] final -126.68 input   85.58 | X-H torsion
[ 9580 9544 9543 9541 ] final -170.48 input   60.01 | X-H torsion
[ 10226 10185 10186 10187 ] final  162.13 input   40.00 | X-H torsion
[ 7988 7940 7941 7942 ] final  155.28 input   82.26 | X-H torsion
[ 7908 7887 7888 7889 ] final -133.41 input   90.27 | X-H torsion
[ 7912 7892 7891 7888 ] final   13.31 input   59.97 | X-H torsion
[ 6852 6804 6805 6806 ] final   32.34 input  117.17 | X-H torsion
[ 27193 6336 6335 6334 ] final  -96.44 input   -0.00 | X-H torsion
[ 27195 6500 6499 6498 ] final  -25.20 input    0.00 | X-H torsion
[ 27198 6576 6575 6574 ] final -170.25 input   -0.00 | X-H torsion
[ 27201 7890 7889 7888 ] final  112.42 input    0.00 | X-H torsion
[ 27204 8028 8027 8026 ] final  -53.93 input   -0.00 | X-H torsion
[ 27207 8107 8106 8105 ] final  -36.94 input    0.00 | X-H torsion
[ 27210 8169 8168 8167 ] final  178.56 input    0.00 | X-H torsion
[ 27213 10098 10097 10096 ] final   36.75 input    0.00 | X-H torsion
[ 27215 10188 10187 10186 ] final -112.54 input   -0.00 | X-H torsion
[ 27217 8245 8244 8243 ] final  155.53 input   -0.00 | X-H torsion
[ 27224 7943 7942 7941 ] final   36.12 input    0.00 | X-H torsion
[ 27226 7818 7817 7816 ] final   80.13 input    0.00 | X-H torsion

> <Gold.Protein.ActiveResidues>
 ASP403  THR404  LEU406  ILE407  TYR408  ALA410  LYS411  TRP414  TRP426  SER427 
 LYS428  LEU429  GLN430  VAL431  PHE432  ASP433  TYR453  SER462  ALA463  ILE464 
 ILE466 

> <Gold.Protein.RotatedAtoms>
  240.9099   -0.8315   49.8709 H   0  0  0  0  0  0  0  0  0  0  0  0  # atno 6614 bound_to 6573
  240.0724   -2.3665   47.3822 H   0  0  0  0  0  0  0  0  0  0  0  0  # atno 6700 bound_to 6661
  239.9752    2.1686   45.1829 H   0  0  0  0  0  0  0  0  0  0  0  0  # atno 6852 bound_to 6804
  240.0052   -0.0287   37.9660 H   0  0  0  0  0  0  0  0  0  0  0  0  # atno 7908 bound_to 7887
  240.4753   -3.4890   36.7660 H   0  0  0  0  0  0  0  0  0  0  0  0  # atno 7912 bound_to 7892
  242.0135   -2.6836   36.9892 H   0  0  0  0  0  0  0  0  0  0  0  0  # atno 7988 bound_to 7940
  245.1988   -2.9760   39.8446 H   0  0  0  0  0  0  0  0  0  0  0  0  # atno 8066 bound_to 8025
  246.8808   -1.0674   41.9291 H   0  0  0  0  0  0  0  0  0  0  0  0  # atno 8137 bound_to 8104
  247.6169   -1.4176   44.2231 H   0  0  0  0  0  0  0  0  0  0  0  0  # atno 8200 bound_to 8166
  249.3079   -1.0637   47.1966 H   0  0  0  0  0  0  0  0  0  0  0  0  # atno 8280 bound_to 8242
  249.7158   -0.3004   50.0770 H   0  0  0  0  0  0  0  0  0  0  0  0  # atno 8333 bound_to 8313
  251.3704   -3.6289   39.5184 H   0  0  0  0  0  0  0  0  0  0  0  0  # atno 9580 bound_to 9544
  248.9301    2.7493   42.9435 H   0  0  0  0  0  0  0  0  0  0  0  0  # atno 10226 bound_to 10185
  241.7652   -2.7048   51.5223 LP  0  0  0  0  0  0  0  0  0  0  0  0  # atno 27193 bound_to 6336
  242.9633   -3.8312   50.9784 LP  0  0  0  0  0  0  0  0  0  0  0  0  # atno 27194 bound_to 6336
  241.2477    1.6924   49.4982 LP  0  0  0  0  0  0  0  0  0  0  0  0  # atno 27195 bound_to 6500
  242.2350    0.7539   48.4284 LP  0  0  0  0  0  0  0  0  0  0  0  0  # atno 27196 bound_to 6500
  242.3616   -1.7065   50.2986 LP  0  0  0  0  0  0  0  0  0  0  0  0  # atno 27197 bound_to 6573
  240.0454   -0.0884   45.9741 LP  0  0  0  0  0  0  0  0  0  0  0  0  # atno 27198 bound_to 6576
  241.7621   -0.3085   46.0400 LP  0  0  0  0  0  0  0  0  0  0  0  0  # atno 27199 bound_to 6576
  239.8653   -1.2249   48.6931 LP  0  0  0  0  0  0  0  0  0  0  0  0  # atno 27200 bound_to 6661
  242.2025   -4.5443   39.2448 LP  0  0  0  0  0  0  0  0  0  0  0  0  # atno 27201 bound_to 7890
  242.1780   -3.2973   40.4466 LP  0  0  0  0  0  0  0  0  0  0  0  0  # atno 27202 bound_to 7890
  244.5306   -1.7115   38.8358 LP  0  0  0  0  0  0  0  0  0  0  0  0  # atno 27203 bound_to 8025
  244.9799   -2.0014   42.8656 LP  0  0  0  0  0  0  0  0  0  0  0  0  # atno 27204 bound_to 8028
  246.0550   -3.3322   42.5950 LP  0  0  0  0  0  0  0  0  0  0  0  0  # atno 27205 bound_to 8028
  248.1083   -1.5557   40.7863 LP  0  0  0  0  0  0  0  0  0  0  0  0  # atno 27206 bound_to 8104
  249.6762    0.1573   43.2718 LP  0  0  0  0  0  0  0  0  0  0  0  0  # atno 27207 bound_to 8107
  248.4340    0.6957   44.3521 LP  0  0  0  0  0  0  0  0  0  0  0  0  # atno 27208 bound_to 8107
  248.5556   -2.5227   45.1987 LP  0  0  0  0  0  0  0  0  0  0  0  0  # atno 27209 bound_to 8166
  249.5272   -2.5115   48.5321 LP  0  0  0  0  0  0  0  0  0  0  0  0  # atno 27210 bound_to 8169
  248.1029   -2.9012   47.6268 LP  0  0  0  0  0  0  0  0  0  0  0  0  # atno 27211 bound_to 8169
  249.7026    0.6367   47.2113 LP  0  0  0  0  0  0  0  0  0  0  0  0  # atno 27212 bound_to 8242
  250.0961   -0.8097   39.1959 LP  0  0  0  0  0  0  0  0  0  0  0  0  # atno 27213 bound_to 10098
  249.2839   -0.3365   40.6506 LP  0  0  0  0  0  0  0  0  0  0  0  0  # atno 27214 bound_to 10098
  249.2884    1.8615   47.0742 LP  0  0  0  0  0  0  0  0  0  0  0  0  # atno 27215 bound_to 10188
  250.3645    1.5318   45.7577 LP  0  0  0  0  0  0  0  0  0  0  0  0  # atno 27216 bound_to 10188
  249.1545    1.6144   50.6104 LP  0  0  0  0  0  0  0  0  0  0  0  0  # atno 27217 bound_to 8245
  250.2680    1.9569   49.3287 LP  0  0  0  0  0  0  0  0  0  0  0  0  # atno 27218 bound_to 8245
  250.7465   -1.4146   50.9450 LP  0  0  0  0  0  0  0  0  0  0  0  0  # atno 27219 bound_to 8313
  251.4616   -4.8378   40.6045 LP  0  0  0  0  0  0  0  0  0  0  0  0  # atno 27220 bound_to 9544
  252.2443   -4.9588   39.1764 LP  0  0  0  0  0  0  0  0  0  0  0  0  # atno 27221 bound_to 9544
  250.1630    2.0755   43.9822 LP  0  0  0  0  0  0  0  0  0  0  0  0  # atno 27222 bound_to 10185
  242.4188   -1.7106   38.3865 LP  0  0  0  0  0  0  0  0  0  0  0  0  # atno 27223 bound_to 7940
  245.0074   -0.5017   36.8901 LP  0  0  0  0  0  0  0  0  0  0  0  0  # atno 27224 bound_to 7943
  246.4297   -0.6356   37.8693 LP  0  0  0  0  0  0  0  0  0  0  0  0  # atno 27225 bound_to 7943
  240.4352    0.8205   39.9532 LP  0  0  0  0  0  0  0  0  0  0  0  0  # atno 27226 bound_to 7818
  242.0484    0.3441   39.5400 LP  0  0  0  0  0  0  0  0  0  0  0  0  # atno 27227 bound_to 7818
  240.7685   -1.0195   36.7506 LP  0  0  0  0  0  0  0  0  0  0  0  0  # atno 27228 bound_to 7887
  238.8970   -3.3403   36.3982 LP  0  0  0  0  0  0  0  0  0  0  0  0  # atno 27229 bound_to 7892
  239.4379   -4.6794   37.1604 LP  0  0  0  0  0  0  0  0  0  0  0  0  # atno 27230 bound_to 7892

> <Gold.Score>
     Fitness  S(hb_ext) S(vdw_ext)  S(hb_int)    S(int)      intcor
     37.29       3.77      25.35       0.00      -1.33      -0.76

> <Gold.Goldscore.Fitness>
37.2915

> <Gold.Goldscore.Internal.Vdw>
-1.6540

> <Gold.Goldscore.Internal.Torsion>
-0.4291

> <Gold.Goldscore.External.Vdw>
25.3466

> <Gold.Goldscore.Internal.HBond>
0.0000

> <Gold.Goldscore.External.HBond>
3.7651

> <Gold.Goldscore.Internal.Correction>
-0.7579

> <Gold.Goldscore.Hbonds>
donor molecule, donor type, donor heavy atom, donor atom, acceptor molecule, acceptor atom, score
      P1  H  8025  8066       L1    17  0.16
      P1  H  9544  9580       L1     9  0.01
      L1  H     8    22       P1  8104  0.57

> <Gold.Goldscore.Internal.Vdw.Weighted>
-1.6540

> <Gold.Goldscore.Internal.Torsion.Weighted>
-0.4291

> <Gold.Goldscore.External.Vdw.Weighted>
34.8516

> <Gold.Goldscore.Internal.HBond.Weighted>
0.0000

> <Gold.Goldscore.External.HBond.Weighted>
3.7651

> <Gold.Goldscore.Internal.Correction.Weighted>
-0.7579

> <Gold.Rescore>
     Score     S(PLP)   S(hbond)     S(cho)   S(metal)  DE(clash)   DE(tors)     intcor
     39.98     -34.70       1.96       0.00       0.00       0.00       0.30       ----

> <Gold.PLP.Fitness>
39.9799

> <Gold.PLP.PLP>
-34.6960

> <Gold.PLP.part.hbond>
-1.8608

> <Gold.PLP.part.metal>
0.0000

> <Gold.PLP.part.buried>
-5.7429

> <Gold.PLP.part.nonpolar>
-29.3023

> <Gold.PLP.part.repulsive>
0.2676

> <Gold.PLP.ligand.clash>
0.0000

> <Gold.PLP.ligand.torsion>
0.2981

> <Gold.PLP.Chemscore.Hbond>
1.9600

> <Gold.PLP.Chemscore.CHOScore>
0.0000

> <Gold.PLP.Chemscore.Metal>
0.0000

> <Gold.Chemscore.Hbonds>
donor molecule, donor type, donor heavy atom, donor atom, acceptor molecule, acceptor atom, score
      L1  H     8    22       P1  8104  0.85
      P1  H  8025  8066       L1    17  0.04
      P1  H  9544  9580       L1     9  1.00

> <Gold.PLP.Chemscore.Internal.Correction>
   9.000000E+99

