#       Name:                CT1002167954
#       Creating user name   hitesit
#       Creation time:       Sun Apr 16 23:07:44 2023


#       File generated by GOLD software.
#

@<TRIPOS>MOLECULE
CT1002167954|ligand_prepared|mol2|1|dock8
    29    30     1
SMALL
NO_CHARGES


@<TRIPOS>ATOM
      1 C1         247.7551  -5.6162  39.1750 C.3            1 RES1               0.0000
      2 C2         247.7537  -6.6687  38.0476 C.ar           1 RES1               0.0000
      3 C3         249.2185  -5.3732  39.5325 C.2            1 RES1               0.0000
      4 C4         247.0396  -4.3913  38.6159 C.2            1 RES1               0.0000
      5 C5         247.0059  -6.0662  40.4508 C.3            1 RES1               0.0000
      6 C6         247.8411  -8.0255  38.3448 C.ar           1 RES1               0.0000
      7 C7         247.6631  -6.2991  36.7083 C.ar           1 RES1               0.0000
      8 N8         249.7825  -4.2009  39.1236 N.am           1 RES1               0.0000
      9 O9         249.8785  -6.2146  40.1297 O.2            1 RES1               0.0000
     10 N10        247.7693  -3.2442  38.4443 N.am           1 RES1               0.0000
     11 O11        245.8546  -4.4141  38.3070 O.2            1 RES1               0.0000
     12 C12        246.6967  -4.9302  41.4131 C.3            1 RES1               0.0000
     13 C13        247.8352  -8.9784  37.3397 C.ar           1 RES1               0.0000
     14 C14        247.6575  -7.2537  35.7047 C.ar           1 RES1               0.0000
     15 C15        249.1155  -3.1024  38.6439 C.2            1 RES1               0.0000
     16 C16        247.7429  -8.5933  36.0192 C.ar           1 RES1               0.0000
     17 O17        249.7107  -2.0533  38.4152 O.2            1 RES1               0.0000
     18 H18        246.0643  -6.5460  40.1567 H              1 RES1               0.0000
     19 H19        247.6150  -6.8148  40.9724 H              1 RES1               0.0000
     20 H20        247.9169  -8.3474  39.3780 H              1 RES1               0.0000
     21 H21        247.5960  -5.2509  36.4374 H              1 RES1               0.0000
     22 H22        250.7939  -4.1348  39.1796 H              1 RES1               0.0000
     23 H23        247.2619  -2.4196  38.1395 H              1 RES1               0.0000
     24 H24        246.1709  -5.3004  42.2907 H              1 RES1               0.0000
     25 H25        247.6126  -4.4464  41.7459 H              1 RES1               0.0000
     26 H26        246.0711  -4.1792  40.9350 H              1 RES1               0.0000
     27 H27        247.9040 -10.0313  37.5923 H              1 RES1               0.0000
     28 H28        247.5854  -6.9459  34.6667 H              1 RES1               0.0000
     29 H29        247.7379  -9.3400  35.2320 H              1 RES1               0.0000
@<TRIPOS>BOND
    1    1    2 1     
    2    1    3 1     
    3    1    4 1     
    4    1    5 1     
    5    2    6 ar    
    6    2    7 ar    
    7    3    8 1     
    8    3    9 2     
    9    4   10 1     
   10    4   11 2     
   11    5   12 1     
   12    5   18 1     
   13    5   19 1     
   14    6   13 ar    
   15    6   20 1     
   16    7   14 ar    
   17    7   21 1     
   18    8   15 1     
   19    8   22 1     
   20   10   15 1     
   21   10   23 1     
   22   12   24 1     
   23   12   25 1     
   24   12   26 1     
   25   13   16 ar    
   26   13   27 1     
   27   14   16 ar    
   28   14   28 1     
   29   15   17 2     
   30   16   29 1     
@<TRIPOS>SUBSTRUCTURE
      1 RES1           1
@<TRIPOS>SET
DONOR_HYDROGENS      STATIC     ATOMS    <user>   **** ""
2 22 23
ATOM$RED        STATIC     ATOMS    COLORGROUP SYSTEM
2 22 23
@<TRIPOS>COMMENT
> <Gold.Version>
2022.3.0

> <Gold.Id.Protein>
unknown|4d1n_clean|pdb

> <Gold.Protein.RotatedTorsions>
[ 6614 6573 6574 6575 ] final  125.95 input  116.02 | X-H torsion
[ 6700 6661 6662 6663 ] final -123.34 input  125.25 | X-H torsion
[ 8066 8025 8026 8027 ] final  -58.44 input   31.90 | X-H torsion
[ 8137 8104 8105 8106 ] final  -65.81 input   91.64 | X-H torsion
[ 8200 8166 8167 8168 ] final   12.48 input   70.29 | X-H torsion
[ 8280 8242 8243 8244 ] final   -7.01 input   89.64 | X-H torsion
[ 8333 8313 8314 8315 ] final -144.94 input   85.58 | X-H torsion
[ 9580 9544 9543 9541 ] final   14.59 input   60.01 | X-H torsion
[ 10226 10185 10186 10187 ] final   25.39 input   40.00 | X-H torsion
[ 7988 7940 7941 7942 ] final   34.74 input   82.26 | X-H torsion
[ 7908 7887 7888 7889 ] final  153.46 input   90.27 | X-H torsion
[ 7912 7892 7891 7888 ] final   96.03 input   59.97 | X-H torsion
[ 6852 6804 6805 6806 ] final   69.90 input  117.17 | X-H torsion
[ 27193 6336 6335 6334 ] final  -74.67 input   -0.00 | X-H torsion
[ 27195 6500 6499 6498 ] final   -0.63 input    0.00 | X-H torsion
[ 27198 6576 6575 6574 ] final   95.53 input   -0.00 | X-H torsion
[ 27201 7890 7889 7888 ] final  -42.42 input    0.00 | X-H torsion
[ 27204 8028 8027 8026 ] final   23.33 input   -0.00 | X-H torsion
[ 27207 8107 8106 8105 ] final  176.85 input    0.00 | X-H torsion
[ 27210 8169 8168 8167 ] final  148.82 input    0.00 | X-H torsion
[ 27213 10098 10097 10096 ] final   67.93 input    0.00 | X-H torsion
[ 27215 10188 10187 10186 ] final   58.25 input   -0.00 | X-H torsion
[ 27217 8245 8244 8243 ] final -109.17 input   -0.00 | X-H torsion
[ 27224 7943 7942 7941 ] final   70.51 input    0.00 | X-H torsion
[ 27226 7818 7817 7816 ] final  -96.07 input    0.00 | X-H torsion

> <Gold.Protein.ActiveResidues>
 ASP403  THR404  LEU406  ILE407  TYR408  ALA410  LYS411  TRP414  TRP426  SER427 
 LYS428  LEU429  GLN430  VAL431  PHE432  ASP433  TYR453  SER462  ALA463  ILE464 
 ILE466 

> <Gold.Protein.RotatedAtoms>
  241.8048   -2.1197   50.2968 H   0  0  0  0  0  0  0  0  0  0  0  0  # atno 6614 bound_to 6573
  240.1404   -2.2594   47.3151 H   0  0  0  0  0  0  0  0  0  0  0  0  # atno 6700 bound_to 6661
  240.1058    1.6183   45.2583 H   0  0  0  0  0  0  0  0  0  0  0  0  # atno 6852 bound_to 6804
  239.5234   -0.6253   37.2567 H   0  0  0  0  0  0  0  0  0  0  0  0  # atno 7908 bound_to 7887
  240.0232   -4.5527   37.2082 H   0  0  0  0  0  0  0  0  0  0  0  0  # atno 7912 bound_to 7892
  242.5381   -1.3650   37.5988 H   0  0  0  0  0  0  0  0  0  0  0  0  # atno 7988 bound_to 7940
  245.6342   -2.7538   39.2164 H   0  0  0  0  0  0  0  0  0  0  0  0  # atno 8066 bound_to 8025
  246.7640   -1.3656   41.8344 H   0  0  0  0  0  0  0  0  0  0  0  0  # atno 8137 bound_to 8104
  248.6307   -2.4911   45.1911 H   0  0  0  0  0  0  0  0  0  0  0  0  # atno 8200 bound_to 8166
  248.9165    0.1209   47.7690 H   0  0  0  0  0  0  0  0  0  0  0  0  # atno 8280 bound_to 8242
  249.5484   -0.5262   50.0756 H   0  0  0  0  0  0  0  0  0  0  0  0  # atno 8333 bound_to 8313
  251.9735   -5.3070   40.0858 H   0  0  0  0  0  0  0  0  0  0  0  0  # atno 9580 bound_to 9544
  249.5872    1.8297   44.1348 H   0  0  0  0  0  0  0  0  0  0  0  0  # atno 10226 bound_to 10185
  242.0323   -2.5866   51.6694 LP  0  0  0  0  0  0  0  0  0  0  0  0  # atno 27193 bound_to 6336
  242.6961   -3.9493   50.8313 LP  0  0  0  0  0  0  0  0  0  0  0  0  # atno 27194 bound_to 6336
  241.5870    1.7587   49.6261 LP  0  0  0  0  0  0  0  0  0  0  0  0  # atno 27195 bound_to 6500
  241.8957    0.6875   48.3005 LP  0  0  0  0  0  0  0  0  0  0  0  0  # atno 27196 bound_to 6500
  241.4892   -0.4507   49.8835 LP  0  0  0  0  0  0  0  0  0  0  0  0  # atno 27197 bound_to 6573
  240.8998   -0.8879   45.4831 LP  0  0  0  0  0  0  0  0  0  0  0  0  # atno 27198 bound_to 6576
  240.9077    0.4911   46.5311 LP  0  0  0  0  0  0  0  0  0  0  0  0  # atno 27199 bound_to 6576
  239.7996   -1.3285   48.7579 LP  0  0  0  0  0  0  0  0  0  0  0  0  # atno 27200 bound_to 6661
  241.8195   -3.4149   40.4429 LP  0  0  0  0  0  0  0  0  0  0  0  0  # atno 27201 bound_to 7890
  242.5610   -4.4267   39.2485 LP  0  0  0  0  0  0  0  0  0  0  0  0  # atno 27202 bound_to 7890
  244.1087   -1.9268   39.4444 LP  0  0  0  0  0  0  0  0  0  0  0  0  # atno 27203 bound_to 8025
  244.9132   -2.7824   42.1207 LP  0  0  0  0  0  0  0  0  0  0  0  0  # atno 27204 bound_to 8028
  246.1217   -2.5512   43.3398 LP  0  0  0  0  0  0  0  0  0  0  0  0  # atno 27205 bound_to 8028
  248.2228   -1.2636   40.8790 LP  0  0  0  0  0  0  0  0  0  0  0  0  # atno 27206 bound_to 8104
  248.8361    0.5861   44.6345 LP  0  0  0  0  0  0  0  0  0  0  0  0  # atno 27207 bound_to 8107
  249.2742    0.2670   42.9894 LP  0  0  0  0  0  0  0  0  0  0  0  0  # atno 27208 bound_to 8107
  247.5645   -1.4732   44.2524 LP  0  0  0  0  0  0  0  0  0  0  0  0  # atno 27209 bound_to 8166
  249.6773   -2.7029   48.1600 LP  0  0  0  0  0  0  0  0  0  0  0  0  # atno 27210 bound_to 8169
  247.9528   -2.7098   47.9989 LP  0  0  0  0  0  0  0  0  0  0  0  0  # atno 27211 bound_to 8169
  250.0874   -0.5280   46.6486 LP  0  0  0  0  0  0  0  0  0  0  0  0  # atno 27212 bound_to 8242
  250.4328   -0.7376   39.5094 LP  0  0  0  0  0  0  0  0  0  0  0  0  # atno 27213 bound_to 10098
  248.9473   -0.4086   40.3371 LP  0  0  0  0  0  0  0  0  0  0  0  0  # atno 27214 bound_to 10098
  250.2490    1.5177   45.6815 LP  0  0  0  0  0  0  0  0  0  0  0  0  # atno 27215 bound_to 10188
  249.4039    1.8756   47.1504 LP  0  0  0  0  0  0  0  0  0  0  0  0  # atno 27216 bound_to 10188
  250.3816    1.9582   50.4899 LP  0  0  0  0  0  0  0  0  0  0  0  0  # atno 27217 bound_to 8245
  249.0409    1.6130   49.4492 LP  0  0  0  0  0  0  0  0  0  0  0  0  # atno 27218 bound_to 8245
  250.9094   -1.1947   50.9463 LP  0  0  0  0  0  0  0  0  0  0  0  0  # atno 27219 bound_to 8313
  251.9640   -4.1788   38.9127 LP  0  0  0  0  0  0  0  0  0  0  0  0  # atno 27220 bound_to 9544
  251.1348   -3.9282   40.2969 LP  0  0  0  0  0  0  0  0  0  0  0  0  # atno 27221 bound_to 9544
  249.5203    2.9750   42.8169 LP  0  0  0  0  0  0  0  0  0  0  0  0  # atno 27222 bound_to 10185
  241.9110   -2.9871   37.7964 LP  0  0  0  0  0  0  0  0  0  0  0  0  # atno 27223 bound_to 7940
  244.9477   -0.1848   37.2879 LP  0  0  0  0  0  0  0  0  0  0  0  0  # atno 27224 bound_to 7943
  246.4894   -0.9525   37.4715 LP  0  0  0  0  0  0  0  0  0  0  0  0  # atno 27225 bound_to 7943
  242.0593    0.3990   39.5272 LP  0  0  0  0  0  0  0  0  0  0  0  0  # atno 27226 bound_to 7818
  240.4243    0.7656   39.9660 LP  0  0  0  0  0  0  0  0  0  0  0  0  # atno 27227 bound_to 7818
  241.2452   -0.4294   37.4522 LP  0  0  0  0  0  0  0  0  0  0  0  0  # atno 27228 bound_to 7887
  240.1134   -3.0903   36.4997 LP  0  0  0  0  0  0  0  0  0  0  0  0  # atno 27229 bound_to 7892
  238.6768   -3.8583   36.6135 LP  0  0  0  0  0  0  0  0  0  0  0  0  # atno 27230 bound_to 7892

> <Gold.Score>
     Fitness  S(hb_ext) S(vdw_ext)  S(hb_int)    S(int)      intcor
     21.28       2.34      14.41       0.00      -0.88      -0.76

> <Gold.Goldscore.Fitness>
21.2775

> <Gold.Goldscore.Internal.Vdw>
-0.9419

> <Gold.Goldscore.Internal.Torsion>
-0.6967

> <Gold.Goldscore.External.Vdw>
14.4147

> <Gold.Goldscore.Internal.HBond>
0.0000

> <Gold.Goldscore.External.HBond>
2.3381

> <Gold.Goldscore.Internal.Correction>
-0.7579

> <Gold.Goldscore.Hbonds>
donor molecule, donor type, donor heavy atom, donor atom, acceptor molecule, acceptor atom, score
      P1  H  8025  8066       L1    11  0.25
      P1  H  8111  8144       L1     9  0.01
      L1  H     8    22       P1  9544  0.30
      L1  H    10    23       P1  7943  0.61

> <Gold.Goldscore.Internal.Vdw.Weighted>
-0.9419

> <Gold.Goldscore.Internal.Torsion.Weighted>
-0.6967

> <Gold.Goldscore.External.Vdw.Weighted>
19.8202

> <Gold.Goldscore.Internal.HBond.Weighted>
0.0000

> <Gold.Goldscore.External.HBond.Weighted>
2.3381

> <Gold.Goldscore.Internal.Correction.Weighted>
-0.7579

> <Gold.Rescore>
     Score     S(PLP)   S(hbond)     S(cho)   S(metal)  DE(clash)   DE(tors)     intcor
     14.92     -14.78       0.81       0.00       0.00       0.22       1.03       ----

> <Gold.PLP.Fitness>
14.9200

> <Gold.PLP.PLP>
-14.7793

> <Gold.PLP.part.hbond>
-3.1492

> <Gold.PLP.part.metal>
0.0000

> <Gold.PLP.part.buried>
2.8559

> <Gold.PLP.part.nonpolar>
-15.5616

> <Gold.PLP.part.repulsive>
1.1095

> <Gold.PLP.ligand.clash>
0.2167

> <Gold.PLP.ligand.torsion>
1.0297

> <Gold.PLP.Chemscore.Hbond>
0.8056

> <Gold.PLP.Chemscore.CHOScore>
0.0000

> <Gold.PLP.Chemscore.Metal>
0.0000

> <Gold.Chemscore.Hbonds>
donor molecule, donor type, donor heavy atom, donor atom, acceptor molecule, acceptor atom, score
      L1  H     8    22       P1  9544  0.44
      P1  H  8025  8066       L1    11  0.45
      P1  H  8111  8144       L1     9  0.37
      P1  H  9544  9580       L1     9  0.14

> <Gold.PLP.Chemscore.Internal.Correction>
   9.000000E+99

