#       Name:                CT1002167954
#       Creating user name   hitesit
#       Creation time:       Sun Apr 16 23:07:42 2023


#       File generated by GOLD software.
#

@<TRIPOS>MOLECULE
CT1002167954|ligand_prepared|mol2|1|dock5
    29    30     1
SMALL
NO_CHARGES


@<TRIPOS>ATOM
      1 C1         246.5366  -6.8066  43.1491 C.3            1 RES1               0.0000
      2 C2         247.1766  -6.3659  44.4814 C.ar           1 RES1               0.0000
      3 C3         245.5170  -5.7307  42.7870 C.2            1 RES1               0.0000
      4 C4         247.6806  -6.9409  42.1501 C.2            1 RES1               0.0000
      5 C5         245.8075  -8.1682  43.2264 C.3            1 RES1               0.0000
      6 C6         248.1001  -7.1819  45.1280 C.ar           1 RES1               0.0000
      7 C7         246.8561  -5.1473  45.0736 C.ar           1 RES1               0.0000
      8 N8         245.8332  -4.8766  41.7719 N.am           1 RES1               0.0000
      9 O9         244.4688  -5.6086  43.4088 O.2            1 RES1               0.0000
     10 N10        247.7104  -6.0757  41.0879 N.am           1 RES1               0.0000
     11 O11        248.5656  -7.7774  42.2823 O.2            1 RES1               0.0000
     12 C12        245.2739  -8.6548  41.8883 C.3            1 RES1               0.0000
     13 C13        248.6843  -6.7924  46.3219 C.ar           1 RES1               0.0000
     14 C14        247.4413  -4.7598  46.2678 C.ar           1 RES1               0.0000
     15 C15        246.8555  -5.0298  40.8702 C.2            1 RES1               0.0000
     16 C16        248.3557  -5.5811  46.8923 C.ar           1 RES1               0.0000
     17 O17        246.9794  -4.2615  39.9207 O.2            1 RES1               0.0000
     18 H18        246.5021  -8.9186  43.6236 H              1 RES1               0.0000
     19 H19        244.9701  -8.0809  43.9297 H              1 RES1               0.0000
     20 H20        248.3693  -8.1397  44.6954 H              1 RES1               0.0000
     21 H21        246.1385  -4.4855  44.6007 H              1 RES1               0.0000
     22 H22        245.2561  -4.0473  41.6742 H              1 RES1               0.0000
     23 H23        248.4372  -6.2254  40.3952 H              1 RES1               0.0000
     24 H24        244.7717  -9.6136  41.9989 H              1 RES1               0.0000
     25 H25        244.5606  -7.9442  41.4759 H              1 RES1               0.0000
     26 H26        246.0835  -8.7770  41.1716 H              1 RES1               0.0000
     27 H27        249.4024  -7.4430  46.8101 H              1 RES1               0.0000
     28 H28        247.1792  -3.8059  46.7134 H              1 RES1               0.0000
     29 H29        248.8137  -5.2761  47.8274 H              1 RES1               0.0000
@<TRIPOS>BOND
    1    1    2 1     
    2    1    3 1     
    3    1    4 1     
    4    1    5 1     
    5    2    6 ar    
    6    2    7 ar    
    7    3    8 1     
    8    3    9 2     
    9    4   10 1     
   10    4   11 2     
   11    5   12 1     
   12    5   18 1     
   13    5   19 1     
   14    6   13 ar    
   15    6   20 1     
   16    7   14 ar    
   17    7   21 1     
   18    8   15 1     
   19    8   22 1     
   20   10   15 1     
   21   10   23 1     
   22   12   24 1     
   23   12   25 1     
   24   12   26 1     
   25   13   16 ar    
   26   13   27 1     
   27   14   16 ar    
   28   14   28 1     
   29   15   17 2     
   30   16   29 1     
@<TRIPOS>SUBSTRUCTURE
      1 RES1           1
@<TRIPOS>SET
DONOR_HYDROGENS      STATIC     ATOMS    <user>   **** ""
2 22 23
ATOM$RED        STATIC     ATOMS    COLORGROUP SYSTEM
2 22 23
@<TRIPOS>COMMENT
> <Gold.Version>
2022.3.0

> <Gold.Id.Protein>
unknown|4d1n_clean|pdb

> <Gold.Protein.RotatedTorsions>
[ 6614 6573 6574 6575 ] final   50.61 input  116.02 | X-H torsion
[ 6700 6661 6662 6663 ] final  101.78 input  125.25 | X-H torsion
[ 8066 8025 8026 8027 ] final  -46.06 input   31.90 | X-H torsion
[ 8137 8104 8105 8106 ] final   86.27 input   91.64 | X-H torsion
[ 8200 8166 8167 8168 ] final  105.91 input   70.29 | X-H torsion
[ 8280 8242 8243 8244 ] final   77.85 input   89.64 | X-H torsion
[ 8333 8313 8314 8315 ] final   34.21 input   85.58 | X-H torsion
[ 9580 9544 9543 9541 ] final   79.70 input   60.01 | X-H torsion
[ 10226 10185 10186 10187 ] final  -30.28 input   40.00 | X-H torsion
[ 7988 7940 7941 7942 ] final -103.61 input   82.26 | X-H torsion
[ 7908 7887 7888 7889 ] final   22.21 input   90.27 | X-H torsion
[ 7912 7892 7891 7888 ] final -149.49 input   59.97 | X-H torsion
[ 6852 6804 6805 6806 ] final -123.12 input  117.17 | X-H torsion
[ 27193 6336 6335 6334 ] final  163.76 input   -0.00 | X-H torsion
[ 27195 6500 6499 6498 ] final -127.33 input    0.00 | X-H torsion
[ 27198 6576 6575 6574 ] final   24.03 input   -0.00 | X-H torsion
[ 27201 7890 7889 7888 ] final   19.65 input    0.00 | X-H torsion
[ 27204 8028 8027 8026 ] final  133.02 input   -0.00 | X-H torsion
[ 27207 8107 8106 8105 ] final  -91.53 input    0.00 | X-H torsion
[ 27210 8169 8168 8167 ] final -160.10 input    0.00 | X-H torsion
[ 27213 10098 10097 10096 ] final  -55.31 input    0.00 | X-H torsion
[ 27215 10188 10187 10186 ] final   82.79 input   -0.00 | X-H torsion
[ 27217 8245 8244 8243 ] final    8.60 input   -0.00 | X-H torsion
[ 27224 7943 7942 7941 ] final  -90.76 input    0.00 | X-H torsion
[ 27226 7818 7817 7816 ] final  110.47 input    0.00 | X-H torsion

> <Gold.Protein.ActiveResidues>
 ASP403  THR404  LEU406  ILE407  TYR408  ALA410  LYS411  TRP414  TRP426  SER427 
 LYS428  LEU429  GLN430  VAL431  PHE432  ASP433  TYR453  SER462  ALA463  ILE464 
 ILE466 

> <Gold.Protein.RotatedAtoms>
  240.8530   -1.6683   50.0499 H   0  0  0  0  0  0  0  0  0  0  0  0  # atno 6614 bound_to 6573
  239.5384   -1.9457   48.8126 H   0  0  0  0  0  0  0  0  0  0  0  0  # atno 6700 bound_to 6661
  241.6257    2.2867   44.6718 H   0  0  0  0  0  0  0  0  0  0  0  0  # atno 6852 bound_to 6804
  241.0634   -0.8640   36.9077 H   0  0  0  0  0  0  0  0  0  0  0  0  # atno 7908 bound_to 7887
  238.6823   -3.9383   36.6562 H   0  0  0  0  0  0  0  0  0  0  0  0  # atno 7912 bound_to 7892
  242.0421   -2.7569   38.3604 H   0  0  0  0  0  0  0  0  0  0  0  0  # atno 7988 bound_to 7940
  245.5824   -2.8491   39.3744 H   0  0  0  0  0  0  0  0  0  0  0  0  # atno 8066 bound_to 8025
  248.2332   -0.8979   41.0887 H   0  0  0  0  0  0  0  0  0  0  0  0  # atno 8137 bound_to 8104
  247.3696   -2.4328   44.9431 H   0  0  0  0  0  0  0  0  0  0  0  0  # atno 8200 bound_to 8166
  249.7839    0.6263   47.1341 H   0  0  0  0  0  0  0  0  0  0  0  0  # atno 8280 bound_to 8242
  250.9296   -1.1890   50.9654 H   0  0  0  0  0  0  0  0  0  0  0  0  # atno 8333 bound_to 8313
  251.3793   -4.6935   40.6210 H   0  0  0  0  0  0  0  0  0  0  0  0  # atno 9580 bound_to 9544
  250.2933    2.1825   43.8948 H   0  0  0  0  0  0  0  0  0  0  0  0  # atno 10226 bound_to 10185
  241.8699   -3.7845   50.7616 LP  0  0  0  0  0  0  0  0  0  0  0  0  # atno 27193 bound_to 6336
  242.8585   -2.7515   51.7391 LP  0  0  0  0  0  0  0  0  0  0  0  0  # atno 27194 bound_to 6336
  241.1526    0.8686   48.4363 LP  0  0  0  0  0  0  0  0  0  0  0  0  # atno 27195 bound_to 6500
  242.3301    1.5776   49.4903 LP  0  0  0  0  0  0  0  0  0  0  0  0  # atno 27196 bound_to 6500
  242.4170   -0.8908   50.1241 LP  0  0  0  0  0  0  0  0  0  0  0  0  # atno 27197 bound_to 6573
  241.7190   -0.4736   45.9088 LP  0  0  0  0  0  0  0  0  0  0  0  0  # atno 27198 bound_to 6576
  240.0885    0.0768   46.1054 LP  0  0  0  0  0  0  0  0  0  0  0  0  # atno 27199 bound_to 6576
  240.3813   -1.6316   47.3108 LP  0  0  0  0  0  0  0  0  0  0  0  0  # atno 27200 bound_to 6661
  241.3448   -4.0280   40.0000 LP  0  0  0  0  0  0  0  0  0  0  0  0  # atno 27201 bound_to 7890
  243.0356   -3.8135   39.6914 LP  0  0  0  0  0  0  0  0  0  0  0  0  # atno 27202 bound_to 7890
  244.1589   -1.8345   39.2913 LP  0  0  0  0  0  0  0  0  0  0  0  0  # atno 27203 bound_to 8025
  246.1113   -3.2948   42.6753 LP  0  0  0  0  0  0  0  0  0  0  0  0  # atno 27204 bound_to 8028
  244.9236   -2.0389   42.7852 LP  0  0  0  0  0  0  0  0  0  0  0  0  # atno 27205 bound_to 8028
  246.7835   -1.7217   41.6095 LP  0  0  0  0  0  0  0  0  0  0  0  0  # atno 27206 bound_to 8104
  249.8504    0.1764   44.0464 LP  0  0  0  0  0  0  0  0  0  0  0  0  # atno 27207 bound_to 8107
  248.2599    0.6766   43.5774 LP  0  0  0  0  0  0  0  0  0  0  0  0  # atno 27208 bound_to 8107
  248.7974   -1.5302   44.4948 LP  0  0  0  0  0  0  0  0  0  0  0  0  # atno 27209 bound_to 8166
  249.2995   -2.4034   48.7302 LP  0  0  0  0  0  0  0  0  0  0  0  0  # atno 27210 bound_to 8169
  248.3305   -3.0094   47.4287 LP  0  0  0  0  0  0  0  0  0  0  0  0  # atno 27211 bound_to 8169
  249.2346   -1.0249   47.2728 LP  0  0  0  0  0  0  0  0  0  0  0  0  # atno 27212 bound_to 8242
  248.9126   -0.6378   39.5472 LP  0  0  0  0  0  0  0  0  0  0  0  0  # atno 27213 bound_to 10098
  250.4675   -0.5084   40.2993 LP  0  0  0  0  0  0  0  0  0  0  0  0  # atno 27214 bound_to 10098
  250.5246    1.5645   45.9208 LP  0  0  0  0  0  0  0  0  0  0  0  0  # atno 27215 bound_to 10188
  249.1283    1.8288   46.9111 LP  0  0  0  0  0  0  0  0  0  0  0  0  # atno 27216 bound_to 10188
  249.8387    1.8432   49.1149 LP  0  0  0  0  0  0  0  0  0  0  0  0  # atno 27217 bound_to 8245
  249.5838    1.7280   50.8242 LP  0  0  0  0  0  0  0  0  0  0  0  0  # atno 27218 bound_to 8245
  249.5644   -0.5492   50.0797 LP  0  0  0  0  0  0  0  0  0  0  0  0  # atno 27219 bound_to 8313
  252.2453   -5.0749   39.2966 LP  0  0  0  0  0  0  0  0  0  0  0  0  # atno 27220 bound_to 9544
  251.4517   -3.6498   39.3741 LP  0  0  0  0  0  0  0  0  0  0  0  0  # atno 27221 bound_to 9544
  248.8297    2.6299   43.0516 LP  0  0  0  0  0  0  0  0  0  0  0  0  # atno 27222 bound_to 10185
  242.3911   -1.6397   37.0591 LP  0  0  0  0  0  0  0  0  0  0  0  0  # atno 27223 bound_to 7940
  246.4059   -1.0742   37.2314 LP  0  0  0  0  0  0  0  0  0  0  0  0  # atno 27224 bound_to 7943
  245.0312   -0.0631   37.5280 LP  0  0  0  0  0  0  0  0  0  0  0  0  # atno 27225 bound_to 7943
  240.4491    0.3734   40.0260 LP  0  0  0  0  0  0  0  0  0  0  0  0  # atno 27226 bound_to 7818
  242.0345    0.7912   39.4672 LP  0  0  0  0  0  0  0  0  0  0  0  0  # atno 27227 bound_to 7818
  239.7218   -0.1933   37.7974 LP  0  0  0  0  0  0  0  0  0  0  0  0  # atno 27228 bound_to 7887
  240.1043   -4.5124   37.2012 LP  0  0  0  0  0  0  0  0  0  0  0  0  # atno 27229 bound_to 7892
  240.0361   -3.0549   36.4679 LP  0  0  0  0  0  0  0  0  0  0  0  0  # atno 27230 bound_to 7892

> <Gold.Score>
     Fitness  S(hb_ext) S(vdw_ext)  S(hb_int)    S(int)      intcor
     27.52       6.27      17.35       0.00      -2.60      -0.76

> <Gold.Goldscore.Fitness>
27.5181

> <Gold.Goldscore.Internal.Vdw>
-2.9606

> <Gold.Goldscore.Internal.Torsion>
-0.4003

> <Gold.Goldscore.External.Vdw>
17.3497

> <Gold.Goldscore.Internal.HBond>
0.0000

> <Gold.Goldscore.External.HBond>
6.2653

> <Gold.Goldscore.Internal.Correction>
-0.7579

> <Gold.Goldscore.Hbonds>
donor molecule, donor type, donor heavy atom, donor atom, acceptor molecule, acceptor atom, score
      P1  H  6812  6863       L1     9  0.92
      P1  H  8025  8066       L1    17  0.34
      P1  H  8111  8143       L1    11  0.02
      L1  H     8    22       P1  8028  0.01

> <Gold.Goldscore.Internal.Vdw.Weighted>
-2.9606

> <Gold.Goldscore.Internal.Torsion.Weighted>
-0.4003

> <Gold.Goldscore.External.Vdw.Weighted>
23.8559

> <Gold.Goldscore.Internal.HBond.Weighted>
0.0000

> <Gold.Goldscore.External.HBond.Weighted>
6.2653

> <Gold.Goldscore.Internal.Correction.Weighted>
-0.7579

> <Gold.Rescore>
     Score     S(PLP)   S(hbond)     S(cho)   S(metal)  DE(clash)   DE(tors)     intcor
     32.10     -25.63       2.62       0.00       0.00       1.37       0.01       ----

> <Gold.PLP.Fitness>
32.1027

> <Gold.PLP.PLP>
-25.6260

> <Gold.PLP.part.hbond>
-3.8761

> <Gold.PLP.part.metal>
0.0000

> <Gold.PLP.part.buried>
-3.4792

> <Gold.PLP.part.nonpolar>
-21.0671

> <Gold.PLP.part.repulsive>
0.4176

> <Gold.PLP.ligand.clash>
1.3661

> <Gold.PLP.ligand.torsion>
0.0146

> <Gold.PLP.Chemscore.Hbond>
2.6240

> <Gold.PLP.Chemscore.CHOScore>
0.0000

> <Gold.PLP.Chemscore.Metal>
0.0000

> <Gold.Chemscore.Hbonds>
donor molecule, donor type, donor heavy atom, donor atom, acceptor molecule, acceptor atom, score
      L1  H     8    22       P1  8028  0.43
      P1  H  6812  6863       L1     9  1.00
      P1  H  8025  8066       L1    17  0.94
      P1  H  8111  8143       L1    11  0.19

> <Gold.PLP.Chemscore.Internal.Correction>
   9.000000E+99

