#       Name:                CT1002167954
#       Creating user name   hitesit
#       Creation time:       Sun Apr 16 23:07:41 2023


#       File generated by GOLD software.
#

@<TRIPOS>MOLECULE
CT1002167954|ligand_prepared|mol2|1|dock2
    29    30     1
SMALL
NO_CHARGES


@<TRIPOS>ATOM
      1 C1         246.1999  -6.7833  42.9202 C.3            1 RES1               0.0000
      2 C2         246.5347  -6.4276  41.4572 C.ar           1 RES1               0.0000
      3 C3         247.4910  -6.5990  43.7122 C.2            1 RES1               0.0000
      4 C4         245.0733  -5.8457  43.3401 C.2            1 RES1               0.0000
      5 C5         245.7086  -8.2369  43.1131 C.3            1 RES1               0.0000
      6 C6         247.3367  -5.3297  41.1607 C.ar           1 RES1               0.0000
      7 C7         246.0519  -7.1882  40.3956 C.ar           1 RES1               0.0000
      8 N8         247.5824  -5.5092  44.5269 N.am           1 RES1               0.0000
      9 O9         248.4300  -7.3765  43.5935 O.2            1 RES1               0.0000
     10 N10        245.3368  -4.9231  44.3184 N.am           1 RES1               0.0000
     11 O11        243.9646  -5.8866  42.8209 O.2            1 RES1               0.0000
     12 C12        245.6392  -8.6727  44.5682 C.3            1 RES1               0.0000
     13 C13        247.6473  -5.0055  39.8504 C.ar           1 RES1               0.0000
     14 C14        246.3636  -6.8621  39.0860 C.ar           1 RES1               0.0000
     15 C15        246.5491  -4.6919  44.9092 C.2            1 RES1               0.0000
     16 C16        247.1615  -5.7716  38.8124 C.ar           1 RES1               0.0000
     17 O17        246.7202  -3.8069  45.7426 O.2            1 RES1               0.0000
     18 H18        244.7111  -8.3346  42.6672 H              1 RES1               0.0000
     19 H19        246.3843  -8.9125  42.5741 H              1 RES1               0.0000
     20 H20        247.7262  -4.7136  41.9643 H              1 RES1               0.0000
     21 H21        245.4216  -8.0500  40.5871 H              1 RES1               0.0000
     22 H22        248.5042  -5.2806  44.8851 H              1 RES1               0.0000
     23 H23        244.5569  -4.3562  44.6357 H              1 RES1               0.0000
     24 H24        245.2889  -9.6997  44.6470 H              1 RES1               0.0000
     25 H25        246.6196  -8.6122  45.0362 H              1 RES1               0.0000
     26 H26        244.9562  -8.0377  45.1288 H              1 RES1               0.0000
     27 H27        248.2745  -4.1454  39.6403 H              1 RES1               0.0000
     28 H28        245.9785  -7.4675  38.2722 H              1 RES1               0.0000
     29 H29        247.4053  -5.5176  37.7861 H              1 RES1               0.0000
@<TRIPOS>BOND
    1    1    2 1     
    2    1    3 1     
    3    1    4 1     
    4    1    5 1     
    5    2    6 ar    
    6    2    7 ar    
    7    3    8 1     
    8    3    9 2     
    9    4   10 1     
   10    4   11 2     
   11    5   12 1     
   12    5   18 1     
   13    5   19 1     
   14    6   13 ar    
   15    6   20 1     
   16    7   14 ar    
   17    7   21 1     
   18    8   15 1     
   19    8   22 1     
   20   10   15 1     
   21   10   23 1     
   22   12   24 1     
   23   12   25 1     
   24   12   26 1     
   25   13   16 ar    
   26   13   27 1     
   27   14   16 ar    
   28   14   28 1     
   29   15   17 2     
   30   16   29 1     
@<TRIPOS>SUBSTRUCTURE
      1 RES1           1
@<TRIPOS>SET
DONOR_HYDROGENS      STATIC     ATOMS    <user>   **** ""
2 22 23
ATOM$RED        STATIC     ATOMS    COLORGROUP SYSTEM
2 22 23
@<TRIPOS>COMMENT
> <Gold.Version>
2022.3.0

> <Gold.Id.Protein>
unknown|4d1n_clean|pdb

> <Gold.Protein.RotatedTorsions>
[ 6614 6573 6574 6575 ] final   54.55 input  116.02 | X-H torsion
[ 6700 6661 6662 6663 ] final  -78.66 input  125.25 | X-H torsion
[ 8066 8025 8026 8027 ] final -135.44 input   31.90 | X-H torsion
[ 8137 8104 8105 8106 ] final -153.18 input   91.64 | X-H torsion
[ 8200 8166 8167 8168 ] final   95.28 input   70.29 | X-H torsion
[ 8280 8242 8243 8244 ] final   47.30 input   89.64 | X-H torsion
[ 8333 8313 8314 8315 ] final  121.47 input   85.58 | X-H torsion
[ 9580 9544 9543 9541 ] final  175.82 input   60.01 | X-H torsion
[ 10226 10185 10186 10187 ] final   95.01 input   40.00 | X-H torsion
[ 7988 7940 7941 7942 ] final -132.10 input   82.26 | X-H torsion
[ 7908 7887 7888 7889 ] final   36.77 input   90.27 | X-H torsion
[ 7912 7892 7891 7888 ] final  -37.03 input   59.97 | X-H torsion
[ 6852 6804 6805 6806 ] final   83.48 input  117.17 | X-H torsion
[ 27193 6336 6335 6334 ] final -147.35 input   -0.00 | X-H torsion
[ 27195 6500 6499 6498 ] final  146.43 input    0.00 | X-H torsion
[ 27198 6576 6575 6574 ] final  165.99 input   -0.00 | X-H torsion
[ 27201 7890 7889 7888 ] final    7.85 input    0.00 | X-H torsion
[ 27204 8028 8027 8026 ] final -139.08 input   -0.00 | X-H torsion
[ 27207 8107 8106 8105 ] final  137.64 input    0.00 | X-H torsion
[ 27210 8169 8168 8167 ] final  143.15 input    0.00 | X-H torsion
[ 27213 10098 10097 10096 ] final  -56.53 input    0.00 | X-H torsion
[ 27215 10188 10187 10186 ] final  -27.34 input   -0.00 | X-H torsion
[ 27217 8245 8244 8243 ] final   64.13 input   -0.00 | X-H torsion
[ 27224 7943 7942 7941 ] final -136.02 input    0.00 | X-H torsion
[ 27226 7818 7817 7816 ] final   95.05 input    0.00 | X-H torsion

> <Gold.Protein.ActiveResidues>
 ASP403  THR404  LEU406  ILE407  TYR408  ALA410  LYS411  TRP414  TRP426  SER427 
 LYS428  LEU429  GLN430  VAL431  PHE432  ASP433  TYR453  SER462  ALA463  ILE464 
 ILE466 

> <Gold.Protein.RotatedAtoms>
  240.8805   -1.7202   50.0657 H   0  0  0  0  0  0  0  0  0  0  0  0  # atno 6614 bound_to 6573
  240.3745   -1.6258   47.2736 H   0  0  0  0  0  0  0  0  0  0  0  0  # atno 6700 bound_to 6661
  240.2334    1.4522   45.2550 H   0  0  0  0  0  0  0  0  0  0  0  0  # atno 6852 bound_to 6804
  240.9011   -0.9631   36.7929 H   0  0  0  0  0  0  0  0  0  0  0  0  # atno 7908 bound_to 7887
  239.9217   -3.0230   36.4332 H   0  0  0  0  0  0  0  0  0  0  0  0  # atno 7912 bound_to 7892
  241.9426   -2.9800   37.9973 H   0  0  0  0  0  0  0  0  0  0  0  0  # atno 7988 bound_to 7940
  245.1908   -1.9452   38.6046 H   0  0  0  0  0  0  0  0  0  0  0  0  # atno 8066 bound_to 8025
  247.2952   -2.1084   41.0271 H   0  0  0  0  0  0  0  0  0  0  0  0  # atno 8137 bound_to 8104
  247.4736   -2.5252   45.0292 H   0  0  0  0  0  0  0  0  0  0  0  0  # atno 8200 bound_to 8166
  249.4319    0.6396   47.4359 H   0  0  0  0  0  0  0  0  0  0  0  0  # atno 8280 bound_to 8242
  249.8562   -1.6581   50.6159 H   0  0  0  0  0  0  0  0  0  0  0  0  # atno 8333 bound_to 8313
  251.2732   -3.6365   39.7195 H   0  0  0  0  0  0  0  0  0  0  0  0  # atno 9580 bound_to 9544
  248.7468    2.0945   43.6443 H   0  0  0  0  0  0  0  0  0  0  0  0  # atno 10226 bound_to 10185
  241.5168   -3.2441   51.0733 LP  0  0  0  0  0  0  0  0  0  0  0  0  # atno 27193 bound_to 6336
  243.2116   -3.2919   51.4273 LP  0  0  0  0  0  0  0  0  0  0  0  0  # atno 27194 bound_to 6336
  242.3328    0.7969   48.4958 LP  0  0  0  0  0  0  0  0  0  0  0  0  # atno 27195 bound_to 6500
  241.1499    1.6493   49.4308 LP  0  0  0  0  0  0  0  0  0  0  0  0  # atno 27196 bound_to 6500
  242.3903   -0.8402   50.1087 LP  0  0  0  0  0  0  0  0  0  0  0  0  # atno 27197 bound_to 6573
  240.0910   -0.3730   45.7642 LP  0  0  0  0  0  0  0  0  0  0  0  0  # atno 27198 bound_to 6576
  241.7165   -0.0238   46.2499 LP  0  0  0  0  0  0  0  0  0  0  0  0  # atno 27199 bound_to 6576
  239.5734   -1.9407   48.7980 LP  0  0  0  0  0  0  0  0  0  0  0  0  # atno 27200 bound_to 6661
  241.3686   -3.8970   40.1183 LP  0  0  0  0  0  0  0  0  0  0  0  0  # atno 27201 bound_to 7890
  243.0119   -3.9446   39.5731 LP  0  0  0  0  0  0  0  0  0  0  0  0  # atno 27202 bound_to 7890
  244.5383   -2.7102   40.0372 LP  0  0  0  0  0  0  0  0  0  0  0  0  # atno 27203 bound_to 8025
  245.9682   -2.3426   43.3949 LP  0  0  0  0  0  0  0  0  0  0  0  0  # atno 27204 bound_to 8028
  245.0667   -2.9910   42.0656 LP  0  0  0  0  0  0  0  0  0  0  0  0  # atno 27205 bound_to 8028
  247.7024   -0.5360   41.6699 LP  0  0  0  0  0  0  0  0  0  0  0  0  # atno 27206 bound_to 8104
  248.3864    0.7054   44.2862 LP  0  0  0  0  0  0  0  0  0  0  0  0  # atno 27207 bound_to 8107
  249.7239    0.1476   43.3376 LP  0  0  0  0  0  0  0  0  0  0  0  0  # atno 27208 bound_to 8107
  248.6958   -1.4398   44.4107 LP  0  0  0  0  0  0  0  0  0  0  0  0  # atno 27209 bound_to 8166
  249.6803   -2.7412   48.0833 LP  0  0  0  0  0  0  0  0  0  0  0  0  # atno 27210 bound_to 8169
  247.9497   -2.6716   48.0756 LP  0  0  0  0  0  0  0  0  0  0  0  0  # atno 27211 bound_to 8169
  249.5806   -1.0379   46.9760 LP  0  0  0  0  0  0  0  0  0  0  0  0  # atno 27212 bound_to 8242
  248.9047   -0.6327   39.5631 LP  0  0  0  0  0  0  0  0  0  0  0  0  # atno 27213 bound_to 10098
  250.4754   -0.5135   40.2834 LP  0  0  0  0  0  0  0  0  0  0  0  0  # atno 27214 bound_to 10098
  249.1055    1.6093   45.9441 LP  0  0  0  0  0  0  0  0  0  0  0  0  # atno 27215 bound_to 10188
  250.5473    1.7840   46.8878 LP  0  0  0  0  0  0  0  0  0  0  0  0  # atno 27216 bound_to 10188
  249.1034    1.6324   49.3720 LP  0  0  0  0  0  0  0  0  0  0  0  0  # atno 27217 bound_to 8245
  250.3191    1.9389   50.5671 LP  0  0  0  0  0  0  0  0  0  0  0  0  # atno 27218 bound_to 8245
  250.6097   -0.0924   50.4201 LP  0  0  0  0  0  0  0  0  0  0  0  0  # atno 27219 bound_to 8313
  251.5882   -5.0099   40.5341 LP  0  0  0  0  0  0  0  0  0  0  0  0  # atno 27220 bound_to 9544
  252.2156   -4.7789   39.0442 LP  0  0  0  0  0  0  0  0  0  0  0  0  # atno 27221 bound_to 9544
  250.3424    2.7160   43.2966 LP  0  0  0  0  0  0  0  0  0  0  0  0  # atno 27222 bound_to 10185
  242.4874   -1.4237   37.4105 LP  0  0  0  0  0  0  0  0  0  0  0  0  # atno 27223 bound_to 7940
  246.4676   -0.7145   37.7891 LP  0  0  0  0  0  0  0  0  0  0  0  0  # atno 27224 bound_to 7943
  244.9695   -0.4228   36.9703 LP  0  0  0  0  0  0  0  0  0  0  0  0  # atno 27225 bound_to 7943
  240.4132    0.6012   39.9978 LP  0  0  0  0  0  0  0  0  0  0  0  0  # atno 27226 bound_to 7818
  242.0704    0.5634   39.4955 LP  0  0  0  0  0  0  0  0  0  0  0  0  # atno 27227 bound_to 7818
  239.8823   -0.0952   37.9110 LP  0  0  0  0  0  0  0  0  0  0  0  0  # atno 27228 bound_to 7887
  238.6895   -4.0494   36.7103 LP  0  0  0  0  0  0  0  0  0  0  0  0  # atno 27229 bound_to 7892
  240.2029   -4.4396   37.1834 LP  0  0  0  0  0  0  0  0  0  0  0  0  # atno 27230 bound_to 7892

> <Gold.Score>
     Fitness  S(hb_ext) S(vdw_ext)  S(hb_int)    S(int)      intcor
     32.63      12.65      14.67       0.00      -0.19      -0.76

> <Gold.Goldscore.Fitness>
32.6302

> <Gold.Goldscore.Internal.Vdw>
-0.3781

> <Gold.Goldscore.Internal.Torsion>
-0.5720

> <Gold.Goldscore.External.Vdw>
14.6701

> <Gold.Goldscore.Internal.HBond>
0.0000

> <Gold.Goldscore.External.HBond>
12.6511

> <Gold.Goldscore.Internal.Correction>
-0.7579

> <Gold.Goldscore.Hbonds>
donor molecule, donor type, donor heavy atom, donor atom, acceptor molecule, acceptor atom, score
      P1  H  6812  6863       L1    11  0.97
      P1  H  8111  8143       L1     9  0.11
      P1  H  8166  8200       L1    17  0.31
      L1  H     8    22       P1  8112  1.00

> <Gold.Goldscore.Internal.Vdw.Weighted>
-0.3781

> <Gold.Goldscore.Internal.Torsion.Weighted>
-0.5720

> <Gold.Goldscore.External.Vdw.Weighted>
20.1714

> <Gold.Goldscore.Internal.HBond.Weighted>
0.0000

> <Gold.Goldscore.External.HBond.Weighted>
12.6511

> <Gold.Goldscore.Internal.Correction.Weighted>
-0.7579

> <Gold.Rescore>
     Score     S(PLP)   S(hbond)     S(cho)   S(metal)  DE(clash)   DE(tors)     intcor
     31.41     -20.93       3.82       0.00       0.00       0.00       0.48       ----

> <Gold.PLP.Fitness>
31.4109

> <Gold.PLP.PLP>
-20.9263

> <Gold.PLP.part.hbond>
-4.0000

> <Gold.PLP.part.metal>
0.0000

> <Gold.PLP.part.buried>
-2.5222

> <Gold.PLP.part.nonpolar>
-15.3866

> <Gold.PLP.part.repulsive>
0.4658

> <Gold.PLP.ligand.clash>
0.0000

> <Gold.PLP.ligand.torsion>
0.4847

> <Gold.PLP.Chemscore.Hbond>
3.8180

> <Gold.PLP.Chemscore.CHOScore>
0.0000

> <Gold.PLP.Chemscore.Metal>
0.0000

> <Gold.Chemscore.Hbonds>
donor molecule, donor type, donor heavy atom, donor atom, acceptor molecule, acceptor atom, score
      L1  H     8    22       P1  8112  0.50
      P1  H  6812  6863       L1    11  0.78
      P1  H  8111  8143       L1     9  0.93
      P1  H  8166  8200       L1    17  0.99

> <Gold.PLP.Chemscore.Internal.Correction>
   9.000000E+99

