#       Name:                CT1002167954
#       Creating user name   hitesit
#       Creation time:       Sun Apr 16 23:07:43 2023


#       File generated by GOLD software.
#

@<TRIPOS>MOLECULE
CT1002167954|ligand_prepared|mol2|1|dock7
    29    30     1
SMALL
NO_CHARGES


@<TRIPOS>ATOM
      1 C1         245.9949  -7.1140  43.3822 C.3            1 RES1               0.0000
      2 C2         245.5772  -8.3478  44.2082 C.ar           1 RES1               0.0000
      3 C3         244.8750  -6.0905  43.5447 C.2            1 RES1               0.0000
      4 C4         247.3384  -6.6604  43.9426 C.2            1 RES1               0.0000
      5 C5         246.1797  -7.4048  41.8746 C.3            1 RES1               0.0000
      6 C6         245.7365  -8.3620  45.5906 C.ar           1 RES1               0.0000
      7 C7         245.0297  -9.4760  43.6032 C.ar           1 RES1               0.0000
      8 N8         245.1164  -5.0110  44.3425 N.am           1 RES1               0.0000
      9 O9         243.7830  -6.2482  43.0128 O.2            1 RES1               0.0000
     10 N10        247.3958  -5.4408  44.5647 N.am           1 RES1               0.0000
     11 O11        248.3440  -7.3554  43.8656 O.2            1 RES1               0.0000
     12 C12        246.7894  -6.2488  41.0975 C.3            1 RES1               0.0000
     13 C13        245.3593  -9.4631  46.3415 C.ar           1 RES1               0.0000
     14 C14        244.6535 -10.5761  44.3560 C.ar           1 RES1               0.0000
     15 C15        246.3391  -4.6091  44.8172 C.2            1 RES1               0.0000
     16 C16        244.8173 -10.5705  45.7249 C.ar           1 RES1               0.0000
     17 O17        246.4611  -3.5529  45.4309 O.2            1 RES1               0.0000
     18 H18        246.8239  -8.2853  41.7612 H              1 RES1               0.0000
     19 H19        245.2022  -7.6462  41.4392 H              1 RES1               0.0000
     20 H20        246.1636  -7.5006  46.0931 H              1 RES1               0.0000
     21 H21        244.8926  -9.5031  42.5275 H              1 RES1               0.0000
     22 H22        244.3137  -4.4508  44.6110 H              1 RES1               0.0000
     23 H23        248.3112  -5.1235  44.8676 H              1 RES1               0.0000
     24 H24        246.8972  -6.5053  40.0457 H              1 RES1               0.0000
     25 H25        246.1615  -5.3630  41.1676 H              1 RES1               0.0000
     26 H26        247.7737  -5.9983  41.4878 H              1 RES1               0.0000
     27 H27        245.4916  -9.4542  47.4184 H              1 RES1               0.0000
     28 H28        244.2278 -11.4458  43.8664 H              1 RES1               0.0000
     29 H29        244.5216 -11.4328  46.3133 H              1 RES1               0.0000
@<TRIPOS>BOND
    1    1    2 1     
    2    1    3 1     
    3    1    4 1     
    4    1    5 1     
    5    2    6 ar    
    6    2    7 ar    
    7    3    8 1     
    8    3    9 2     
    9    4   10 1     
   10    4   11 2     
   11    5   12 1     
   12    5   18 1     
   13    5   19 1     
   14    6   13 ar    
   15    6   20 1     
   16    7   14 ar    
   17    7   21 1     
   18    8   15 1     
   19    8   22 1     
   20   10   15 1     
   21   10   23 1     
   22   12   24 1     
   23   12   25 1     
   24   12   26 1     
   25   13   16 ar    
   26   13   27 1     
   27   14   16 ar    
   28   14   28 1     
   29   15   17 2     
   30   16   29 1     
@<TRIPOS>SUBSTRUCTURE
      1 RES1           1
@<TRIPOS>SET
DONOR_HYDROGENS      STATIC     ATOMS    <user>   **** ""
2 22 23
ATOM$RED        STATIC     ATOMS    COLORGROUP SYSTEM
2 22 23
@<TRIPOS>COMMENT
> <Gold.Version>
2022.3.0

> <Gold.Id.Protein>
unknown|4d1n_clean|pdb

> <Gold.Protein.RotatedTorsions>
[ 6614 6573 6574 6575 ] final   48.76 input  116.02 | X-H torsion
[ 6700 6661 6662 6663 ] final -157.40 input  125.25 | X-H torsion
[ 8066 8025 8026 8027 ] final  104.67 input   31.90 | X-H torsion
[ 8137 8104 8105 8106 ] final   91.50 input   91.64 | X-H torsion
[ 8200 8166 8167 8168 ] final   94.83 input   70.29 | X-H torsion
[ 8280 8242 8243 8244 ] final    0.88 input   89.64 | X-H torsion
[ 8333 8313 8314 8315 ] final  -14.69 input   85.58 | X-H torsion
[ 9580 9544 9543 9541 ] final -149.83 input   60.01 | X-H torsion
[ 10226 10185 10186 10187 ] final  -51.46 input   40.00 | X-H torsion
[ 7988 7940 7941 7942 ] final   96.29 input   82.26 | X-H torsion
[ 7908 7887 7888 7889 ] final  -52.39 input   90.27 | X-H torsion
[ 7912 7892 7891 7888 ] final   92.32 input   59.97 | X-H torsion
[ 6852 6804 6805 6806 ] final -119.38 input  117.17 | X-H torsion
[ 27193 6336 6335 6334 ] final  -16.24 input   -0.00 | X-H torsion
[ 27195 6500 6499 6498 ] final -169.39 input    0.00 | X-H torsion
[ 27198 6576 6575 6574 ] final  143.01 input   -0.00 | X-H torsion
[ 27201 7890 7889 7888 ] final   -9.92 input    0.00 | X-H torsion
[ 27204 8028 8027 8026 ] final  -11.48 input   -0.00 | X-H torsion
[ 27207 8107 8106 8105 ] final -130.63 input    0.00 | X-H torsion
[ 27210 8169 8168 8167 ] final   20.65 input    0.00 | X-H torsion
[ 27213 10098 10097 10096 ] final   81.44 input    0.00 | X-H torsion
[ 27215 10188 10187 10186 ] final  101.06 input   -0.00 | X-H torsion
[ 27217 8245 8244 8243 ] final  140.06 input   -0.00 | X-H torsion
[ 27224 7943 7942 7941 ] final -125.55 input    0.00 | X-H torsion
[ 27226 7818 7817 7816 ] final   76.97 input    0.00 | X-H torsion

> <Gold.Protein.ActiveResidues>
 ASP403  THR404  LEU406  ILE407  TYR408  ALA410  LYS411  TRP414  TRP426  SER427 
 LYS428  LEU429  GLN430  VAL431  PHE432  ASP433  TYR453  SER462  ALA463  ILE464 
 ILE466 

> <Gold.Protein.RotatedAtoms>
  240.8414   -1.6432   50.0425 H   0  0  0  0  0  0  0  0  0  0  0  0  # atno 6614 bound_to 6573
  239.8803   -2.5725   47.6409 H   0  0  0  0  0  0  0  0  0  0  0  0  # atno 6700 bound_to 6661
  241.6054    2.3406   44.6666 H   0  0  0  0  0  0  0  0  0  0  0  0  # atno 6852 bound_to 6804
  241.1073   -0.1899   37.7280 H   0  0  0  0  0  0  0  0  0  0  0  0  # atno 7908 bound_to 7887
  240.0756   -4.5227   37.2031 H   0  0  0  0  0  0  0  0  0  0  0  0  # atno 7912 bound_to 7892
  242.3169   -1.8702   36.8748 H   0  0  0  0  0  0  0  0  0  0  0  0  # atno 7988 bound_to 7940
  244.0802   -2.0625   39.6632 H   0  0  0  0  0  0  0  0  0  0  0  0  # atno 8066 bound_to 8025
  248.2477   -0.9613   41.0412 H   0  0  0  0  0  0  0  0  0  0  0  0  # atno 8137 bound_to 8104
  247.4785   -2.5288   45.0326 H   0  0  0  0  0  0  0  0  0  0  0  0  # atno 8200 bound_to 8166
  248.9677    0.2286   47.7472 H   0  0  0  0  0  0  0  0  0  0  0  0  # atno 8280 bound_to 8242
  251.0034   -0.4897   50.7577 H   0  0  0  0  0  0  0  0  0  0  0  0  # atno 8333 bound_to 8313
  251.5494   -3.7076   39.2455 H   0  0  0  0  0  0  0  0  0  0  0  0  # atno 9580 bound_to 9544
  250.4109    2.3956   43.6799 H   0  0  0  0  0  0  0  0  0  0  0  0  # atno 10226 bound_to 10185
  242.8585   -2.7515   51.7391 LP  0  0  0  0  0  0  0  0  0  0  0  0  # atno 27193 bound_to 6336
  241.8699   -3.7845   50.7616 LP  0  0  0  0  0  0  0  0  0  0  0  0  # atno 27194 bound_to 6336
  241.7273    0.6894   48.2814 LP  0  0  0  0  0  0  0  0  0  0  0  0  # atno 27195 bound_to 6500
  241.7554    1.7568   49.6452 LP  0  0  0  0  0  0  0  0  0  0  0  0  # atno 27196 bound_to 6500
  242.4283   -0.9153   50.1314 LP  0  0  0  0  0  0  0  0  0  0  0  0  # atno 27197 bound_to 6573
  240.2664   -0.6206   45.6001 LP  0  0  0  0  0  0  0  0  0  0  0  0  # atno 27198 bound_to 6576
  241.5410    0.2237   46.4141 LP  0  0  0  0  0  0  0  0  0  0  0  0  # atno 27199 bound_to 6576
  240.0510   -1.0259   48.4431 LP  0  0  0  0  0  0  0  0  0  0  0  0  # atno 27200 bound_to 6661
  241.4690   -3.7035   40.2731 LP  0  0  0  0  0  0  0  0  0  0  0  0  # atno 27201 bound_to 7890
  242.9114   -4.1381   39.4183 LP  0  0  0  0  0  0  0  0  0  0  0  0  # atno 27202 bound_to 7890
  245.6143   -2.5966   39.0116 LP  0  0  0  0  0  0  0  0  0  0  0  0  # atno 27203 bound_to 8025
  244.7848   -2.3573   42.3877 LP  0  0  0  0  0  0  0  0  0  0  0  0  # atno 27204 bound_to 8028
  246.2502   -2.9763   43.0728 LP  0  0  0  0  0  0  0  0  0  0  0  0  # atno 27205 bound_to 8028
  246.7693   -1.6597   41.6560 LP  0  0  0  0  0  0  0  0  0  0  0  0  # atno 27206 bound_to 8104
  249.5482    0.3287   44.5171 LP  0  0  0  0  0  0  0  0  0  0  0  0  # atno 27207 bound_to 8107
  248.5620    0.5244   43.1067 LP  0  0  0  0  0  0  0  0  0  0  0  0  # atno 27208 bound_to 8107
  248.6909   -1.4364   44.4073 LP  0  0  0  0  0  0  0  0  0  0  0  0  # atno 27209 bound_to 8166
  248.3400   -3.0125   47.4232 LP  0  0  0  0  0  0  0  0  0  0  0  0  # atno 27210 bound_to 8169
  249.2901   -2.4003   48.7357 LP  0  0  0  0  0  0  0  0  0  0  0  0  # atno 27211 bound_to 8169
  250.0370   -0.6338   46.6700 LP  0  0  0  0  0  0  0  0  0  0  0  0  # atno 27212 bound_to 8242
  250.5156   -0.6898   39.6892 LP  0  0  0  0  0  0  0  0  0  0  0  0  # atno 27213 bound_to 10098
  248.8644   -0.4564   40.1573 LP  0  0  0  0  0  0  0  0  0  0  0  0  # atno 27214 bound_to 10098
  250.6499    1.6155   46.1602 LP  0  0  0  0  0  0  0  0  0  0  0  0  # atno 27215 bound_to 10188
  249.0030    1.7778   46.6717 LP  0  0  0  0  0  0  0  0  0  0  0  0  # atno 27216 bound_to 10188
  249.0089    1.5786   50.4319 LP  0  0  0  0  0  0  0  0  0  0  0  0  # atno 27217 bound_to 8245
  250.4136    1.9927   49.5071 LP  0  0  0  0  0  0  0  0  0  0  0  0  # atno 27218 bound_to 8245
  249.4925   -1.2303   50.2821 LP  0  0  0  0  0  0  0  0  0  0  0  0  # atno 27219 bound_to 8313
  251.2977   -4.5426   40.6197 LP  0  0  0  0  0  0  0  0  0  0  0  0  # atno 27220 bound_to 9544
  252.2281   -5.1747   39.4359 LP  0  0  0  0  0  0  0  0  0  0  0  0  # atno 27221 bound_to 9544
  248.7146    2.4215   43.2618 LP  0  0  0  0  0  0  0  0  0  0  0  0  # atno 27222 bound_to 10185
  242.1251   -2.4981   38.4973 LP  0  0  0  0  0  0  0  0  0  0  0  0  # atno 27223 bound_to 7940
  246.4961   -0.8151   37.6706 LP  0  0  0  0  0  0  0  0  0  0  0  0  # atno 27224 bound_to 7943
  244.9410   -0.3221   37.0888 LP  0  0  0  0  0  0  0  0  0  0  0  0  # atno 27225 bound_to 7943
  240.4470    0.8655   39.9418 LP  0  0  0  0  0  0  0  0  0  0  0  0  # atno 27226 bound_to 7818
  242.0366    0.2991   39.5514 LP  0  0  0  0  0  0  0  0  0  0  0  0  # atno 27227 bound_to 7818
  239.6784   -0.8601   36.9861 LP  0  0  0  0  0  0  0  0  0  0  0  0  # atno 27228 bound_to 7887
  240.0619   -3.0657   36.4781 LP  0  0  0  0  0  0  0  0  0  0  0  0  # atno 27229 bound_to 7892
  238.6755   -3.9131   36.6404 LP  0  0  0  0  0  0  0  0  0  0  0  0  # atno 27230 bound_to 7892

> <Gold.Score>
     Fitness  S(hb_ext) S(vdw_ext)  S(hb_int)    S(int)      intcor
     28.43      13.41      10.99       0.00      -0.10      -0.76

> <Gold.Goldscore.Fitness>
28.4253

> <Gold.Goldscore.Internal.Vdw>
-0.3710

> <Gold.Goldscore.Internal.Torsion>
-0.4839

> <Gold.Goldscore.External.Vdw>
10.9886

> <Gold.Goldscore.Internal.HBond>
0.0000

> <Gold.Goldscore.External.HBond>
13.4130

> <Gold.Goldscore.Internal.Correction>
-0.7579

> <Gold.Goldscore.Hbonds>
donor molecule, donor type, donor heavy atom, donor atom, acceptor molecule, acceptor atom, score
      P1  H  6812  6863       L1     9  1.00
      P1  H  8111  8143       L1    11  0.14
      P1  H  8166  8200       L1    17  0.56
      L1  H    10    23       P1  8112  1.00

> <Gold.Goldscore.Internal.Vdw.Weighted>
-0.3710

> <Gold.Goldscore.Internal.Torsion.Weighted>
-0.4839

> <Gold.Goldscore.External.Vdw.Weighted>
15.1093

> <Gold.Goldscore.Internal.HBond.Weighted>
0.0000

> <Gold.Goldscore.External.HBond.Weighted>
13.4130

> <Gold.Goldscore.Internal.Correction.Weighted>
-0.7579

> <Gold.Rescore>
     Score     S(PLP)   S(hbond)     S(cho)   S(metal)  DE(clash)   DE(tors)     intcor
     25.17     -13.46       3.91       0.00       0.00       0.00       0.01       ----

> <Gold.PLP.Fitness>
25.1661

> <Gold.PLP.PLP>
-13.4601

> <Gold.PLP.part.hbond>
-4.0000

> <Gold.PLP.part.metal>
0.0000

> <Gold.PLP.part.buried>
-1.4945

> <Gold.PLP.part.nonpolar>
-8.7062

> <Gold.PLP.part.repulsive>
0.4611

> <Gold.PLP.ligand.clash>
0.0000

> <Gold.PLP.ligand.torsion>
0.0150

> <Gold.PLP.Chemscore.Hbond>
3.9120

> <Gold.PLP.Chemscore.CHOScore>
0.0000

> <Gold.PLP.Chemscore.Metal>
0.0000

> <Gold.Chemscore.Hbonds>
donor molecule, donor type, donor heavy atom, donor atom, acceptor molecule, acceptor atom, score
      L1  H    10    23       P1  8112  0.45
      P1  H  6812  6863       L1     9  1.00
      P1  H  8111  8143       L1    11  0.91
      P1  H  8166  8200       L1    17  0.75

> <Gold.PLP.Chemscore.Internal.Correction>
   9.000000E+99

