#       Name:                CT1002167954
#       Creating user name   hitesit
#       Creation time:       Sun Apr 16 23:07:44 2023


#       File generated by GOLD software.
#

@<TRIPOS>MOLECULE
CT1002167954|ligand_prepared|mol2|1|dock9
    29    30     1
SMALL
NO_CHARGES


@<TRIPOS>ATOM
      1 C1         246.3856  -7.5743  45.1991 C.3            1 RES1               0.0000
      2 C2         247.1476  -8.0365  46.4578 C.ar           1 RES1               0.0000
      3 C3         245.2271  -6.7123  45.6920 C.2            1 RES1               0.0000
      4 C4         247.3972  -6.8244  44.3394 C.2            1 RES1               0.0000
      5 C5         245.8096  -8.7356  44.3557 C.3            1 RES1               0.0000
      6 C6         247.3770  -7.1558  47.5106 C.ar           1 RES1               0.0000
      7 C7         247.6239  -9.3390  46.5817 C.ar           1 RES1               0.0000
      8 N8         245.3230  -5.3635  45.5145 N.am           1 RES1               0.0000
      9 O9         244.2620  -7.2048  46.2632 O.2            1 RES1               0.0000
     10 N10        247.2034  -5.4821  44.1434 N.am           1 RES1               0.0000
     11 O11        248.3694  -7.3805  43.8436 O.2            1 RES1               0.0000
     12 C12        244.8546  -8.2841  43.2620 C.3            1 RES1               0.0000
     13 C13        248.0555  -7.5630  48.6473 C.ar           1 RES1               0.0000
     14 C14        248.3024  -9.7441  47.7193 C.ar           1 RES1               0.0000
     15 C15        246.2291  -4.7116  44.7172 C.2            1 RES1               0.0000
     16 C16        248.5182  -8.8574  48.7527 C.ar           1 RES1               0.0000
     17 O17        246.1523  -3.4998  44.5357 O.2            1 RES1               0.0000
     18 H18        246.6408  -9.2833  43.8947 H              1 RES1               0.0000
     19 H19        245.2809  -9.4278  45.0225 H              1 RES1               0.0000
     20 H20        247.0224  -6.1326  47.4446 H              1 RES1               0.0000
     21 H21        247.4667 -10.0534  45.7808 H              1 RES1               0.0000
     22 H22        244.6597  -4.7862  46.0215 H              1 RES1               0.0000
     23 H23        247.8447  -5.0140  43.5111 H              1 RES1               0.0000
     24 H24        244.4798  -9.1375  42.7007 H              1 RES1               0.0000
     25 H25        244.0026  -7.7575  43.6870 H              1 RES1               0.0000
     26 H26        245.3545  -7.6138  42.5659 H              1 RES1               0.0000
     27 H27        248.2239  -6.8609  49.4572 H              1 RES1               0.0000
     28 H28        248.6654 -10.7636  47.7976 H              1 RES1               0.0000
     29 H29        249.0493  -9.1763  49.6434 H              1 RES1               0.0000
@<TRIPOS>BOND
    1    1    2 1     
    2    1    3 1     
    3    1    4 1     
    4    1    5 1     
    5    2    6 ar    
    6    2    7 ar    
    7    3    8 1     
    8    3    9 2     
    9    4   10 1     
   10    4   11 2     
   11    5   12 1     
   12    5   18 1     
   13    5   19 1     
   14    6   13 ar    
   15    6   20 1     
   16    7   14 ar    
   17    7   21 1     
   18    8   15 1     
   19    8   22 1     
   20   10   15 1     
   21   10   23 1     
   22   12   24 1     
   23   12   25 1     
   24   12   26 1     
   25   13   16 ar    
   26   13   27 1     
   27   14   16 ar    
   28   14   28 1     
   29   15   17 2     
   30   16   29 1     
@<TRIPOS>SUBSTRUCTURE
      1 RES1           1
@<TRIPOS>SET
DONOR_HYDROGENS      STATIC     ATOMS    <user>   **** ""
2 22 23
ATOM$RED        STATIC     ATOMS    COLORGROUP SYSTEM
2 22 23
@<TRIPOS>COMMENT
> <Gold.Version>
2022.3.0

> <Gold.Id.Protein>
unknown|4d1n_clean|pdb

> <Gold.Protein.RotatedTorsions>
[ 6614 6573 6574 6575 ] final  -98.89 input  116.02 | X-H torsion
[ 6700 6661 6662 6663 ] final -124.39 input  125.25 | X-H torsion
[ 8066 8025 8026 8027 ] final -123.69 input   31.90 | X-H torsion
[ 8137 8104 8105 8106 ] final   89.59 input   91.64 | X-H torsion
[ 8200 8166 8167 8168 ] final -106.88 input   70.29 | X-H torsion
[ 8280 8242 8243 8244 ] final   31.88 input   89.64 | X-H torsion
[ 8333 8313 8314 8315 ] final  135.56 input   85.58 | X-H torsion
[ 9580 9544 9543 9541 ] final -161.12 input   60.01 | X-H torsion
[ 10226 10185 10186 10187 ] final   41.36 input   40.00 | X-H torsion
[ 7988 7940 7941 7942 ] final -142.86 input   82.26 | X-H torsion
[ 7908 7887 7888 7889 ] final   22.58 input   90.27 | X-H torsion
[ 7912 7892 7891 7888 ] final  -23.20 input   59.97 | X-H torsion
[ 6852 6804 6805 6806 ] final  121.96 input  117.17 | X-H torsion
[ 27193 6336 6335 6334 ] final  123.53 input   -0.00 | X-H torsion
[ 27195 6500 6499 6498 ] final   71.70 input    0.00 | X-H torsion
[ 27198 6576 6575 6574 ] final   79.48 input   -0.00 | X-H torsion
[ 27201 7890 7889 7888 ] final -124.79 input    0.00 | X-H torsion
[ 27204 8028 8027 8026 ] final  110.33 input   -0.00 | X-H torsion
[ 27207 8107 8106 8105 ] final -118.38 input    0.00 | X-H torsion
[ 27210 8169 8168 8167 ] final  149.45 input    0.00 | X-H torsion
[ 27213 10098 10097 10096 ] final  144.21 input    0.00 | X-H torsion
[ 27215 10188 10187 10186 ] final  -14.89 input   -0.00 | X-H torsion
[ 27217 8245 8244 8243 ] final -152.89 input   -0.00 | X-H torsion
[ 27224 7943 7942 7941 ] final   50.70 input    0.00 | X-H torsion
[ 27226 7818 7817 7816 ] final    0.73 input    0.00 | X-H torsion

> <Gold.Protein.ActiveResidues>
 ASP403  THR404  LEU406  ILE407  TYR408  ALA410  LYS411  TRP414  TRP426  SER427 
 LYS428  LEU429  GLN430  VAL431  PHE432  ASP433  TYR453  SER462  ALA463  ILE464 
 ILE466 

> <Gold.Protein.RotatedAtoms>
  242.1399   -0.5465   49.9952 H   0  0  0  0  0  0  0  0  0  0  0  0  # atno 6614 bound_to 6573
  240.1328   -2.2722   47.3218 H   0  0  0  0  0  0  0  0  0  0  0  0  # atno 6700 bound_to 6661
  240.7435    1.1841   45.1601 H   0  0  0  0  0  0  0  0  0  0  0  0  # atno 6852 bound_to 6804
  241.0598   -0.8667   36.9045 H   0  0  0  0  0  0  0  0  0  0  0  0  # atno 7908 bound_to 7887
  240.1201   -3.1001   36.5080 H   0  0  0  0  0  0  0  0  0  0  0  0  # atno 7912 bound_to 7892
  241.9222   -3.0162   37.8357 H   0  0  0  0  0  0  0  0  0  0  0  0  # atno 7988 bound_to 7940
  245.3296   -2.0603   38.6291 H   0  0  0  0  0  0  0  0  0  0  0  0  # atno 8066 bound_to 8025
  248.2431   -0.9377   41.0583 H   0  0  0  0  0  0  0  0  0  0  0  0  # atno 8137 bound_to 8104
  248.4290   -1.2964   44.2640 H   0  0  0  0  0  0  0  0  0  0  0  0  # atno 8200 bound_to 8166
  249.2558    0.5546   47.5684 H   0  0  0  0  0  0  0  0  0  0  0  0  # atno 8280 bound_to 8242
  249.6942   -1.5641   50.5058 H   0  0  0  0  0  0  0  0  0  0  0  0  # atno 8333 bound_to 8313
  251.4477   -3.6515   39.3885 H   0  0  0  0  0  0  0  0  0  0  0  0  # atno 9580 bound_to 9544
  249.3458    1.8189   44.0925 H   0  0  0  0  0  0  0  0  0  0  0  0  # atno 10226 bound_to 10185
  242.4346   -3.9738   50.7535 LP  0  0  0  0  0  0  0  0  0  0  0  0  # atno 27193 bound_to 6336
  242.2938   -2.5621   51.7472 LP  0  0  0  0  0  0  0  0  0  0  0  0  # atno 27194 bound_to 6336
  242.5038    1.4266   49.3200 LP  0  0  0  0  0  0  0  0  0  0  0  0  # atno 27195 bound_to 6500
  240.9789    1.0196   48.6065 LP  0  0  0  0  0  0  0  0  0  0  0  0  # atno 27196 bound_to 6500
  241.1626   -1.9843   50.1774 LP  0  0  0  0  0  0  0  0  0  0  0  0  # atno 27197 bound_to 6573
  241.1379   -0.8775   45.5233 LP  0  0  0  0  0  0  0  0  0  0  0  0  # atno 27198 bound_to 6576
  240.6695    0.4807   46.4908 LP  0  0  0  0  0  0  0  0  0  0  0  0  # atno 27199 bound_to 6576
  239.8069   -1.3160   48.7515 LP  0  0  0  0  0  0  0  0  0  0  0  0  # atno 27200 bound_to 6661
  242.8946   -3.4675   40.0657 LP  0  0  0  0  0  0  0  0  0  0  0  0  # atno 27201 bound_to 7890
  241.4858   -4.3741   39.6257 LP  0  0  0  0  0  0  0  0  0  0  0  0  # atno 27202 bound_to 7890
  244.4038   -2.5987   40.0134 LP  0  0  0  0  0  0  0  0  0  0  0  0  # atno 27203 bound_to 8025
  245.8997   -3.3802   42.4222 LP  0  0  0  0  0  0  0  0  0  0  0  0  # atno 27204 bound_to 8028
  245.1352   -1.9534   43.0384 LP  0  0  0  0  0  0  0  0  0  0  0  0  # atno 27205 bound_to 8028
  246.7738   -1.6828   41.6393 LP  0  0  0  0  0  0  0  0  0  0  0  0  # atno 27206 bound_to 8104
  249.6759    0.2723   44.3958 LP  0  0  0  0  0  0  0  0  0  0  0  0  # atno 27207 bound_to 8107
  248.4344    0.5808   43.2281 LP  0  0  0  0  0  0  0  0  0  0  0  0  # atno 27208 bound_to 8107
  247.7617   -2.6412   45.1588 LP  0  0  0  0  0  0  0  0  0  0  0  0  # atno 27209 bound_to 8166
  249.6764   -2.6986   48.1685 LP  0  0  0  0  0  0  0  0  0  0  0  0  # atno 27210 bound_to 8169
  247.9536   -2.7141   47.9904 LP  0  0  0  0  0  0  0  0  0  0  0  0  # atno 27211 bound_to 8169
  249.7538   -0.9544   46.8458 LP  0  0  0  0  0  0  0  0  0  0  0  0  # atno 27212 bound_to 8242
  250.2963   -0.4322   40.5254 LP  0  0  0  0  0  0  0  0  0  0  0  0  # atno 27213 bound_to 10098
  249.0838   -0.7140   39.3211 LP  0  0  0  0  0  0  0  0  0  0  0  0  # atno 27214 bound_to 10098
  249.2258    1.5741   45.8042 LP  0  0  0  0  0  0  0  0  0  0  0  0  # atno 27215 bound_to 10188
  250.4271    1.8192   47.0277 LP  0  0  0  0  0  0  0  0  0  0  0  0  # atno 27216 bound_to 10188
  249.8522    1.8026   50.8238 LP  0  0  0  0  0  0  0  0  0  0  0  0  # atno 27217 bound_to 8245
  249.5703    1.7687   49.1152 LP  0  0  0  0  0  0  0  0  0  0  0  0  # atno 27218 bound_to 8245
  250.7675   -0.1839   50.5273 LP  0  0  0  0  0  0  0  0  0  0  0  0  # atno 27219 bound_to 8313
  251.3823   -4.7076   40.6252 LP  0  0  0  0  0  0  0  0  0  0  0  0  # atno 27220 bound_to 9544
  252.2458   -5.0663   39.2864 LP  0  0  0  0  0  0  0  0  0  0  0  0  # atno 27221 bound_to 9544
  249.7564    2.9856   42.8583 LP  0  0  0  0  0  0  0  0  0  0  0  0  # atno 27222 bound_to 10185
  242.5071   -1.3886   37.5670 LP  0  0  0  0  0  0  0  0  0  0  0  0  # atno 27223 bound_to 7940
  244.9482   -0.3574   37.0451 LP  0  0  0  0  0  0  0  0  0  0  0  0  # atno 27224 bound_to 7943
  246.4889   -0.7799   37.7144 LP  0  0  0  0  0  0  0  0  0  0  0  0  # atno 27225 bound_to 7943
  241.2814    1.4327   39.5879 LP  0  0  0  0  0  0  0  0  0  0  0  0  # atno 27226 bound_to 7818
  241.2022   -0.2681   39.9054 LP  0  0  0  0  0  0  0  0  0  0  0  0  # atno 27227 bound_to 7818
  239.7253   -0.1906   37.8007 LP  0  0  0  0  0  0  0  0  0  0  0  0  # atno 27228 bound_to 7887
  238.6776   -3.8469   36.6081 LP  0  0  0  0  0  0  0  0  0  0  0  0  # atno 27229 bound_to 7892
  240.0151   -4.5644   37.2104 LP  0  0  0  0  0  0  0  0  0  0  0  0  # atno 27230 bound_to 7892

> <Gold.Score>
     Fitness  S(hb_ext) S(vdw_ext)  S(hb_int)    S(int)      intcor
     13.61       0.64       9.55       0.00      -0.17      -0.76

> <Gold.Goldscore.Fitness>
13.6088

> <Gold.Goldscore.Internal.Vdw>
-0.3896

> <Gold.Goldscore.Internal.Torsion>
-0.5401

> <Gold.Goldscore.External.Vdw>
9.5535

> <Gold.Goldscore.Internal.HBond>
0.0000

> <Gold.Goldscore.External.HBond>
0.6445

> <Gold.Goldscore.Internal.Correction>
-0.7579

> <Gold.Goldscore.Hbonds>
donor molecule, donor type, donor heavy atom, donor atom, acceptor molecule, acceptor atom, score
      P1  H  8111  8143       L1    11  0.32

> <Gold.Goldscore.Internal.Vdw.Weighted>
-0.3896

> <Gold.Goldscore.Internal.Torsion.Weighted>
-0.5401

> <Gold.Goldscore.External.Vdw.Weighted>
13.1361

> <Gold.Goldscore.Internal.HBond.Weighted>
0.0000

> <Gold.Goldscore.External.HBond.Weighted>
0.6445

> <Gold.Goldscore.Internal.Correction.Weighted>
-0.7579

> <Gold.Rescore>
     Score     S(PLP)   S(hbond)     S(cho)   S(metal)  DE(clash)   DE(tors)     intcor
     12.94     -10.09       0.96       0.00       0.00       0.00       0.02       ----

> <Gold.PLP.Fitness>
12.9376

> <Gold.PLP.PLP>
-10.0887

> <Gold.PLP.part.hbond>
-2.2336

> <Gold.PLP.part.metal>
0.0000

> <Gold.PLP.part.buried>
-2.5066

> <Gold.PLP.part.nonpolar>
-6.1272

> <Gold.PLP.part.repulsive>
0.3701

> <Gold.PLP.ligand.clash>
0.0000

> <Gold.PLP.ligand.torsion>
0.0155

> <Gold.PLP.Chemscore.Hbond>
0.9600

> <Gold.PLP.Chemscore.CHOScore>
0.0000

> <Gold.PLP.Chemscore.Metal>
0.0000

> <Gold.Chemscore.Hbonds>
donor molecule, donor type, donor heavy atom, donor atom, acceptor molecule, acceptor atom, score
      P1  H  8111  8143       L1    11  0.93

> <Gold.PLP.Chemscore.Internal.Correction>
   9.000000E+99

