#       Name:                CT1002167954
#       Creating user name   hitesit
#       Creation time:       Sun Apr 16 23:07:42 2023


#       File generated by GOLD software.
#

@<TRIPOS>MOLECULE
CT1002167954|ligand_prepared|mol2|1|dock4
    29    30     1
SMALL
NO_CHARGES


@<TRIPOS>ATOM
      1 C1         246.1992  -6.9206  43.4499 C.3            1 RES1               0.0000
      2 C2         246.4921  -6.4588  44.8921 C.ar           1 RES1               0.0000
      3 C3         245.0661  -6.0358  42.9385 C.2            1 RES1               0.0000
      4 C4         247.5055  -6.7662  42.6790 C.2            1 RES1               0.0000
      5 C5         245.7544  -8.3980  43.3451 C.3            1 RES1               0.0000
      6 C6         247.0409  -5.2034  45.1365 C.ar           1 RES1               0.0000
      7 C7         246.2169  -7.2744  45.9864 C.ar           1 RES1               0.0000
      8 N8         245.3803  -5.0696  42.0288 N.am           1 RES1               0.0000
      9 O9         243.9214  -6.1581  43.3567 O.2            1 RES1               0.0000
     10 N10        247.5499  -5.8402  41.6698 N.am           1 RES1               0.0000
     11 O11        248.5018  -7.4262  42.9473 O.2            1 RES1               0.0000
     12 C12        245.5779  -8.8852  41.9156 C.3            1 RES1               0.0000
     13 C13        247.3023  -4.7777  46.4282 C.ar           1 RES1               0.0000
     14 C14        246.4793  -6.8467  47.2774 C.ar           1 RES1               0.0000
     15 C15        246.5559  -4.9634  41.3300 C.2            1 RES1               0.0000
     16 C16        247.0214  -5.5987  47.4995 C.ar           1 RES1               0.0000
     17 O17        246.6902  -4.1223  40.4459 O.2            1 RES1               0.0000
     18 H18        246.5017  -9.0279  43.8432 H              1 RES1               0.0000
     19 H19        244.8040  -8.5193  43.8794 H              1 RES1               0.0000
     20 H20        247.2709  -4.5445  44.3059 H              1 RES1               0.0000
     21 H21        245.7912  -8.2606  45.8355 H              1 RES1               0.0000
     22 H22        244.6761  -4.3604  41.8517 H              1 RES1               0.0000
     23 H23        248.4028  -5.8011  41.1209 H              1 RES1               0.0000
     24 H24        245.2654  -9.9272  41.8991 H              1 RES1               0.0000
     25 H25        244.8232  -8.2968  41.3979 H              1 RES1               0.0000
     26 H26        246.5109  -8.8024  41.3620 H              1 RES1               0.0000
     27 H27        247.7303  -3.7951  46.5976 H              1 RES1               0.0000
     28 H28        246.2572  -7.4964  48.1175 H              1 RES1               0.0000
     29 H29        247.2260  -5.2647  48.5113 H              1 RES1               0.0000
@<TRIPOS>BOND
    1    1    2 1     
    2    1    3 1     
    3    1    4 1     
    4    1    5 1     
    5    2    6 ar    
    6    2    7 ar    
    7    3    8 1     
    8    3    9 2     
    9    4   10 1     
   10    4   11 2     
   11    5   12 1     
   12    5   18 1     
   13    5   19 1     
   14    6   13 ar    
   15    6   20 1     
   16    7   14 ar    
   17    7   21 1     
   18    8   15 1     
   19    8   22 1     
   20   10   15 1     
   21   10   23 1     
   22   12   24 1     
   23   12   25 1     
   24   12   26 1     
   25   13   16 ar    
   26   13   27 1     
   27   14   16 ar    
   28   14   28 1     
   29   15   17 2     
   30   16   29 1     
@<TRIPOS>SUBSTRUCTURE
      1 RES1           1
@<TRIPOS>SET
DONOR_HYDROGENS      STATIC     ATOMS    <user>   **** ""
2 22 23
ATOM$RED        STATIC     ATOMS    COLORGROUP SYSTEM
2 22 23
@<TRIPOS>COMMENT
> <Gold.Version>
2022.3.0

> <Gold.Id.Protein>
unknown|4d1n_clean|pdb

> <Gold.Protein.RotatedTorsions>
[ 6614 6573 6574 6575 ] final -133.97 input  116.02 | X-H torsion
[ 6700 6661 6662 6663 ] final    0.42 input  125.25 | X-H torsion
[ 8066 8025 8026 8027 ] final  -95.17 input   31.90 | X-H torsion
[ 8137 8104 8105 8106 ] final -145.82 input   91.64 | X-H torsion
[ 8200 8166 8167 8168 ] final    3.64 input   70.29 | X-H torsion
[ 8280 8242 8243 8244 ] final  -90.23 input   89.64 | X-H torsion
[ 8333 8313 8314 8315 ] final   50.35 input   85.58 | X-H torsion
[ 9580 9544 9543 9541 ] final   67.12 input   60.01 | X-H torsion
[ 10226 10185 10186 10187 ] final   18.97 input   40.00 | X-H torsion
[ 7988 7940 7941 7942 ] final   -3.87 input   82.26 | X-H torsion
[ 7908 7887 7888 7889 ] final   60.75 input   90.27 | X-H torsion
[ 7912 7892 7891 7888 ] final  -46.97 input   59.97 | X-H torsion
[ 6852 6804 6805 6806 ] final   34.36 input  117.17 | X-H torsion
[ 27193 6336 6335 6334 ] final  -57.34 input   -0.00 | X-H torsion
[ 27195 6500 6499 6498 ] final -175.58 input    0.00 | X-H torsion
[ 27198 6576 6575 6574 ] final  168.84 input   -0.00 | X-H torsion
[ 27201 7890 7889 7888 ] final -145.49 input    0.00 | X-H torsion
[ 27204 8028 8027 8026 ] final -123.07 input   -0.00 | X-H torsion
[ 27207 8107 8106 8105 ] final -102.59 input    0.00 | X-H torsion
[ 27210 8169 8168 8167 ] final -129.83 input    0.00 | X-H torsion
[ 27213 10098 10097 10096 ] final   71.28 input    0.00 | X-H torsion
[ 27215 10188 10187 10186 ] final  138.93 input   -0.00 | X-H torsion
[ 27217 8245 8244 8243 ] final  -53.80 input   -0.00 | X-H torsion
[ 27224 7943 7942 7941 ] final  -31.85 input    0.00 | X-H torsion
[ 27226 7818 7817 7816 ] final -174.54 input    0.00 | X-H torsion

> <Gold.Protein.ActiveResidues>
 ASP403  THR404  LEU406  ILE407  TYR408  ALA410  LYS411  TRP414  TRP426  SER427 
 LYS428  LEU429  GLN430  VAL431  PHE432  ASP433  TYR453  SER462  ALA463  ILE464 
 ILE466 

> <Gold.Protein.RotatedAtoms>
  242.4655   -0.9456   50.1345 H   0  0  0  0  0  0  0  0  0  0  0  0  # atno 6614 bound_to 6573
  240.1946   -0.9313   48.1511 H   0  0  0  0  0  0  0  0  0  0  0  0  # atno 6700 bound_to 6661
  239.9731    2.1382   45.1898 H   0  0  0  0  0  0  0  0  0  0  0  0  # atno 6852 bound_to 6804
  240.5680   -1.0624   36.6844 H   0  0  0  0  0  0  0  0  0  0  0  0  # atno 7908 bound_to 7887
  239.7673   -2.9966   36.3915 H   0  0  0  0  0  0  0  0  0  0  0  0  # atno 7912 bound_to 7892
  242.5124   -1.4950   38.1716 H   0  0  0  0  0  0  0  0  0  0  0  0  # atno 7988 bound_to 7940
  245.5757   -2.3757   38.8075 H   0  0  0  0  0  0  0  0  0  0  0  0  # atno 8066 bound_to 8025
  247.2036   -2.1037   41.0935 H   0  0  0  0  0  0  0  0  0  0  0  0  # atno 8137 bound_to 8104
  248.7304   -2.4099   45.1465 H   0  0  0  0  0  0  0  0  0  0  0  0  # atno 8200 bound_to 8166
  249.1057   -0.9679   47.3878 H   0  0  0  0  0  0  0  0  0  0  0  0  # atno 8280 bound_to 8242
  250.7873   -1.3930   50.9684 H   0  0  0  0  0  0  0  0  0  0  0  0  # atno 8333 bound_to 8313
  251.4860   -4.8663   40.5907 H   0  0  0  0  0  0  0  0  0  0  0  0  # atno 9580 bound_to 9544
  249.6847    1.8469   44.1374 H   0  0  0  0  0  0  0  0  0  0  0  0  # atno 10226 bound_to 10185
  242.2810   -2.5617   51.7446 LP  0  0  0  0  0  0  0  0  0  0  0  0  # atno 27193 bound_to 6336
  242.4474   -3.9742   50.7561 LP  0  0  0  0  0  0  0  0  0  0  0  0  # atno 27194 bound_to 6336
  241.8204    0.6858   48.2887 LP  0  0  0  0  0  0  0  0  0  0  0  0  # atno 27195 bound_to 6500
  241.6623    1.7604   49.6379 LP  0  0  0  0  0  0  0  0  0  0  0  0  # atno 27196 bound_to 6500
  240.8452   -1.5953   50.0416 LP  0  0  0  0  0  0  0  0  0  0  0  0  # atno 27197 bound_to 6573
  240.0779   -0.3394   45.7879 LP  0  0  0  0  0  0  0  0  0  0  0  0  # atno 27198 bound_to 6576
  241.7296   -0.0574   46.2262 LP  0  0  0  0  0  0  0  0  0  0  0  0  # atno 27199 bound_to 6576
  239.7472   -2.6118   47.9500 LP  0  0  0  0  0  0  0  0  0  0  0  0  # atno 27200 bound_to 6661
  243.0147   -3.6557   39.8490 LP  0  0  0  0  0  0  0  0  0  0  0  0  # atno 27201 bound_to 7890
  241.3658   -4.1859   39.8424 LP  0  0  0  0  0  0  0  0  0  0  0  0  # atno 27202 bound_to 7890
  244.1654   -2.2931   39.8406 LP  0  0  0  0  0  0  0  0  0  0  0  0  # atno 27203 bound_to 8025
  245.7914   -2.1786   43.3910 LP  0  0  0  0  0  0  0  0  0  0  0  0  # atno 27204 bound_to 8028
  245.2435   -3.1550   42.0695 LP  0  0  0  0  0  0  0  0  0  0  0  0  # atno 27205 bound_to 8028
  247.7921   -0.5406   41.6048 LP  0  0  0  0  0  0  0  0  0  0  0  0  # atno 27206 bound_to 8104
  249.7979    0.2104   44.2012 LP  0  0  0  0  0  0  0  0  0  0  0  0  # atno 27207 bound_to 8107
  248.3124    0.6427   43.4226 LP  0  0  0  0  0  0  0  0  0  0  0  0  # atno 27208 bound_to 8107
  247.4671   -1.5526   44.2960 LP  0  0  0  0  0  0  0  0  0  0  0  0  # atno 27209 bound_to 8166
  248.8719   -2.3236   48.8542 LP  0  0  0  0  0  0  0  0  0  0  0  0  # atno 27210 bound_to 8169
  248.7581   -3.0892   47.3047 LP  0  0  0  0  0  0  0  0  0  0  0  0  # atno 27211 bound_to 8169
  249.9014    0.5425   47.0233 LP  0  0  0  0  0  0  0  0  0  0  0  0  # atno 27212 bound_to 8242
  250.4574   -0.7265   39.5522 LP  0  0  0  0  0  0  0  0  0  0  0  0  # atno 27213 bound_to 10098
  248.9227   -0.4197   40.2943 LP  0  0  0  0  0  0  0  0  0  0  0  0  # atno 27214 bound_to 10098
  250.6405    1.7405   46.7081 LP  0  0  0  0  0  0  0  0  0  0  0  0  # atno 27215 bound_to 10188
  249.0124    1.6528   46.1238 LP  0  0  0  0  0  0  0  0  0  0  0  0  # atno 27216 bound_to 10188
  250.5011    2.0121   49.6959 LP  0  0  0  0  0  0  0  0  0  0  0  0  # atno 27217 bound_to 8245
  248.9214    1.5592   50.2431 LP  0  0  0  0  0  0  0  0  0  0  0  0  # atno 27218 bound_to 8245
  249.7029   -0.3505   50.0769 LP  0  0  0  0  0  0  0  0  0  0  0  0  # atno 27219 bound_to 8313
  252.2415   -4.9289   39.1504 LP  0  0  0  0  0  0  0  0  0  0  0  0  # atno 27220 bound_to 9544
  251.3480   -3.6219   39.5507 LP  0  0  0  0  0  0  0  0  0  0  0  0  # atno 27221 bound_to 9544
  249.4250    2.9582   42.8143 LP  0  0  0  0  0  0  0  0  0  0  0  0  # atno 27222 bound_to 10185
  241.9358   -2.8613   37.2419 LP  0  0  0  0  0  0  0  0  0  0  0  0  # atno 27223 bound_to 7940
  245.7536   -1.0828   36.6837 LP  0  0  0  0  0  0  0  0  0  0  0  0  # atno 27224 bound_to 7943
  245.6835   -0.0545   38.0757 LP  0  0  0  0  0  0  0  0  0  0  0  0  # atno 27225 bound_to 7943
  241.2707   -0.2721   39.8850 LP  0  0  0  0  0  0  0  0  0  0  0  0  # atno 27226 bound_to 7818
  241.2129    1.4367   39.6082 LP  0  0  0  0  0  0  0  0  0  0  0  0  # atno 27227 bound_to 7818
  240.2118    0.0030   38.0183 LP  0  0  0  0  0  0  0  0  0  0  0  0  # atno 27228 bound_to 7887
  238.7310   -4.1877   36.7864 LP  0  0  0  0  0  0  0  0  0  0  0  0  # atno 27229 bound_to 7892
  240.3170   -4.3278   37.1493 LP  0  0  0  0  0  0  0  0  0  0  0  0  # atno 27230 bound_to 7892

> <Gold.Score>
     Fitness  S(hb_ext) S(vdw_ext)  S(hb_int)    S(int)      intcor
     27.85       6.31      15.67       0.00      -0.01      -0.76

> <Gold.Goldscore.Fitness>
27.8497

> <Gold.Goldscore.Internal.Vdw>
-0.3681

> <Gold.Goldscore.Internal.Torsion>
-0.4028

> <Gold.Goldscore.External.Vdw>
15.6727

> <Gold.Goldscore.Internal.HBond>
0.0000

> <Gold.Goldscore.External.HBond>
6.3128

> <Gold.Goldscore.Internal.Correction>
-0.7579

> <Gold.Goldscore.Hbonds>
donor molecule, donor type, donor heavy atom, donor atom, acceptor molecule, acceptor atom, score
      P1  H  6812  6863       L1     9  1.00
      P1  H  8104  8137       L1    17  0.01
      P1  H  8111  8143       L1    11  0.15

> <Gold.Goldscore.Internal.Vdw.Weighted>
-0.3681

> <Gold.Goldscore.Internal.Torsion.Weighted>
-0.4028

> <Gold.Goldscore.External.Vdw.Weighted>
21.5500

> <Gold.Goldscore.Internal.HBond.Weighted>
0.0000

> <Gold.Goldscore.External.HBond.Weighted>
6.3128

> <Gold.Goldscore.Internal.Correction.Weighted>
-0.7579

> <Gold.Rescore>
     Score     S(PLP)   S(hbond)     S(cho)   S(metal)  DE(clash)   DE(tors)     intcor
     28.75     -22.76       2.22       0.00       0.00       0.00       0.33       ----

> <Gold.PLP.Fitness>
28.7494

> <Gold.PLP.PLP>
-22.7551

> <Gold.PLP.part.hbond>
-3.7666

> <Gold.PLP.part.metal>
0.0000

> <Gold.PLP.part.buried>
-1.5224

> <Gold.PLP.part.nonpolar>
-18.2591

> <Gold.PLP.part.repulsive>
0.4178

> <Gold.PLP.ligand.clash>
0.0000

> <Gold.PLP.ligand.torsion>
0.3268

> <Gold.PLP.Chemscore.Hbond>
2.2160

> <Gold.PLP.Chemscore.CHOScore>
0.0000

> <Gold.PLP.Chemscore.Metal>
0.0000

> <Gold.Chemscore.Hbonds>
donor molecule, donor type, donor heavy atom, donor atom, acceptor molecule, acceptor atom, score
      L1  H     8    22       P1  8028  0.02
      P1  H  6812  6863       L1     9  1.00
      P1  H  8104  8137       L1    17  0.74
      P1  H  8111  8143       L1    11  0.80

> <Gold.PLP.Chemscore.Internal.Correction>
   9.000000E+99

