#       Name:                CT1002167954
#       Creating user name   hitesit
#       Creation time:       Sun Apr 16 23:07:41 2023


#       File generated by GOLD software.
#

@<TRIPOS>MOLECULE
CT1002167954|ligand_prepared|mol2|1|dock3
    29    30     1
SMALL
NO_CHARGES


@<TRIPOS>ATOM
      1 C1         248.1388  -5.2460  36.7916 C.3            1 RES1               0.0000
      2 C2         248.9194  -5.4637  35.4794 C.ar           1 RES1               0.0000
      3 C3         249.1819  -4.9632  37.8688 C.2            1 RES1               0.0000
      4 C4         247.1827  -4.0871  36.5320 C.2            1 RES1               0.0000
      5 C5         247.2995  -6.4688  37.2296 C.3            1 RES1               0.0000
      6 C6         249.5241  -6.6877  35.2093 C.ar           1 RES1               0.0000
      7 C7         249.0411  -4.4527  34.5298 C.ar           1 RES1               0.0000
      8 N8         249.2980  -3.6795  38.3144 N.am           1 RES1               0.0000
      9 O9         249.9185  -5.8454  38.2923 O.2            1 RES1               0.0000
     10 N10        247.3793  -2.9239  37.2293 N.am           1 RES1               0.0000
     11 O11        246.2710  -4.1650  35.7177 O.2            1 RES1               0.0000
     12 C12        246.3171  -6.1684  38.3506 C.3            1 RES1               0.0000
     13 C13        250.2226  -6.8946  34.0314 C.ar           1 RES1               0.0000
     14 C14        249.7402  -4.6617  33.3525 C.ar           1 RES1               0.0000
     15 C15        248.4122  -2.6573  38.0861 C.2            1 RES1               0.0000
     16 C16        250.3308  -5.8820  33.1020 C.ar           1 RES1               0.0000
     17 O17        248.5519  -1.5676  38.6341 O.2            1 RES1               0.0000
     18 H18        246.7419  -6.8433  36.3623 H              1 RES1               0.0000
     19 H19        247.9795  -7.2638  37.5598 H              1 RES1               0.0000
     20 H20        249.4518  -7.4955  35.9299 H              1 RES1               0.0000
     21 H21        248.5856  -3.4842  34.7060 H              1 RES1               0.0000
     22 H22        250.1193  -3.4592  38.8686 H              1 RES1               0.0000
     23 H23        246.6919  -2.1888  37.0974 H              1 RES1               0.0000
     24 H24        245.7541  -7.0598  38.6194 H              1 RES1               0.0000
     25 H25        246.8398  -5.8174  39.2379 H              1 RES1               0.0000
     26 H26        245.6095  -5.3993  38.0476 H              1 RES1               0.0000
     27 H27        250.6867  -7.8564  33.8396 H              1 RES1               0.0000
     28 H28        249.8233  -3.8617  32.6242 H              1 RES1               0.0000
     29 H29        250.8777  -6.0445  32.1792 H              1 RES1               0.0000
@<TRIPOS>BOND
    1    1    2 1     
    2    1    3 1     
    3    1    4 1     
    4    1    5 1     
    5    2    6 ar    
    6    2    7 ar    
    7    3    8 1     
    8    3    9 2     
    9    4   10 1     
   10    4   11 2     
   11    5   12 1     
   12    5   18 1     
   13    5   19 1     
   14    6   13 ar    
   15    6   20 1     
   16    7   14 ar    
   17    7   21 1     
   18    8   15 1     
   19    8   22 1     
   20   10   15 1     
   21   10   23 1     
   22   12   24 1     
   23   12   25 1     
   24   12   26 1     
   25   13   16 ar    
   26   13   27 1     
   27   14   16 ar    
   28   14   28 1     
   29   15   17 2     
   30   16   29 1     
@<TRIPOS>SUBSTRUCTURE
      1 RES1           1
@<TRIPOS>SET
DONOR_HYDROGENS      STATIC     ATOMS    <user>   **** ""
2 22 23
ATOM$RED        STATIC     ATOMS    COLORGROUP SYSTEM
2 22 23
@<TRIPOS>COMMENT
> <Gold.Version>
2022.3.0

> <Gold.Id.Protein>
unknown|4d1n_clean|pdb

> <Gold.Protein.RotatedTorsions>
[ 6614 6573 6574 6575 ] final    0.93 input  116.02 | X-H torsion
[ 6700 6661 6662 6663 ] final  150.65 input  125.25 | X-H torsion
[ 8066 8025 8026 8027 ] final  130.20 input   31.90 | X-H torsion
[ 8137 8104 8105 8106 ] final  150.15 input   91.64 | X-H torsion
[ 8200 8166 8167 8168 ] final -157.36 input   70.29 | X-H torsion
[ 8280 8242 8243 8244 ] final -173.20 input   89.64 | X-H torsion
[ 8333 8313 8314 8315 ] final   15.20 input   85.58 | X-H torsion
[ 9580 9544 9543 9541 ] final  -96.78 input   60.01 | X-H torsion
[ 10226 10185 10186 10187 ] final -174.21 input   40.00 | X-H torsion
[ 7988 7940 7941 7942 ] final  116.11 input   82.26 | X-H torsion
[ 7908 7887 7888 7889 ] final -164.74 input   90.27 | X-H torsion
[ 7912 7892 7891 7888 ] final  -25.34 input   59.97 | X-H torsion
[ 6852 6804 6805 6806 ] final   56.07 input  117.17 | X-H torsion
[ 27193 6336 6335 6334 ] final  -22.20 input   -0.00 | X-H torsion
[ 27195 6500 6499 6498 ] final   12.62 input    0.00 | X-H torsion
[ 27198 6576 6575 6574 ] final  129.54 input   -0.00 | X-H torsion
[ 27201 7890 7889 7888 ] final -125.44 input    0.00 | X-H torsion
[ 27204 8028 8027 8026 ] final  164.08 input   -0.00 | X-H torsion
[ 27207 8107 8106 8105 ] final   87.40 input    0.00 | X-H torsion
[ 27210 8169 8168 8167 ] final  -10.34 input    0.00 | X-H torsion
[ 27213 10098 10097 10096 ] final  -39.26 input    0.00 | X-H torsion
[ 27215 10188 10187 10186 ] final -123.70 input   -0.00 | X-H torsion
[ 27217 8245 8244 8243 ] final  166.86 input   -0.00 | X-H torsion
[ 27224 7943 7942 7941 ] final -107.71 input    0.00 | X-H torsion
[ 27226 7818 7817 7816 ] final -104.40 input    0.00 | X-H torsion

> <Gold.Protein.ActiveResidues>
 ASP403  THR404  LEU406  ILE407  TYR408  ALA410  LYS411  TRP414  TRP426  SER427 
 LYS428  LEU429  GLN430  VAL431  PHE432  ASP433  TYR453  SER462  ALA463  ILE464 
 ILE466 

> <Gold.Protein.RotatedAtoms>
  240.8493   -0.9427   49.8866 H   0  0  0  0  0  0  0  0  0  0  0  0  # atno 6614 bound_to 6573
  239.5625   -2.5191   48.3511 H   0  0  0  0  0  0  0  0  0  0  0  0  # atno 6700 bound_to 6661
  240.0170    1.8119   45.2444 H   0  0  0  0  0  0  0  0  0  0  0  0  # atno 6852 bound_to 6804
  239.6514   -0.2347   37.7282 H   0  0  0  0  0  0  0  0  0  0  0  0  # atno 7908 bound_to 7887
  240.0911   -3.0852   36.4953 H   0  0  0  0  0  0  0  0  0  0  0  0  # atno 7912 bound_to 7892
  242.2086   -2.1493   36.8108 H   0  0  0  0  0  0  0  0  0  0  0  0  # atno 7988 bound_to 7940
  244.1254   -1.8326   39.3479 H   0  0  0  0  0  0  0  0  0  0  0  0  # atno 8066 bound_to 8025
  247.9967   -1.7382   40.7576 H   0  0  0  0  0  0  0  0  0  0  0  0  # atno 8137 bound_to 8104
  247.6824   -1.3816   44.2068 H   0  0  0  0  0  0  0  0  0  0  0  0  # atno 8200 bound_to 8166
  249.9980   -0.7158   46.6805 H   0  0  0  0  0  0  0  0  0  0  0  0  # atno 8280 bound_to 8242
  251.0264   -0.9172   50.9172 H   0  0  0  0  0  0  0  0  0  0  0  0  # atno 8333 bound_to 8313
  252.0329   -4.3025   38.9106 H   0  0  0  0  0  0  0  0  0  0  0  0  # atno 9580 bound_to 9544
  249.2282    2.9156   42.8225 H   0  0  0  0  0  0  0  0  0  0  0  0  # atno 10226 bound_to 10185
  242.7839   -2.7042   51.7563 LP  0  0  0  0  0  0  0  0  0  0  0  0  # atno 27193 bound_to 6336
  241.9446   -3.8317   50.7443 LP  0  0  0  0  0  0  0  0  0  0  0  0  # atno 27194 bound_to 6336
  241.7857    1.7543   49.6458 LP  0  0  0  0  0  0  0  0  0  0  0  0  # atno 27195 bound_to 6500
  241.6970    0.6919   48.2807 LP  0  0  0  0  0  0  0  0  0  0  0  0  # atno 27196 bound_to 6500
  242.4206   -1.5981   50.2833 LP  0  0  0  0  0  0  0  0  0  0  0  0  # atno 27197 bound_to 6573
  240.4188   -0.7367   45.5326 LP  0  0  0  0  0  0  0  0  0  0  0  0  # atno 27198 bound_to 6576
  241.3887    0.3398   46.4815 LP  0  0  0  0  0  0  0  0  0  0  0  0  # atno 27199 bound_to 6576
  240.3581   -1.0775   47.7568 LP  0  0  0  0  0  0  0  0  0  0  0  0  # atno 27200 bound_to 6661
  242.8999   -3.4726   40.0592 LP  0  0  0  0  0  0  0  0  0  0  0  0  # atno 27201 bound_to 7890
  241.4806   -4.3689   39.6322 LP  0  0  0  0  0  0  0  0  0  0  0  0  # atno 27202 bound_to 7890
  245.5705   -2.8193   39.3170 LP  0  0  0  0  0  0  0  0  0  0  0  0  # atno 27203 bound_to 8025
  246.2476   -3.0255   43.0273 LP  0  0  0  0  0  0  0  0  0  0  0  0  # atno 27204 bound_to 8028
  244.7873   -2.3082   42.4332 LP  0  0  0  0  0  0  0  0  0  0  0  0  # atno 27205 bound_to 8028
  247.0152   -0.8987   41.9338 LP  0  0  0  0  0  0  0  0  0  0  0  0  # atno 27206 bound_to 8104
  248.2637    0.6737   43.5620 LP  0  0  0  0  0  0  0  0  0  0  0  0  # atno 27207 bound_to 8107
  249.8466    0.1793   44.0618 LP  0  0  0  0  0  0  0  0  0  0  0  0  # atno 27208 bound_to 8107
  248.4916   -2.5579   45.2147 LP  0  0  0  0  0  0  0  0  0  0  0  0  # atno 27209 bound_to 8166
  248.0354   -2.8472   47.7297 LP  0  0  0  0  0  0  0  0  0  0  0  0  # atno 27210 bound_to 8169
  249.5947   -2.5656   48.4292 LP  0  0  0  0  0  0  0  0  0  0  0  0  # atno 27211 bound_to 8169
  249.0241    0.2946   47.7187 LP  0  0  0  0  0  0  0  0  0  0  0  0  # atno 27212 bound_to 8242
  249.0476   -0.7014   39.3569 LP  0  0  0  0  0  0  0  0  0  0  0  0  # atno 27213 bound_to 10098
  250.3325   -0.4448   40.4896 LP  0  0  0  0  0  0  0  0  0  0  0  0  # atno 27214 bound_to 10098
  249.4298    1.8780   47.1642 LP  0  0  0  0  0  0  0  0  0  0  0  0  # atno 27215 bound_to 10188
  250.2230    1.5153   45.6677 LP  0  0  0  0  0  0  0  0  0  0  0  0  # atno 27216 bound_to 10188
  249.2875    1.6486   50.7123 LP  0  0  0  0  0  0  0  0  0  0  0  0  # atno 27217 bound_to 8245
  250.1350    1.9226   49.2268 LP  0  0  0  0  0  0  0  0  0  0  0  0  # atno 27218 bound_to 8245
  249.4701   -0.8139   50.1267 LP  0  0  0  0  0  0  0  0  0  0  0  0  # atno 27219 bound_to 8313
  251.1402   -3.8361   40.1892 LP  0  0  0  0  0  0  0  0  0  0  0  0  # atno 27220 bound_to 9544
  251.8987   -5.2822   40.2035 LP  0  0  0  0  0  0  0  0  0  0  0  0  # atno 27221 bound_to 9544
  249.8715    1.9128   44.1005 LP  0  0  0  0  0  0  0  0  0  0  0  0  # atno 27222 bound_to 10185
  242.2299   -2.2279   38.5592 LP  0  0  0  0  0  0  0  0  0  0  0  0  # atno 27223 bound_to 7940
  246.4849   -0.9661   37.4487 LP  0  0  0  0  0  0  0  0  0  0  0  0  # atno 27224 bound_to 7943
  244.9522   -0.1712   37.3107 LP  0  0  0  0  0  0  0  0  0  0  0  0  # atno 27225 bound_to 7943
  242.0307    0.2799   39.5565 LP  0  0  0  0  0  0  0  0  0  0  0  0  # atno 27226 bound_to 7818
  240.4529    0.8847   39.9367 LP  0  0  0  0  0  0  0  0  0  0  0  0  # atno 27227 bound_to 7818
  241.1186   -0.8158   36.9859 LP  0  0  0  0  0  0  0  0  0  0  0  0  # atno 27228 bound_to 7887
  238.6759   -3.8786   36.6234 LP  0  0  0  0  0  0  0  0  0  0  0  0  # atno 27229 bound_to 7892
  240.0460   -4.5477   37.2078 LP  0  0  0  0  0  0  0  0  0  0  0  0  # atno 27230 bound_to 7892

> <Gold.Score>
     Fitness  S(hb_ext) S(vdw_ext)  S(hb_int)    S(int)      intcor
     31.28       3.09      21.18       0.00      -0.94      -0.76

> <Gold.Goldscore.Fitness>
31.2757

> <Gold.Goldscore.Internal.Vdw>
-1.1151

> <Gold.Goldscore.Internal.Torsion>
-0.5810

> <Gold.Goldscore.External.Vdw>
21.1777

> <Gold.Goldscore.Internal.HBond>
0.0000

> <Gold.Goldscore.External.HBond>
3.0946

> <Gold.Goldscore.Internal.Correction>
-0.7579

> <Gold.Goldscore.Hbonds>
donor molecule, donor type, donor heavy atom, donor atom, acceptor molecule, acceptor atom, score
      P1  H  8104  8137       L1    17  0.79
      P1  H  9544  9580       L1     9  0.02
      L1  H     8    22       P1  9544  0.01
      L1  H    10    23       P1  7943  0.73

> <Gold.Goldscore.Internal.Vdw.Weighted>
-1.1151

> <Gold.Goldscore.Internal.Torsion.Weighted>
-0.5810

> <Gold.Goldscore.External.Vdw.Weighted>
29.1193

> <Gold.Goldscore.Internal.HBond.Weighted>
0.0000

> <Gold.Goldscore.External.HBond.Weighted>
3.0946

> <Gold.Goldscore.Internal.Correction.Weighted>
-0.7579

> <Gold.Rescore>
     Score     S(PLP)   S(hbond)     S(cho)   S(metal)  DE(clash)   DE(tors)     intcor
     30.41     -27.79       1.46       0.00       0.00       1.41       0.18       ----

> <Gold.PLP.Fitness>
30.4114

> <Gold.PLP.PLP>
-27.7886

> <Gold.PLP.part.hbond>
-2.5082

> <Gold.PLP.part.metal>
0.0000

> <Gold.PLP.part.buried>
-2.9861

> <Gold.PLP.part.nonpolar>
-28.3097

> <Gold.PLP.part.repulsive>
4.9916

> <Gold.PLP.ligand.clash>
1.4111

> <Gold.PLP.ligand.torsion>
0.1792

> <Gold.PLP.Chemscore.Hbond>
1.4641

> <Gold.PLP.Chemscore.CHOScore>
0.0000

> <Gold.PLP.Chemscore.Metal>
0.0000

> <Gold.Chemscore.Hbonds>
donor molecule, donor type, donor heavy atom, donor atom, acceptor molecule, acceptor atom, score
      L1  H    10    23       P1  7943  0.30
      P1  H  8104  8137       L1    17  0.75

> <Gold.PLP.Chemscore.Internal.Correction>
   9.000000E+99

