#       Name:                CT1002167954
#       Creating user name   hitesit
#       Creation time:       Sun Apr 16 22:51:13 2023


#       File generated by GOLD software.
#

@<TRIPOS>MOLECULE
CT1002167954|ligand_prepared|mol2|1|dock6
    29    30     1
SMALL
NO_CHARGES


@<TRIPOS>ATOM
      1 C1          25.8921   8.9756  -3.7391 C.3            1 RES1               0.0000
      2 C2          24.5894   8.3892  -4.3202 C.ar           1 RES1               0.0000
      3 C3          25.6198  10.4552  -3.4845 C.2            1 RES1               0.0000
      4 C4          26.1963   8.1731  -2.4789 C.2            1 RES1               0.0000
      5 C5          27.1084   8.8561  -4.6868 C.3            1 RES1               0.0000
      6 C6          24.2159   8.6569  -5.6339 C.ar           1 RES1               0.0000
      7 C7          23.7536   7.5781  -3.5571 C.ar           1 RES1               0.0000
      8 N8          25.4569  10.8541  -2.1905 N.am           1 RES1               0.0000
      9 O9          25.5102  11.2529  -4.4075 O.2            1 RES1               0.0000
     10 N10         26.1447   8.8248  -1.2746 N.am           1 RES1               0.0000
     11 O11         26.4638   6.9784  -2.5165 O.2            1 RES1               0.0000
     12 C12         28.4224   9.2885  -4.0555 C.3            1 RES1               0.0000
     13 C13         23.0508   8.1304  -6.1664 C.ar           1 RES1               0.0000
     14 C14         22.5887   7.0529  -4.0915 C.ar           1 RES1               0.0000
     15 C15         25.7588  10.1216  -1.0707 C.2            1 RES1               0.0000
     16 C16         22.2367   7.3278  -5.3958 C.ar           1 RES1               0.0000
     17 O17         25.6851  10.6211   0.0484 O.2            1 RES1               0.0000
     18 H18         27.2001   7.8129  -5.0137 H              1 RES1               0.0000
     19 H19         26.9247   9.4712  -5.5763 H              1 RES1               0.0000
     20 H20         24.8427   9.2884  -6.2546 H              1 RES1               0.0000
     21 H21         24.0100   7.3493  -2.5283 H              1 RES1               0.0000
     22 H22         25.0754  11.7829  -2.0418 H              1 RES1               0.0000
     23 H23         26.4196   8.2941  -0.4542 H              1 RES1               0.0000
     24 H24         29.2426   9.1849  -4.7627 H              1 RES1               0.0000
     25 H25         28.3753  10.3292  -3.7414 H              1 RES1               0.0000
     26 H26         28.6491   8.6807  -3.1820 H              1 RES1               0.0000
     27 H27         22.7775   8.3509  -7.1930 H              1 RES1               0.0000
     28 H28         21.9507   6.4222  -3.4813 H              1 RES1               0.0000
     29 H29         21.3241   6.9152  -5.8133 H              1 RES1               0.0000
@<TRIPOS>BOND
    1    1    2 1     
    2    1    3 1     
    3    1    4 1     
    4    1    5 1     
    5    2    6 ar    
    6    2    7 ar    
    7    3    8 1     
    8    3    9 2     
    9    4   10 1     
   10    4   11 2     
   11    5   12 1     
   12    5   18 1     
   13    5   19 1     
   14    6   13 ar    
   15    6   20 1     
   16    7   14 ar    
   17    7   21 1     
   18    8   15 1     
   19    8   22 1     
   20   10   15 1     
   21   10   23 1     
   22   12   24 1     
   23   12   25 1     
   24   12   26 1     
   25   13   16 ar    
   26   13   27 1     
   27   14   16 ar    
   28   14   28 1     
   29   15   17 2     
   30   16   29 1     
@<TRIPOS>SUBSTRUCTURE
      1 RES1           1
@<TRIPOS>SET
DONOR_HYDROGENS      STATIC     ATOMS    <user>   **** ""
2 22 23
ATOM$RED        STATIC     ATOMS    COLORGROUP SYSTEM
2 22 23
@<TRIPOS>COMMENT
> <Gold.Version>
2022.3.0

> <Gold.Id.Protein>
unknown|3nx8_clean|pdb

> <Gold.Protein.RotatedTorsions>
[ 3590 3581 3580 3578 ] final   78.11 input   60.00 | X-H torsion
[ 3510 3501 3500 3498 ] final  -74.47 input   59.99 | X-H torsion
[ 3778 3769 3768 3766 ] final  -85.48 input   60.02 | X-H torsion
[ 2535 2524 2523 2522 ] final   63.69 input   60.02 | X-H torsion
[ 3063 3056 3054 3051 ] final  -23.77 input   59.97 | X-H torsion
[ 5056 5047 5046 5044 ] final  -72.30 input   59.99 | X-H torsion
[  549  544  542  539 ] final    8.59 input   60.01 | X-H torsion
[ 1860 1855 1854 1851 ] final   21.02 input   60.02 | X-H torsion
[ 3113 3104 3103 3101 ] final    2.34 input   60.01 | X-H torsion
[  567  564  563  560 ] final  -58.50 input   60.03 | X-H torsion

> <Gold.Protein.ActiveResidues>
 LEU49   GLY50   THR51   GLY52   SER53   PHE54   VAL57   LEU82   GLN84   HIS87  
 GLU127  MET128  PHE129  SER130  LEU132  ARG133  ARG134  ILE135  GLY136  ARG137 
 ARG165  ASP166  LEU167  LYS168  PRO169  GLU170  ASN171  LEU172  LEU173  THR183 
 ASP184  GLY186  PHE187  TPO197  LEU198  CYS199  GLY200  THR201  PRO202  GLU203 
 TYR204  LEU205  ILE209  ILE210  VAL226  LEU227  TYR229  GLU230  ALA233  GLY234 
 TYR235  PRO236  PRO237  PHE238  PHE239  ALA240  ASP241  GLN242  PRO243  ILE244 
 GLN245  ILE246  TYR247  ARG256  PHE257  PRO258  SER259  PHE327  ASP328  TYR330 

> <Gold.Protein.RotatedAtoms>
   20.7209   10.8261   -5.3325 H   0  0  0  0  0  0  0  0  0  0  0  0  # atno 549  bound_to 544 
   22.3854    9.0303    2.7567 H   0  0  0  0  0  0  0  0  0  0  0  0  # atno 567  bound_to 564 
   25.6287    4.2198  -11.4497 H   0  0  0  0  0  0  0  0  0  0  0  0  # atno 1860 bound_to 1855
   18.8912    3.6962   -0.2210 H   0  0  0  0  0  0  0  0  0  0  0  0  # atno 2535 bound_to 2524
   19.3535    5.0093   -1.1207 H   0  0  0  0  0  0  0  0  0  0  0  0  # atno 2536 bound_to 2524
   18.6403    3.7076   -1.8593 H   0  0  0  0  0  0  0  0  0  0  0  0  # atno 2537 bound_to 2524
   17.1369    2.8434    0.7570 H   0  0  0  0  0  0  0  0  0  0  0  0  # atno 3063 bound_to 3056
   20.5994   -4.0831   -4.3843 H   0  0  0  0  0  0  0  0  0  0  0  0  # atno 3113 bound_to 3104
   15.2045  -13.7648   -7.1009 H   0  0  0  0  0  0  0  0  0  0  0  0  # atno 3510 bound_to 3501
   14.9840  -13.8395  -12.3505 H   0  0  0  0  0  0  0  0  0  0  0  0  # atno 3590 bound_to 3581
    9.8630    0.4234    3.6097 H   0  0  0  0  0  0  0  0  0  0  0  0  # atno 3778 bound_to 3769
   22.7887    9.7716  -10.3100 H   0  0  0  0  0  0  0  0  0  0  0  0  # atno 5056 bound_to 5047
   16.2131  -14.2200  -11.3544 LP  0  0  0  0  0  0  0  0  0  0  0  0  # atno 5350 bound_to 3581
   16.5067  -13.8738  -12.9231 LP  0  0  0  0  0  0  0  0  0  0  0  0  # atno 5351 bound_to 3581
   15.9416  -15.2137   -7.1822 LP  0  0  0  0  0  0  0  0  0  0  0  0  # atno 5358 bound_to 3501
   16.2250  -14.0849   -8.3277 LP  0  0  0  0  0  0  0  0  0  0  0  0  # atno 5359 bound_to 3501
    8.6636    0.9289    2.6326 LP  0  0  0  0  0  0  0  0  0  0  0  0  # atno 5412 bound_to 3769
   10.0244    0.2892    1.9958 LP  0  0  0  0  0  0  0  0  0  0  0  0  # atno 5413 bound_to 3769
   17.9460    2.4883   -0.6096 LP  0  0  0  0  0  0  0  0  0  0  0  0  # atno 5416 bound_to 3056
   18.5433    2.0290    0.8391 LP  0  0  0  0  0  0  0  0  0  0  0  0  # atno 5417 bound_to 3056
   22.1205    9.9950   -8.8431 LP  0  0  0  0  0  0  0  0  0  0  0  0  # atno 5426 bound_to 5047
   23.7402   10.0887   -9.0285 LP  0  0  0  0  0  0  0  0  0  0  0  0  # atno 5427 bound_to 5047
   20.1006   12.0252   -6.2411 LP  0  0  0  0  0  0  0  0  0  0  0  0  # atno 5430 bound_to 544 
   19.2967   11.4975   -4.9213 LP  0  0  0  0  0  0  0  0  0  0  0  0  # atno 5431 bound_to 544 
   25.5313    5.1572  -12.7765 LP  0  0  0  0  0  0  0  0  0  0  0  0  # atno 5436 bound_to 1855
   26.9420    5.0319  -11.9636 LP  0  0  0  0  0  0  0  0  0  0  0  0  # atno 5437 bound_to 1855
   20.9683   -5.5508   -3.7851 LP  0  0  0  0  0  0  0  0  0  0  0  0  # atno 5458 bound_to 3104
   21.9875   -4.2948   -3.5610 LP  0  0  0  0  0  0  0  0  0  0  0  0  # atno 5459 bound_to 3104
   22.0803    8.9829    4.3548 LP  0  0  0  0  0  0  0  0  0  0  0  0  # atno 5468 bound_to 564 
   21.7271   10.3242    3.4928 LP  0  0  0  0  0  0  0  0  0  0  0  0  # atno 5469 bound_to 564 

> <Gold.Score>
     Fitness  S(hb_ext) S(vdw_ext)  S(hb_int)    S(int)      intcor
     36.89       0.00      27.78       0.00      -1.31      -0.77

> <Gold.Goldscore.Fitness>
36.8884

> <Gold.Goldscore.Internal.Vdw>
-1.6433

> <Gold.Goldscore.Internal.Torsion>
-0.4328

> <Gold.Goldscore.External.Vdw>
27.7812

> <Gold.Goldscore.Internal.HBond>
0.0000

> <Gold.Goldscore.External.HBond>
0.0000

> <Gold.Goldscore.Internal.Correction>
-0.7653

> <Gold.Goldscore.Internal.Vdw.Weighted>
-1.6433

> <Gold.Goldscore.Internal.Torsion.Weighted>
-0.4328

> <Gold.Goldscore.External.Vdw.Weighted>
38.1992

> <Gold.Goldscore.Internal.HBond.Weighted>
0.0000

> <Gold.Goldscore.External.HBond.Weighted>
0.0000

> <Gold.Goldscore.Internal.Correction.Weighted>
-0.7653

> <Gold.Rescore>
     Score     S(PLP)   S(hbond)     S(cho)   S(metal)  DE(clash)   DE(tors)     intcor
      6.88      -8.55       0.00       0.00       0.00       0.66       0.50       ----

> <Gold.PLP.Fitness>
6.8760

> <Gold.PLP.PLP>
-8.5457

> <Gold.PLP.part.hbond>
-1.6067

> <Gold.PLP.part.metal>
0.0000

> <Gold.PLP.part.buried>
22.5594

> <Gold.PLP.part.nonpolar>
-32.9641

> <Gold.PLP.part.repulsive>
2.9968

> <Gold.PLP.ligand.clash>
0.6613

> <Gold.PLP.ligand.torsion>
0.5042

> <Gold.PLP.Chemscore.Hbond>
0.0000

> <Gold.PLP.Chemscore.CHOScore>
0.0000

> <Gold.PLP.Chemscore.Metal>
0.0000

> <Gold.PLP.Chemscore.Internal.Correction>
   9.000000E+99

#       Name:                CT1002167954
#       Creating user name   hitesit
#       Creation time:       Sun Apr 16 22:51:11 2023


#       File generated by GOLD software.
#

@<TRIPOS>MOLECULE
CT1002167954|ligand_prepared|mol2|1|dock4
    29    30     1
SMALL
NO_CHARGES


@<TRIPOS>ATOM
      1 C1          15.0889  -2.1106  -8.1033 C.3            1 RES1               0.0000
      2 C2          15.9856  -1.7671  -6.8964 C.ar           1 RES1               0.0000
      3 C3          13.7348  -2.5171  -7.5291 C.2            1 RES1               0.0000
      4 C4          15.0456  -0.8588  -8.9726 C.2            1 RES1               0.0000
      5 C5          15.6249  -3.2749  -8.9686 C.3            1 RES1               0.0000
      6 C6          15.6143  -0.7707  -5.9986 C.ar           1 RES1               0.0000
      7 C7          17.1835  -2.4385  -6.6665 C.ar           1 RES1               0.0000
      8 N8          12.7039  -1.6333  -7.6558 N.am           1 RES1               0.0000
      9 O9          13.5839  -3.5799  -6.9393 O.2            1 RES1               0.0000
     10 N10         13.8454  -0.2110  -9.1062 N.am           1 RES1               0.0000
     11 O11         16.0434  -0.4181  -9.5297 O.2            1 RES1               0.0000
     12 C12         14.7263  -3.6305 -10.1426 C.3            1 RES1               0.0000
     13 C13         16.4102  -0.4587  -4.9089 C.ar           1 RES1               0.0000
     14 C14         17.9780  -2.1248  -5.5762 C.ar           1 RES1               0.0000
     15 C15         12.6793  -0.5241  -8.4624 C.2            1 RES1               0.0000
     16 C16         17.5922  -1.1358  -4.6966 C.ar           1 RES1               0.0000
     17 O17         11.6544   0.1391  -8.5916 O.2            1 RES1               0.0000
     18 H18         16.6159  -3.0025  -9.3523 H              1 RES1               0.0000
     19 H19         15.7433  -4.1614  -8.3335 H              1 RES1               0.0000
     20 H20         14.6888  -0.2254  -6.1507 H              1 RES1               0.0000
     21 H21         17.5075  -3.2196  -7.3459 H              1 RES1               0.0000
     22 H22         11.8744  -1.8139  -7.0992 H              1 RES1               0.0000
     23 H23         13.8188   0.5776  -9.7447 H              1 RES1               0.0000
     24 H24         15.1486  -4.4528 -10.7164 H              1 RES1               0.0000
     25 H25         13.7396  -3.9306  -9.7961 H              1 RES1               0.0000
     26 H26         14.6069  -2.7785 -10.8088 H              1 RES1               0.0000
     27 H27         16.1027   0.3215  -4.2204 H              1 RES1               0.0000
     28 H28         18.9078  -2.6599  -5.4134 H              1 RES1               0.0000
     29 H29         18.2153  -0.8915  -3.8427 H              1 RES1               0.0000
@<TRIPOS>BOND
    1    1    2 1     
    2    1    3 1     
    3    1    4 1     
    4    1    5 1     
    5    2    6 ar    
    6    2    7 ar    
    7    3    8 1     
    8    3    9 2     
    9    4   10 1     
   10    4   11 2     
   11    5   12 1     
   12    5   18 1     
   13    5   19 1     
   14    6   13 ar    
   15    6   20 1     
   16    7   14 ar    
   17    7   21 1     
   18    8   15 1     
   19    8   22 1     
   20   10   15 1     
   21   10   23 1     
   22   12   24 1     
   23   12   25 1     
   24   12   26 1     
   25   13   16 ar    
   26   13   27 1     
   27   14   16 ar    
   28   14   28 1     
   29   15   17 2     
   30   16   29 1     
@<TRIPOS>SUBSTRUCTURE
      1 RES1           1
@<TRIPOS>SET
DONOR_HYDROGENS      STATIC     ATOMS    <user>   **** ""
2 22 23
ATOM$RED        STATIC     ATOMS    COLORGROUP SYSTEM
2 22 23
@<TRIPOS>COMMENT
> <Gold.Version>
2022.3.0

> <Gold.Id.Protein>
unknown|3nx8_clean|pdb

> <Gold.Protein.RotatedTorsions>
[ 3590 3581 3580 3578 ] final   90.62 input   60.00 | X-H torsion
[ 3510 3501 3500 3498 ] final  149.91 input   59.99 | X-H torsion
[ 3778 3769 3768 3766 ] final  129.84 input   60.02 | X-H torsion
[ 2535 2524 2523 2522 ] final  130.41 input   60.02 | X-H torsion
[ 3063 3056 3054 3051 ] final -157.36 input   59.97 | X-H torsion
[ 5056 5047 5046 5044 ] final  -33.96 input   59.99 | X-H torsion
[  549  544  542  539 ] final  145.82 input   60.01 | X-H torsion
[ 1860 1855 1854 1851 ] final   80.14 input   60.02 | X-H torsion
[ 3113 3104 3103 3101 ] final  -34.91 input   60.01 | X-H torsion
[  567  564  563  560 ] final -159.38 input   60.03 | X-H torsion

> <Gold.Protein.ActiveResidues>
 LEU49   GLY50   THR51   GLY52   SER53   PHE54   VAL57   LEU82   GLN84   HIS87  
 GLU127  MET128  PHE129  SER130  LEU132  ARG133  ARG134  ILE135  GLY136  ARG137 
 ARG165  ASP166  LEU167  LYS168  PRO169  GLU170  ASN171  LEU172  LEU173  THR183 
 ASP184  GLY186  PHE187  TPO197  LEU198  CYS199  GLY200  THR201  PRO202  GLU203 
 TYR204  LEU205  ILE209  ILE210  VAL226  LEU227  TYR229  GLU230  ALA233  GLY234 
 TYR235  PRO236  PRO237  PHE238  PHE239  ALA240  ASP241  GLN242  PRO243  ILE244 
 GLN245  ILE246  TYR247  ARG256  PHE257  PRO258  SER259  PHE327  ASP328  TYR330 

> <Gold.Protein.RotatedAtoms>
   19.2300   11.7007   -5.1043 H   0  0  0  0  0  0  0  0  0  0  0  0  # atno 549  bound_to 544 
   22.2017    8.7671    4.1649 H   0  0  0  0  0  0  0  0  0  0  0  0  # atno 567  bound_to 564 
   26.5201    4.4408  -11.3481 H   0  0  0  0  0  0  0  0  0  0  0  0  # atno 1860 bound_to 1855
   19.3119    4.6537   -0.3412 H   0  0  0  0  0  0  0  0  0  0  0  0  # atno 2535 bound_to 2524
   18.9837    4.4888   -1.9575 H   0  0  0  0  0  0  0  0  0  0  0  0  # atno 2536 bound_to 2524
   18.5898    3.2716   -0.9030 H   0  0  0  0  0  0  0  0  0  0  0  0  # atno 2537 bound_to 2524
   18.1324    2.3749   -0.5664 H   0  0  0  0  0  0  0  0  0  0  0  0  # atno 3063 bound_to 3056
   20.3646   -4.6330   -4.3654 H   0  0  0  0  0  0  0  0  0  0  0  0  # atno 3113 bound_to 3104
   16.0958  -15.2254   -7.3858 H   0  0  0  0  0  0  0  0  0  0  0  0  # atno 3510 bound_to 3501
   15.0422  -13.7998  -12.5420 H   0  0  0  0  0  0  0  0  0  0  0  0  # atno 3590 bound_to 3581
    8.7836    0.8569    2.2561 H   0  0  0  0  0  0  0  0  0  0  0  0  # atno 3778 bound_to 3769
   23.3851    9.8441  -10.1789 H   0  0  0  0  0  0  0  0  0  0  0  0  # atno 5056 bound_to 5047
   16.0143  -14.2100  -11.3033 LP  0  0  0  0  0  0  0  0  0  0  0  0  # atno 5350 bound_to 3581
   16.6468  -13.9238  -12.7813 LP  0  0  0  0  0  0  0  0  0  0  0  0  # atno 5351 bound_to 3581
   16.0934  -13.8692   -8.2857 LP  0  0  0  0  0  0  0  0  0  0  0  0  # atno 5358 bound_to 3501
   15.1763  -13.9594   -6.9376 LP  0  0  0  0  0  0  0  0  0  0  0  0  # atno 5359 bound_to 3501
   10.2681    0.1913    2.3014 LP  0  0  0  0  0  0  0  0  0  0  0  0  # atno 5412 bound_to 3769
    9.5064    0.5904    3.6897 LP  0  0  0  0  0  0  0  0  0  0  0  0  # atno 5413 bound_to 3769
   18.4142    2.0897    1.0107 LP  0  0  0  0  0  0  0  0  0  0  0  0  # atno 5416 bound_to 3056
   17.0725    2.8994    0.5515 LP  0  0  0  0  0  0  0  0  0  0  0  0  # atno 5417 bound_to 3056
   21.9440    9.8705   -9.4234 LP  0  0  0  0  0  0  0  0  0  0  0  0  # atno 5426 bound_to 5047
   23.3162   10.1403   -8.5802 LP  0  0  0  0  0  0  0  0  0  0  0  0  # atno 5427 bound_to 5047
   20.5568   10.7584   -5.1142 LP  0  0  0  0  0  0  0  0  0  0  0  0  # atno 5430 bound_to 544 
   20.3422   11.8835   -6.2781 LP  0  0  0  0  0  0  0  0  0  0  0  0  # atno 5431 bound_to 544 
   25.1230    4.5810  -12.1709 LP  0  0  0  0  0  0  0  0  0  0  0  0  # atno 5436 bound_to 1855
   26.4529    5.3857  -12.6714 LP  0  0  0  0  0  0  0  0  0  0  0  0  # atno 5437 bound_to 1855
   21.4983   -5.4405   -3.5215 LP  0  0  0  0  0  0  0  0  0  0  0  0  # atno 5458 bound_to 3104
   21.6938   -3.8516   -3.8436 LP  0  0  0  0  0  0  0  0  0  0  0  0  # atno 5459 bound_to 3104
   21.6873   10.2671    3.7980 LP  0  0  0  0  0  0  0  0  0  0  0  0  # atno 5468 bound_to 564 
   22.3049    9.3049    2.6321 LP  0  0  0  0  0  0  0  0  0  0  0  0  # atno 5469 bound_to 564 

> <Gold.Score>
     Fitness  S(hb_ext) S(vdw_ext)  S(hb_int)    S(int)      intcor
     30.72       4.71      18.95       0.00      -0.04      -0.77

> <Gold.Goldscore.Fitness>
30.7245

> <Gold.Goldscore.Internal.Vdw>
-0.4313

> <Gold.Goldscore.Internal.Torsion>
-0.3696

> <Gold.Goldscore.External.Vdw>
18.9475

> <Gold.Goldscore.Internal.HBond>
0.0000

> <Gold.Goldscore.External.HBond>
4.7072

> <Gold.Goldscore.Internal.Correction>
-0.7653

> <Gold.Goldscore.Hbonds>
donor molecule, donor type, donor heavy atom, donor atom, acceptor molecule, acceptor atom, score
      P1  H  1922  1925       L1    11  0.78

> <Gold.Goldscore.Internal.Vdw.Weighted>
-0.4313

> <Gold.Goldscore.Internal.Torsion.Weighted>
-0.3696

> <Gold.Goldscore.External.Vdw.Weighted>
26.0528

> <Gold.Goldscore.Internal.HBond.Weighted>
0.0000

> <Gold.Goldscore.External.HBond.Weighted>
4.7072

> <Gold.Goldscore.Internal.Correction.Weighted>
-0.7653

> <Gold.Rescore>
     Score     S(PLP)   S(hbond)     S(cho)   S(metal)  DE(clash)   DE(tors)     intcor
     27.73     -23.52       1.53       0.00       0.00       0.00       0.18       ----

> <Gold.PLP.Fitness>
27.7296

> <Gold.PLP.PLP>
-23.5241

> <Gold.PLP.part.hbond>
-2.0000

> <Gold.PLP.part.metal>
0.0000

> <Gold.PLP.part.buried>
-2.3579

> <Gold.PLP.part.nonpolar>
-20.0770

> <Gold.PLP.part.repulsive>
0.2507

> <Gold.PLP.ligand.clash>
0.0000

> <Gold.PLP.ligand.torsion>
0.1848

> <Gold.PLP.Chemscore.Hbond>
1.5250

> <Gold.PLP.Chemscore.CHOScore>
0.0000

> <Gold.PLP.Chemscore.Metal>
0.0000

> <Gold.Chemscore.Hbonds>
donor molecule, donor type, donor heavy atom, donor atom, acceptor molecule, acceptor atom, score
      P1  H  1922  1925       L1    11  0.73

> <Gold.PLP.Chemscore.Internal.Correction>
   9.000000E+99

#       Name:                CT1002167954
#       Creating user name   hitesit
#       Creation time:       Sun Apr 16 22:51:10 2023


#       File generated by GOLD software.
#

@<TRIPOS>MOLECULE
CT1002167954|ligand_prepared|mol2|1|dock3
    29    30     1
SMALL
NO_CHARGES


@<TRIPOS>ATOM
      1 C1          16.2656   1.9699  -6.0479 C.3            1 RES1               0.0000
      2 C2          16.7037   0.4942  -5.9527 C.ar           1 RES1               0.0000
      3 C3          15.8883   2.3970  -4.6324 C.2            1 RES1               0.0000
      4 C4          17.4513   2.7301  -6.6318 C.2            1 RES1               0.0000
      5 C5          15.0476   2.2017  -6.9721 C.3            1 RES1               0.0000
      6 C6          17.5749   0.0769  -4.9509 C.ar           1 RES1               0.0000
      7 C7          16.2437  -0.4602  -6.8561 C.ar           1 RES1               0.0000
      8 N8          16.7505   3.2200  -3.9698 N.am           1 RES1               0.0000
      9 O9          14.8691   1.9862  -4.0913 O.2            1 RES1               0.0000
     10 N10         18.0761   3.6545  -5.8363 N.am           1 RES1               0.0000
     11 O11         17.8606   2.5249  -7.7679 O.2            1 RES1               0.0000
     12 C12         14.4695   3.6054  -6.8841 C.3            1 RES1               0.0000
     13 C13         17.9698  -1.2471  -4.8539 C.ar           1 RES1               0.0000
     14 C14         16.6400  -1.7837  -6.7574 C.ar           1 RES1               0.0000
     15 C15         17.7987   3.9120  -4.5214 C.2            1 RES1               0.0000
     16 C16         17.5023  -2.1783  -5.7567 C.ar           1 RES1               0.0000
     17 O17         18.4409   4.7196  -3.8562 O.2            1 RES1               0.0000
     18 H18         15.3491   2.0083  -8.0089 H              1 RES1               0.0000
     19 H19         14.2637   1.4801  -6.7107 H              1 RES1               0.0000
     20 H20         17.9551   0.7959  -4.2329 H              1 RES1               0.0000
     21 H21         15.5655  -0.1724  -7.6521 H              1 RES1               0.0000
     22 H22         16.6023   3.3313  -2.9718 H              1 RES1               0.0000
     23 H23         18.8164   4.2016  -6.2640 H              1 RES1               0.0000
     24 H24         13.6177   3.7143  -7.5521 H              1 RES1               0.0000
     25 H25         14.1360   3.8225  -5.8715 H              1 RES1               0.0000
     26 H26         15.2151   4.3476  -7.1619 H              1 RES1               0.0000
     27 H27         18.6497  -1.5523  -4.0653 H              1 RES1               0.0000
     28 H28         16.2701  -2.5131  -7.4705 H              1 RES1               0.0000
     29 H29         17.8115  -3.2155  -5.6802 H              1 RES1               0.0000
@<TRIPOS>BOND
    1    1    2 1     
    2    1    3 1     
    3    1    4 1     
    4    1    5 1     
    5    2    6 ar    
    6    2    7 ar    
    7    3    8 1     
    8    3    9 2     
    9    4   10 1     
   10    4   11 2     
   11    5   12 1     
   12    5   18 1     
   13    5   19 1     
   14    6   13 ar    
   15    6   20 1     
   16    7   14 ar    
   17    7   21 1     
   18    8   15 1     
   19    8   22 1     
   20   10   15 1     
   21   10   23 1     
   22   12   24 1     
   23   12   25 1     
   24   12   26 1     
   25   13   16 ar    
   26   13   27 1     
   27   14   16 ar    
   28   14   28 1     
   29   15   17 2     
   30   16   29 1     
@<TRIPOS>SUBSTRUCTURE
      1 RES1           1
@<TRIPOS>SET
DONOR_HYDROGENS      STATIC     ATOMS    <user>   **** ""
2 22 23
ATOM$RED        STATIC     ATOMS    COLORGROUP SYSTEM
2 22 23
@<TRIPOS>COMMENT
> <Gold.Version>
2022.3.0

> <Gold.Id.Protein>
unknown|3nx8_clean|pdb

> <Gold.Protein.RotatedTorsions>
[ 3590 3581 3580 3578 ] final   -4.23 input   60.00 | X-H torsion
[ 3510 3501 3500 3498 ] final -118.14 input   59.99 | X-H torsion
[ 3778 3769 3768 3766 ] final  -86.14 input   60.02 | X-H torsion
[ 2535 2524 2523 2522 ] final   24.00 input   60.02 | X-H torsion
[ 3063 3056 3054 3051 ] final  -83.98 input   59.97 | X-H torsion
[ 5056 5047 5046 5044 ] final -108.58 input   59.99 | X-H torsion
[  549  544  542  539 ] final  148.31 input   60.01 | X-H torsion
[ 1860 1855 1854 1851 ] final -121.58 input   60.02 | X-H torsion
[ 3113 3104 3103 3101 ] final   -5.12 input   60.01 | X-H torsion
[  567  564  563  560 ] final  116.09 input   60.03 | X-H torsion

> <Gold.Protein.ActiveResidues>
 LEU49   GLY50   THR51   GLY52   SER53   PHE54   VAL57   LEU82   GLN84   HIS87  
 GLU127  MET128  PHE129  SER130  LEU132  ARG133  ARG134  ILE135  GLY136  ARG137 
 ARG165  ASP166  LEU167  LYS168  PRO169  GLU170  ASN171  LEU172  LEU173  THR183 
 ASP184  GLY186  PHE187  TPO197  LEU198  CYS199  GLY200  THR201  PRO202  GLU203 
 TYR204  LEU205  ILE209  ILE210  VAL226  LEU227  TYR229  GLU230  ALA233  GLY234 
 TYR235  PRO236  PRO237  PHE238  PHE239  ALA240  ASP241  GLN242  PRO243  ILE244 
 GLN245  ILE246  TYR247  ARG256  PHE257  PRO258  SER259  PHE327  ASP328  TYR330 

> <Gold.Protein.RotatedAtoms>
   19.2254   11.7285   -5.1337 H   0  0  0  0  0  0  0  0  0  0  0  0  # atno 549  bound_to 544 
   21.7242    9.9292    4.2587 H   0  0  0  0  0  0  0  0  0  0  0  0  # atno 567  bound_to 564 
   25.8637    5.3051  -12.8330 H   0  0  0  0  0  0  0  0  0  0  0  0  # atno 1860 bound_to 1855
   18.6444    3.3179   -0.6884 H   0  0  0  0  0  0  0  0  0  0  0  0  # atno 2535 bound_to 2524
   19.3557    4.8037   -0.5042 H   0  0  0  0  0  0  0  0  0  0  0  0  # atno 2536 bound_to 2524
   18.8846    4.2908   -2.0087 H   0  0  0  0  0  0  0  0  0  0  0  0  # atno 2537 bound_to 2524
   17.2101    2.8756   -0.1789 H   0  0  0  0  0  0  0  0  0  0  0  0  # atno 3063 bound_to 3056
   20.5284   -4.1813   -4.3970 H   0  0  0  0  0  0  0  0  0  0  0  0  # atno 3113 bound_to 3104
   15.2545  -14.3746   -6.7673 H   0  0  0  0  0  0  0  0  0  0  0  0  # atno 3510 bound_to 3501
   15.6104  -14.1548  -11.3372 H   0  0  0  0  0  0  0  0  0  0  0  0  # atno 3590 bound_to 3581
    9.8538    0.4277    3.6139 H   0  0  0  0  0  0  0  0  0  0  0  0  # atno 3778 bound_to 3769
   22.2574    9.7750  -10.0700 H   0  0  0  0  0  0  0  0  0  0  0  0  # atno 5056 bound_to 5047
   16.8159  -14.0294  -12.4228 LP  0  0  0  0  0  0  0  0  0  0  0  0  # atno 5350 bound_to 3581
   15.2727  -13.7468  -12.8757 LP  0  0  0  0  0  0  0  0  0  0  0  0  # atno 5351 bound_to 3581
   16.3085  -15.1044   -7.7700 LP  0  0  0  0  0  0  0  0  0  0  0  0  # atno 5358 bound_to 3501
   15.8078  -13.5805   -8.0758 LP  0  0  0  0  0  0  0  0  0  0  0  0  # atno 5359 bound_to 3501
    8.6647    0.9280    2.6217 LP  0  0  0  0  0  0  0  0  0  0  0  0  # atno 5412 bound_to 3769
   10.0325    0.2858    2.0025 LP  0  0  0  0  0  0  0  0  0  0  0  0  # atno 5413 bound_to 3769
   18.6166    2.0612   -0.0971 LP  0  0  0  0  0  0  0  0  0  0  0  0  # atno 5416 bound_to 3056
   17.7990    2.4237    1.2692 LP  0  0  0  0  0  0  0  0  0  0  0  0  # atno 5417 bound_to 3056
   22.5935   10.0961   -8.5105 LP  0  0  0  0  0  0  0  0  0  0  0  0  # atno 5426 bound_to 5047
   23.8021    9.9842   -9.6028 LP  0  0  0  0  0  0  0  0  0  0  0  0  # atno 5427 bound_to 5047
   20.5282   10.7545   -5.0851 LP  0  0  0  0  0  0  0  0  0  0  0  0  # atno 5430 bound_to 544 
   20.3754   11.8594   -6.2777 LP  0  0  0  0  0  0  0  0  0  0  0  0  # atno 5431 bound_to 544 
   26.8931    4.8059  -11.6755 LP  0  0  0  0  0  0  0  0  0  0  0  0  # atno 5436 bound_to 1855
   25.3436    4.2905  -11.6718 LP  0  0  0  0  0  0  0  0  0  0  0  0  # atno 5437 bound_to 1855
   21.0743   -5.5593   -3.7241 LP  0  0  0  0  0  0  0  0  0  0  0  0  # atno 5458 bound_to 3104
   21.9528   -4.1875   -3.6092 LP  0  0  0  0  0  0  0  0  0  0  0  0  # atno 5459 bound_to 3104
   22.0872    9.8347    2.6749 LP  0  0  0  0  0  0  0  0  0  0  0  0  # atno 5468 bound_to 564 
   22.3858    8.5676    3.6607 LP  0  0  0  0  0  0  0  0  0  0  0  0  # atno 5469 bound_to 564 

> <Gold.Score>
     Fitness  S(hb_ext) S(vdw_ext)  S(hb_int)    S(int)      intcor
     28.59       4.18      17.85       0.00      -0.14      -0.77

> <Gold.Goldscore.Fitness>
28.5875

> <Gold.Goldscore.Internal.Vdw>
-0.3787

> <Gold.Goldscore.Internal.Torsion>
-0.5237

> <Gold.Goldscore.External.Vdw>
17.8529

> <Gold.Goldscore.Internal.HBond>
0.0000

> <Gold.Goldscore.External.HBond>
4.1768

> <Gold.Goldscore.Internal.Correction>
-0.7653

> <Gold.Goldscore.Hbonds>
donor molecule, donor type, donor heavy atom, donor atom, acceptor molecule, acceptor atom, score
      P1  H  2524  2537       L1    17  0.69
      L1  H     8    22       P1  3056  0.03

> <Gold.Goldscore.Internal.Vdw.Weighted>
-0.3787

> <Gold.Goldscore.Internal.Torsion.Weighted>
-0.5237

> <Gold.Goldscore.External.Vdw.Weighted>
24.5478

> <Gold.Goldscore.Internal.HBond.Weighted>
0.0000

> <Gold.Goldscore.External.HBond.Weighted>
4.1768

> <Gold.Goldscore.Internal.Correction.Weighted>
-0.7653

> <Gold.Rescore>
     Score     S(PLP)   S(hbond)     S(cho)   S(metal)  DE(clash)   DE(tors)     intcor
     23.24     -22.36       0.99       0.00       0.00       0.00       1.04       ----

> <Gold.PLP.Fitness>
23.2402

> <Gold.PLP.PLP>
-22.3554

> <Gold.PLP.part.hbond>
-2.0000

> <Gold.PLP.part.metal>
0.0000

> <Gold.PLP.part.buried>
-3.8478

> <Gold.PLP.part.nonpolar>
-18.0041

> <Gold.PLP.part.repulsive>
0.3470

> <Gold.PLP.ligand.clash>
0.0000

> <Gold.PLP.ligand.torsion>
1.0445

> <Gold.PLP.Chemscore.Hbond>
0.9913

> <Gold.PLP.Chemscore.CHOScore>
0.0000

> <Gold.PLP.Chemscore.Metal>
0.0000

> <Gold.Chemscore.Hbonds>
donor molecule, donor type, donor heavy atom, donor atom, acceptor molecule, acceptor atom, score
      P1  H  2524  2537       L1    17  1.00

> <Gold.PLP.Chemscore.Internal.Correction>
   9.000000E+99

#       Name:                CT1002167954
#       Creating user name   hitesit
#       Creation time:       Sun Apr 16 22:51:08 2023


#       File generated by GOLD software.
#

@<TRIPOS>MOLECULE
CT1002167954|ligand_prepared|mol2|1|dock1
    29    30     1
SMALL
NO_CHARGES


@<TRIPOS>ATOM
      1 C1          14.9887  -1.1368  -8.4142 C.3            1 RES1               0.0000
      2 C2          15.7289  -1.1523  -7.0612 C.ar           1 RES1               0.0000
      3 C3          13.5210  -0.8657  -8.0966 C.2            1 RES1               0.0000
      4 C4          15.6546  -0.0511  -9.2523 C.2            1 RES1               0.0000
      5 C5          15.0846  -2.4687  -9.1941 C.3            1 RES1               0.0000
      6 C6          16.5669  -2.2110  -6.7240 C.ar           1 RES1               0.0000
      7 C7          15.5860  -0.1158  -6.1426 C.ar           1 RES1               0.0000
      8 N8          13.0304   0.3734  -8.3858 N.am           1 RES1               0.0000
      9 O9          12.8154  -1.7135  -7.5640 O.2            1 RES1               0.0000
     10 N10         14.9111   1.0514  -9.5830 N.am           1 RES1               0.0000
     11 O11         16.8216  -0.1328  -9.6153 O.2            1 RES1               0.0000
     12 C12         14.2768  -2.4844 -10.4823 C.3            1 RES1               0.0000
     13 C13         17.2401  -2.2313  -5.5138 C.ar           1 RES1               0.0000
     14 C14         16.2599  -0.1382  -4.9327 C.ar           1 RES1               0.0000
     15 C15         13.6388   1.3271  -9.1618 C.2            1 RES1               0.0000
     16 C16         17.0875  -1.1949  -4.6176 C.ar           1 RES1               0.0000
     17 O17         13.0554   2.3662  -9.4569 O.2            1 RES1               0.0000
     18 H18         16.1372  -2.6618  -9.4350 H              1 RES1               0.0000
     19 H19         14.7338  -3.2826  -8.5476 H              1 RES1               0.0000
     20 H20         16.6975  -3.0367  -7.4156 H              1 RES1               0.0000
     21 H21         14.9393   0.7253  -6.3688 H              1 RES1               0.0000
     22 H22         12.1278   0.6132  -7.9883 H              1 RES1               0.0000
     23 H23         15.3464   1.7294 -10.2003 H              1 RES1               0.0000
     24 H24         14.3789  -3.4412 -10.9900 H              1 RES1               0.0000
     25 H25         13.2209  -2.3205 -10.2776 H              1 RES1               0.0000
     26 H26         14.6159  -1.7034 -11.1598 H              1 RES1               0.0000
     27 H27         17.8891  -3.0659  -5.2699 H              1 RES1               0.0000
     28 H28         16.1363   0.6793  -4.2302 H              1 RES1               0.0000
     29 H29         17.6152  -1.2109  -3.6697 H              1 RES1               0.0000
@<TRIPOS>BOND
    1    1    2 1     
    2    1    3 1     
    3    1    4 1     
    4    1    5 1     
    5    2    6 ar    
    6    2    7 ar    
    7    3    8 1     
    8    3    9 2     
    9    4   10 1     
   10    4   11 2     
   11    5   12 1     
   12    5   18 1     
   13    5   19 1     
   14    6   13 ar    
   15    6   20 1     
   16    7   14 ar    
   17    7   21 1     
   18    8   15 1     
   19    8   22 1     
   20   10   15 1     
   21   10   23 1     
   22   12   24 1     
   23   12   25 1     
   24   12   26 1     
   25   13   16 ar    
   26   13   27 1     
   27   14   16 ar    
   28   14   28 1     
   29   15   17 2     
   30   16   29 1     
@<TRIPOS>SUBSTRUCTURE
      1 RES1           1
@<TRIPOS>SET
DONOR_HYDROGENS      STATIC     ATOMS    <user>   **** ""
2 22 23
ATOM$RED        STATIC     ATOMS    COLORGROUP SYSTEM
2 22 23
@<TRIPOS>COMMENT
> <Gold.Version>
2022.3.0

> <Gold.Id.Protein>
unknown|3nx8_clean|pdb

> <Gold.Protein.RotatedTorsions>
[ 3590 3581 3580 3578 ] final  -73.17 input   60.00 | X-H torsion
[ 3510 3501 3500 3498 ] final -155.97 input   59.99 | X-H torsion
[ 3778 3769 3768 3766 ] final   20.07 input   60.02 | X-H torsion
[ 2535 2524 2523 2522 ] final   81.09 input   60.02 | X-H torsion
[ 3063 3056 3054 3051 ] final   23.77 input   59.97 | X-H torsion
[ 5056 5047 5046 5044 ] final  -74.82 input   59.99 | X-H torsion
[  549  544  542  539 ] final   -9.14 input   60.01 | X-H torsion
[ 1860 1855 1854 1851 ] final   27.48 input   60.02 | X-H torsion
[ 3113 3104 3103 3101 ] final   -2.57 input   60.01 | X-H torsion
[  567  564  563  560 ] final   98.75 input   60.03 | X-H torsion

> <Gold.Protein.ActiveResidues>
 LEU49   GLY50   THR51   GLY52   SER53   PHE54   VAL57   LEU82   GLN84   HIS87  
 GLU127  MET128  PHE129  SER130  LEU132  ARG133  ARG134  ILE135  GLY136  ARG137 
 ARG165  ASP166  LEU167  LYS168  PRO169  GLU170  ASN171  LEU172  LEU173  THR183 
 ASP184  GLY186  PHE187  TPO197  LEU198  CYS199  GLY200  THR201  PRO202  GLU203 
 TYR204  LEU205  ILE209  ILE210  VAL226  LEU227  TYR229  GLU230  ALA233  GLY234 
 TYR235  PRO236  PRO237  PHE238  PHE239  ALA240  ASP241  GLN242  PRO243  ILE244 
 GLN245  ILE246  TYR247  ARG256  PHE257  PRO258  SER259  PHE327  ASP328  TYR330 

> <Gold.Protein.RotatedAtoms>
   20.8290   10.9478   -5.5708 H   0  0  0  0  0  0  0  0  0  0  0  0  # atno 549  bound_to 544 
   21.6885   10.1238    4.0572 H   0  0  0  0  0  0  0  0  0  0  0  0  # atno 567  bound_to 564 
   25.7222    4.2154  -11.4012 H   0  0  0  0  0  0  0  0  0  0  0  0  # atno 1860 bound_to 1855
   19.0175    3.9412   -0.1322 H   0  0  0  0  0  0  0  0  0  0  0  0  # atno 2535 bound_to 2524
   19.2923    4.9715   -1.4011 H   0  0  0  0  0  0  0  0  0  0  0  0  # atno 2536 bound_to 2524
   18.5753    3.5007   -1.6677 H   0  0  0  0  0  0  0  0  0  0  0  0  # atno 2537 bound_to 2524
   17.6287    2.5223    1.2309 H   0  0  0  0  0  0  0  0  0  0  0  0  # atno 3063 bound_to 3056
   20.5515   -4.1468   -4.3936 H   0  0  0  0  0  0  0  0  0  0  0  0  # atno 3113 bound_to 3104
   15.5432  -14.9060   -6.8210 H   0  0  0  0  0  0  0  0  0  0  0  0  # atno 3510 bound_to 3501
   16.6207  -14.1916  -11.6537 H   0  0  0  0  0  0  0  0  0  0  0  0  # atno 3590 bound_to 3581
   10.1762    0.2245    2.1652 H   0  0  0  0  0  0  0  0  0  0  0  0  # atno 3778 bound_to 3769
   22.7480    9.7694  -10.3045 H   0  0  0  0  0  0  0  0  0  0  0  0  # atno 5056 bound_to 5047
   16.0477  -13.7750  -13.1185 LP  0  0  0  0  0  0  0  0  0  0  0  0  # atno 5350 bound_to 3581
   15.0230  -13.9640  -11.8611 LP  0  0  0  0  0  0  0  0  0  0  0  0  # atno 5351 bound_to 3581
   16.3972  -14.6651   -8.1855 LP  0  0  0  0  0  0  0  0  0  0  0  0  # atno 5358 bound_to 3501
   15.4285  -13.4850   -7.6061 LP  0  0  0  0  0  0  0  0  0  0  0  0  # atno 5359 bound_to 3501
    9.6592    0.5210    3.6797 LP  0  0  0  0  0  0  0  0  0  0  0  0  # atno 5412 bound_to 3769
    8.7134    0.8973    2.4028 LP  0  0  0  0  0  0  0  0  0  0  0  0  # atno 5413 bound_to 3769
   17.3218    2.8264   -0.3380 LP  0  0  0  0  0  0  0  0  0  0  0  0  # atno 5416 bound_to 3056
   18.6722    2.0142    0.0903 LP  0  0  0  0  0  0  0  0  0  0  0  0  # atno 5417 bound_to 3056
   22.1454   10.0031   -8.8110 LP  0  0  0  0  0  0  0  0  0  0  0  0  # atno 5426 bound_to 5047
   23.7563   10.0828   -9.0662 LP  0  0  0  0  0  0  0  0  0  0  0  0  # atno 5427 bound_to 5047
   19.8466   12.1168   -6.1335 LP  0  0  0  0  0  0  0  0  0  0  0  0  # atno 5430 bound_to 544 
   19.4418   11.2833   -4.7889 LP  0  0  0  0  0  0  0  0  0  0  0  0  # atno 5431 bound_to 544 
   25.4489    5.1021  -12.7382 LP  0  0  0  0  0  0  0  0  0  0  0  0  # atno 5436 bound_to 1855
   26.9301    5.0915  -12.0507 LP  0  0  0  0  0  0  0  0  0  0  0  0  # atno 5437 bound_to 1855
   21.0377   -5.5581   -3.7446 LP  0  0  0  0  0  0  0  0  0  0  0  0  # atno 5458 bound_to 3104
   21.9662   -4.2234   -3.5921 LP  0  0  0  0  0  0  0  0  0  0  0  0  # atno 5459 bound_to 3104
   22.2001    9.5820    2.6101 LP  0  0  0  0  0  0  0  0  0  0  0  0  # atno 5468 bound_to 564 
   22.3087    8.6244    3.9284 LP  0  0  0  0  0  0  0  0  0  0  0  0  # atno 5469 bound_to 564 

> <Gold.Score>
     Fitness  S(hb_ext) S(vdw_ext)  S(hb_int)    S(int)      intcor
     27.69       6.09      16.30       0.00      -0.81      -0.78

> <Gold.Goldscore.Fitness>
27.6895

> <Gold.Goldscore.Internal.Vdw>
-1.1994

> <Gold.Goldscore.Internal.Torsion>
-0.3945

> <Gold.Goldscore.External.Vdw>
16.2982

> <Gold.Goldscore.Internal.HBond>
0.0000

> <Gold.Goldscore.External.HBond>
6.0913

> <Gold.Goldscore.Internal.Correction>
-0.7819

> <Gold.Goldscore.Hbonds>
donor molecule, donor type, donor heavy atom, donor atom, acceptor molecule, acceptor atom, score
      P1  H  1920  1936       L1    11  0.02
      P1  H  1922  1925       L1    11  1.00

> <Gold.Goldscore.Internal.Vdw.Weighted>
-1.1994

> <Gold.Goldscore.Internal.Torsion.Weighted>
-0.3945

> <Gold.Goldscore.External.Vdw.Weighted>
22.4101

> <Gold.Goldscore.Internal.HBond.Weighted>
0.0000

> <Gold.Goldscore.External.HBond.Weighted>
6.0913

> <Gold.Goldscore.Internal.Correction.Weighted>
-0.7819

> <Gold.Rescore>
     Score     S(PLP)   S(hbond)     S(cho)   S(metal)  DE(clash)   DE(tors)     intcor
     24.81     -19.47       1.80       0.00       0.00       0.00       0.03       ----

> <Gold.PLP.Fitness>
24.8138

> <Gold.PLP.PLP>
-19.4694

> <Gold.PLP.part.hbond>
-2.0000

> <Gold.PLP.part.metal>
0.0000

> <Gold.PLP.part.buried>
-2.2917

> <Gold.PLP.part.nonpolar>
-16.5276

> <Gold.PLP.part.repulsive>
1.0043

> <Gold.PLP.ligand.clash>
0.0000

> <Gold.PLP.ligand.torsion>
0.0308

> <Gold.PLP.Chemscore.Hbond>
1.8020

> <Gold.PLP.Chemscore.CHOScore>
0.0000

> <Gold.PLP.Chemscore.Metal>
0.0000

> <Gold.Chemscore.Hbonds>
donor molecule, donor type, donor heavy atom, donor atom, acceptor molecule, acceptor atom, score
      P1  H  1922  1925       L1    11  1.00

> <Gold.PLP.Chemscore.Internal.Correction>
   9.000000E+99

#       Name:                CT1002167954
#       Creating user name   hitesit
#       Creation time:       Sun Apr 16 22:51:12 2023


#       File generated by GOLD software.
#

@<TRIPOS>MOLECULE
CT1002167954|ligand_prepared|mol2|1|dock5
    29    30     1
SMALL
NO_CHARGES


@<TRIPOS>ATOM
      1 C1          15.9622  -0.4079  -6.8835 C.3            1 RES1               0.0000
      2 C2          14.6752  -1.1551  -7.2887 C.ar           1 RES1               0.0000
      3 C3          16.5054   0.2319  -8.1578 C.2            1 RES1               0.0000
      4 C4          15.5535   0.5943  -5.8096 C.2            1 RES1               0.0000
      5 C5          17.0564  -1.3251  -6.2894 C.3            1 RES1               0.0000
      6 C6          13.4624  -0.4788  -7.3811 C.ar           1 RES1               0.0000
      7 C7          14.6854  -2.5176  -7.5751 C.ar           1 RES1               0.0000
      8 N8          16.3665   1.5815  -8.2960 N.am           1 RES1               0.0000
      9 O9          17.0123  -0.4428  -9.0456 O.2            1 RES1               0.0000
     10 N10         15.6596   1.9287  -6.1029 N.am           1 RES1               0.0000
     11 O11         15.1248   0.2405  -4.7182 O.2            1 RES1               0.0000
     12 C12         18.2154  -0.5684  -5.6599 C.3            1 RES1               0.0000
     13 C13         12.3025  -1.1399  -7.7494 C.ar           1 RES1               0.0000
     14 C14         13.5242  -3.1769  -7.9430 C.ar           1 RES1               0.0000
     15 C15         16.0186   2.4676  -7.3083 C.2            1 RES1               0.0000
     16 C16         12.3326  -2.4891  -8.0310 C.ar           1 RES1               0.0000
     17 O17         16.0380   3.6781  -7.5116 O.2            1 RES1               0.0000
     18 H18         16.6011  -1.9705  -5.5282 H              1 RES1               0.0000
     19 H19         17.4472  -1.9702  -7.0859 H              1 RES1               0.0000
     20 H20         13.4188   0.5827  -7.1609 H              1 RES1               0.0000
     21 H21         15.6113  -3.0792  -7.5113 H              1 RES1               0.0000
     22 H22         16.5370   1.9677  -9.2191 H              1 RES1               0.0000
     23 H23         15.4520   2.5806  -5.3531 H              1 RES1               0.0000
     24 H24         18.9544  -1.2588  -5.2587 H              1 RES1               0.0000
     25 H25         18.7074   0.0649  -6.3952 H              1 RES1               0.0000
     26 H26         17.8664   0.0647  -4.8466 H              1 RES1               0.0000
     27 H27         11.3669  -0.5944  -7.8159 H              1 RES1               0.0000
     28 H28         13.5525  -4.2390  -8.1631 H              1 RES1               0.0000
     29 H29         11.4238  -3.0067  -8.3199 H              1 RES1               0.0000
@<TRIPOS>BOND
    1    1    2 1     
    2    1    3 1     
    3    1    4 1     
    4    1    5 1     
    5    2    6 ar    
    6    2    7 ar    
    7    3    8 1     
    8    3    9 2     
    9    4   10 1     
   10    4   11 2     
   11    5   12 1     
   12    5   18 1     
   13    5   19 1     
   14    6   13 ar    
   15    6   20 1     
   16    7   14 ar    
   17    7   21 1     
   18    8   15 1     
   19    8   22 1     
   20   10   15 1     
   21   10   23 1     
   22   12   24 1     
   23   12   25 1     
   24   12   26 1     
   25   13   16 ar    
   26   13   27 1     
   27   14   16 ar    
   28   14   28 1     
   29   15   17 2     
   30   16   29 1     
@<TRIPOS>SUBSTRUCTURE
      1 RES1           1
@<TRIPOS>SET
DONOR_HYDROGENS      STATIC     ATOMS    <user>   **** ""
2 22 23
ATOM$RED        STATIC     ATOMS    COLORGROUP SYSTEM
2 22 23
@<TRIPOS>COMMENT
> <Gold.Version>
2022.3.0

> <Gold.Id.Protein>
unknown|3nx8_clean|pdb

> <Gold.Protein.RotatedTorsions>
[ 3590 3581 3580 3578 ] final   44.17 input   60.00 | X-H torsion
[ 3510 3501 3500 3498 ] final  -16.47 input   59.99 | X-H torsion
[ 3778 3769 3768 3766 ] final -163.16 input   60.02 | X-H torsion
[ 2535 2524 2523 2522 ] final -112.10 input   60.02 | X-H torsion
[ 3063 3056 3054 3051 ] final -167.66 input   59.97 | X-H torsion
[ 5056 5047 5046 5044 ] final -146.48 input   59.99 | X-H torsion
[  549  544  542  539 ] final  150.54 input   60.01 | X-H torsion
[ 1860 1855 1854 1851 ] final  -23.37 input   60.02 | X-H torsion
[ 3113 3104 3103 3101 ] final    6.56 input   60.01 | X-H torsion
[  567  564  563  560 ] final   39.77 input   60.03 | X-H torsion

> <Gold.Protein.ActiveResidues>
 LEU49   GLY50   THR51   GLY52   SER53   PHE54   VAL57   LEU82   GLN84   HIS87  
 GLU127  MET128  PHE129  SER130  LEU132  ARG133  ARG134  ILE135  GLY136  ARG137 
 ARG165  ASP166  LEU167  LYS168  PRO169  GLU170  ASN171  LEU172  LEU173  THR183 
 ASP184  GLY186  PHE187  TPO197  LEU198  CYS199  GLY200  THR201  PRO202  GLU203 
 TYR204  LEU205  ILE209  ILE210  VAL226  LEU227  TYR229  GLU230  ALA233  GLY234 
 TYR235  PRO236  PRO237  PHE238  PHE239  ALA240  ASP241  GLN242  PRO243  ILE244 
 GLN245  ILE246  TYR247  ARG256  PHE257  PRO258  SER259  PHE327  ASP328  TYR330 

> <Gold.Protein.RotatedAtoms>
   19.2226   11.7529   -5.1606 H   0  0  0  0  0  0  0  0  0  0  0  0  # atno 549  bound_to 544 
   21.8169   10.2652    3.1551 H   0  0  0  0  0  0  0  0  0  0  0  0  # atno 567  bound_to 564 
   25.1783    4.4357  -11.9508 H   0  0  0  0  0  0  0  0  0  0  0  0  # atno 1860 bound_to 1855
   19.0013    4.5229   -1.9428 H   0  0  0  0  0  0  0  0  0  0  0  0  # atno 2535 bound_to 2524
   18.5817    3.2678   -0.9448 H   0  0  0  0  0  0  0  0  0  0  0  0  # atno 2536 bound_to 2524
   19.3017    4.6223   -0.3157 H   0  0  0  0  0  0  0  0  0  0  0  0  # atno 2537 bound_to 2524
   18.2657    2.2931   -0.5049 H   0  0  0  0  0  0  0  0  0  0  0  0  # atno 3063 bound_to 3056
   20.6441   -4.0315   -4.3736 H   0  0  0  0  0  0  0  0  0  0  0  0  # atno 3113 bound_to 3104
   15.6178  -13.4921   -7.8621 H   0  0  0  0  0  0  0  0  0  0  0  0  # atno 3510 bound_to 3501
   15.0459  -13.9736  -11.8246 H   0  0  0  0  0  0  0  0  0  0  0  0  # atno 3590 bound_to 3581
    8.8284    0.8777    3.2887 H   0  0  0  0  0  0  0  0  0  0  0  0  # atno 3778 bound_to 3769
   21.9636    9.8520   -9.5432 H   0  0  0  0  0  0  0  0  0  0  0  0  # atno 5056 bound_to 5047
   16.6525  -14.1896  -11.6843 LP  0  0  0  0  0  0  0  0  0  0  0  0  # atno 5350 bound_to 3581
   16.0048  -13.7691  -13.1231 LP  0  0  0  0  0  0  0  0  0  0  0  0  # atno 5351 bound_to 3581
   15.3670  -14.6512   -6.7474 LP  0  0  0  0  0  0  0  0  0  0  0  0  # atno 5358 bound_to 3501
   16.3836  -14.9219   -7.9963 LP  0  0  0  0  0  0  0  0  0  0  0  0  # atno 5359 bound_to 3501
    9.4249    0.5524    1.8098 LP  0  0  0  0  0  0  0  0  0  0  0  0  # atno 5412 bound_to 3769
   10.3045    0.2083    3.1419 LP  0  0  0  0  0  0  0  0  0  0  0  0  # atno 5413 bound_to 3769
   18.2958    2.1496    1.1158 LP  0  0  0  0  0  0  0  0  0  0  0  0  # atno 5416 bound_to 3056
   17.0566    2.9218    0.3845 LP  0  0  0  0  0  0  0  0  0  0  0  0  # atno 5417 bound_to 3056
   23.2039   10.1409   -8.5300 LP  0  0  0  0  0  0  0  0  0  0  0  0  # atno 5426 bound_to 5047
   23.4876    9.8619  -10.1137 LP  0  0  0  0  0  0  0  0  0  0  0  0  # atno 5427 bound_to 5047
   20.5018   10.7521   -5.0596 LP  0  0  0  0  0  0  0  0  0  0  0  0  # atno 5430 bound_to 544 
   20.4046   11.8372   -6.2760 LP  0  0  0  0  0  0  0  0  0  0  0  0  # atno 5431 bound_to 544 
   26.2062    5.3847  -12.7822 LP  0  0  0  0  0  0  0  0  0  0  0  0  # atno 5436 bound_to 1855
   26.7205    4.5870  -11.4534 LP  0  0  0  0  0  0  0  0  0  0  0  0  # atno 5437 bound_to 1855
   20.9097   -5.5392   -3.8206 LP  0  0  0  0  0  0  0  0  0  0  0  0  # atno 5458 bound_to 3104
   22.0011   -4.3583   -3.5362 LP  0  0  0  0  0  0  0  0  0  0  0  0  # atno 5459 bound_to 3104
   22.4420    8.7712    2.9918 LP  0  0  0  0  0  0  0  0  0  0  0  0  # atno 5468 bound_to 564 
   21.9376    9.2929    4.4548 LP  0  0  0  0  0  0  0  0  0  0  0  0  # atno 5469 bound_to 564 

> <Gold.Score>
     Fitness  S(hb_ext) S(vdw_ext)  S(hb_int)    S(int)      intcor
     27.17       3.57      17.29       0.00      -0.17      -0.77

> <Gold.Goldscore.Fitness>
27.1654

> <Gold.Goldscore.Internal.Vdw>
-0.3972

> <Gold.Goldscore.Internal.Torsion>
-0.5392

> <Gold.Goldscore.External.Vdw>
17.2852

> <Gold.Goldscore.Internal.HBond>
0.0000

> <Gold.Goldscore.External.HBond>
3.5694

> <Gold.Goldscore.Internal.Correction>
-0.7653

> <Gold.Goldscore.Hbonds>
donor molecule, donor type, donor heavy atom, donor atom, acceptor molecule, acceptor atom, score
      P1  H  1922  1925       L1     9  0.59

> <Gold.Goldscore.Internal.Vdw.Weighted>
-0.3972

> <Gold.Goldscore.Internal.Torsion.Weighted>
-0.5392

> <Gold.Goldscore.External.Vdw.Weighted>
23.7671

> <Gold.Goldscore.Internal.HBond.Weighted>
0.0000

> <Gold.Goldscore.External.HBond.Weighted>
3.5694

> <Gold.Goldscore.Internal.Correction.Weighted>
-0.7653

> <Gold.Rescore>
     Score     S(PLP)   S(hbond)     S(cho)   S(metal)  DE(clash)   DE(tors)     intcor
     16.45     -15.16       1.23       0.00       0.00       0.00       1.20       ----

> <Gold.PLP.Fitness>
16.4503

> <Gold.PLP.PLP>
-15.1601

> <Gold.PLP.part.hbond>
-1.6547

> <Gold.PLP.part.metal>
0.0000

> <Gold.PLP.part.buried>
-2.0309

> <Gold.PLP.part.nonpolar>
-12.8462

> <Gold.PLP.part.repulsive>
1.0641

> <Gold.PLP.ligand.clash>
0.0000

> <Gold.PLP.ligand.torsion>
1.2032

> <Gold.PLP.Chemscore.Hbond>
1.2322

> <Gold.PLP.Chemscore.CHOScore>
0.0000

> <Gold.PLP.Chemscore.Metal>
0.0000

> <Gold.Chemscore.Hbonds>
donor molecule, donor type, donor heavy atom, donor atom, acceptor molecule, acceptor atom, score
      P1  H  1922  1925       L1     9  0.52

> <Gold.PLP.Chemscore.Internal.Correction>
   9.000000E+99

#       Name:                CT1002167954
#       Creating user name   hitesit
#       Creation time:       Sun Apr 16 22:51:13 2023


#       File generated by GOLD software.
#

@<TRIPOS>MOLECULE
CT1002167954|ligand_prepared|mol2|1|dock7
    29    30     1
SMALL
NO_CHARGES


@<TRIPOS>ATOM
      1 C1          16.5196   2.3935  -5.3909 C.3            1 RES1               0.0000
      2 C2          16.9711   0.9200  -5.3313 C.ar           1 RES1               0.0000
      3 C3          17.4719   3.1703  -4.4865 C.2            1 RES1               0.0000
      4 C4          16.5848   2.8006  -6.8588 C.2            1 RES1               0.0000
      5 C5          15.0731   2.6244  -4.8949 C.3            1 RES1               0.0000
      6 C6          16.3094  -0.0544  -6.0725 C.ar           1 RES1               0.0000
      7 C7          18.0472   0.5209  -4.5430 C.ar           1 RES1               0.0000
      8 N8          18.4099   3.9586  -5.0853 N.am           1 RES1               0.0000
      9 O9          17.4261   3.0622  -3.2673 O.2            1 RES1               0.0000
     10 N10         17.4993   3.7548  -7.2205 N.am           1 RES1               0.0000
     11 O11         15.8639   2.2916  -7.7082 O.2            1 RES1               0.0000
     12 C12         14.6599   4.0875  -4.8694 C.3            1 RES1               0.0000
     13 C13         16.7108  -1.3793  -6.0298 C.ar           1 RES1               0.0000
     14 C14         18.4468  -0.8047  -4.5015 C.ar           1 RES1               0.0000
     15 C15         18.4359   4.3301  -6.4055 C.2            1 RES1               0.0000
     16 C16         17.7799  -1.7553  -5.2447 C.ar           1 RES1               0.0000
     17 O17         19.2608   5.1412  -6.8163 O.2            1 RES1               0.0000
     18 H18         14.3840   2.0742  -5.5474 H              1 RES1               0.0000
     19 H19         14.9770   2.2127  -3.8826 H              1 RES1               0.0000
     20 H20         15.4644   0.2222  -6.6942 H              1 RES1               0.0000
     21 H21         18.5860   1.2513  -3.9492 H              1 RES1               0.0000
     22 H22         19.1618   4.3037  -4.4971 H              1 RES1               0.0000
     23 H23         17.4800   4.0652  -8.1867 H              1 RES1               0.0000
     24 H24         13.6371   4.1933  -4.5138 H              1 RES1               0.0000
     25 H25         15.3088   4.6602  -4.2100 H              1 RES1               0.0000
     26 H26         14.7193   4.5225  -5.8649 H              1 RES1               0.0000
     27 H27         16.1818  -2.1238  -6.6155 H              1 RES1               0.0000
     28 H28         19.2884  -1.0961  -3.8818 H              1 RES1               0.0000
     29 H29         18.0944  -2.7932  -5.2117 H              1 RES1               0.0000
@<TRIPOS>BOND
    1    1    2 1     
    2    1    3 1     
    3    1    4 1     
    4    1    5 1     
    5    2    6 ar    
    6    2    7 ar    
    7    3    8 1     
    8    3    9 2     
    9    4   10 1     
   10    4   11 2     
   11    5   12 1     
   12    5   18 1     
   13    5   19 1     
   14    6   13 ar    
   15    6   20 1     
   16    7   14 ar    
   17    7   21 1     
   18    8   15 1     
   19    8   22 1     
   20   10   15 1     
   21   10   23 1     
   22   12   24 1     
   23   12   25 1     
   24   12   26 1     
   25   13   16 ar    
   26   13   27 1     
   27   14   16 ar    
   28   14   28 1     
   29   15   17 2     
   30   16   29 1     
@<TRIPOS>SUBSTRUCTURE
      1 RES1           1
@<TRIPOS>SET
DONOR_HYDROGENS      STATIC     ATOMS    <user>   **** ""
2 22 23
ATOM$RED        STATIC     ATOMS    COLORGROUP SYSTEM
2 22 23
@<TRIPOS>COMMENT
> <Gold.Version>
2022.3.0

> <Gold.Id.Protein>
unknown|3nx8_clean|pdb

> <Gold.Protein.RotatedTorsions>
[ 3590 3581 3580 3578 ] final  165.82 input   60.00 | X-H torsion
[ 3510 3501 3500 3498 ] final  113.55 input   59.99 | X-H torsion
[ 3778 3769 3768 3766 ] final    5.56 input   60.02 | X-H torsion
[ 2535 2524 2523 2522 ] final  -61.21 input   60.02 | X-H torsion
[ 3063 3056 3054 3051 ] final  -27.90 input   59.97 | X-H torsion
[ 5056 5047 5046 5044 ] final  -96.21 input   59.99 | X-H torsion
[  549  544  542  539 ] final  141.92 input   60.01 | X-H torsion
[ 1860 1855 1854 1851 ] final -102.43 input   60.02 | X-H torsion
[ 3113 3104 3103 3101 ] final   10.51 input   60.01 | X-H torsion
[  567  564  563  560 ] final   21.83 input   60.03 | X-H torsion

> <Gold.Protein.ActiveResidues>
 LEU49   GLY50   THR51   GLY52   SER53   PHE54   VAL57   LEU82   GLN84   HIS87  
 GLU127  MET128  PHE129  SER130  LEU132  ARG133  ARG134  ILE135  GLY136  ARG137 
 ARG165  ASP166  LEU167  LYS168  PRO169  GLU170  ASN171  LEU172  LEU173  THR183 
 ASP184  GLY186  PHE187  TPO197  LEU198  CYS199  GLY200  THR201  PRO202  GLU203 
 TYR204  LEU205  ILE209  ILE210  VAL226  LEU227  TYR229  GLU230  ALA233  GLY234 
 TYR235  PRO236  PRO237  PHE238  PHE239  ALA240  ASP241  GLN242  PRO243  ILE244 
 GLN245  ILE246  TYR247  ARG256  PHE257  PRO258  SER259  PHE327  ASP328  TYR330 

> <Gold.Protein.RotatedAtoms>
   19.2402   11.6562   -5.0598 H   0  0  0  0  0  0  0  0  0  0  0  0  # atno 549  bound_to 544 
   21.9180   10.1332    2.9150 H   0  0  0  0  0  0  0  0  0  0  0  0  # atno 567  bound_to 564 
   25.5817    5.1803  -12.7897 H   0  0  0  0  0  0  0  0  0  0  0  0  # atno 1860 bound_to 1855
   18.6639    3.7739   -1.9012 H   0  0  0  0  0  0  0  0  0  0  0  0  # atno 2535 bound_to 2524
   18.8564    3.6331   -0.2610 H   0  0  0  0  0  0  0  0  0  0  0  0  # atno 2536 bound_to 2524
   19.3641    5.0054   -1.0406 H   0  0  0  0  0  0  0  0  0  0  0  0  # atno 2537 bound_to 2524
   17.1141    2.8613    0.6960 H   0  0  0  0  0  0  0  0  0  0  0  0  # atno 3063 bound_to 3056
   20.6884   -3.9864   -4.3613 H   0  0  0  0  0  0  0  0  0  0  0  0  # atno 3113 bound_to 3104
   16.3482  -15.0247   -7.8733 H   0  0  0  0  0  0  0  0  0  0  0  0  # atno 3510 bound_to 3501
   16.0306  -13.7725  -13.1134 H   0  0  0  0  0  0  0  0  0  0  0  0  # atno 3590 bound_to 3581
   10.2911    0.1807    2.3673 H   0  0  0  0  0  0  0  0  0  0  0  0  # atno 3778 bound_to 3769
   22.4204    9.7654  -10.1885 H   0  0  0  0  0  0  0  0  0  0  0  0  # atno 5056 bound_to 5047
   15.0291  -13.9683  -11.8460 LP  0  0  0  0  0  0  0  0  0  0  0  0  # atno 5350 bound_to 3581
   16.6361  -14.1929  -11.6628 LP  0  0  0  0  0  0  0  0  0  0  0  0  # atno 5351 bound_to 3581
   15.7193  -13.5278   -7.9862 LP  0  0  0  0  0  0  0  0  0  0  0  0  # atno 5358 bound_to 3501
   15.2963  -14.5027   -6.7464 LP  0  0  0  0  0  0  0  0  0  0  0  0  # atno 5359 bound_to 3501
    9.4423    0.6191    3.6849 LP  0  0  0  0  0  0  0  0  0  0  0  0  # atno 5412 bound_to 3769
    8.8147    0.8433    2.1941 LP  0  0  0  0  0  0  0  0  0  0  0  0  # atno 5413 bound_to 3769
   18.0044    2.4542   -0.6039 LP  0  0  0  0  0  0  0  0  0  0  0  0  # atno 5416 bound_to 3056
   18.5078    2.0450    0.8948 LP  0  0  0  0  0  0  0  0  0  0  0  0  # atno 5417 bound_to 3056
   22.4087   10.0663   -8.5893 LP  0  0  0  0  0  0  0  0  0  0  0  0  # atno 5426 bound_to 5047
   23.8229   10.0236   -9.4046 LP  0  0  0  0  0  0  0  0  0  0  0  0  # atno 5427 bound_to 5047
   20.5995   10.7671   -5.1612 LP  0  0  0  0  0  0  0  0  0  0  0  0  # atno 5430 bound_to 544 
   20.2892   11.9195   -6.2759 LP  0  0  0  0  0  0  0  0  0  0  0  0  # atno 5431 bound_to 544 
   26.9436    4.9989  -11.9175 LP  0  0  0  0  0  0  0  0  0  0  0  0  # atno 5436 bound_to 1855
   25.5769    4.2233  -11.4735 LP  0  0  0  0  0  0  0  0  0  0  0  0  # atno 5437 bound_to 1855
   20.8563   -5.5240   -3.8543 LP  0  0  0  0  0  0  0  0  0  0  0  0  # atno 5458 bound_to 3104
   22.0098   -4.4190   -3.5150 LP  0  0  0  0  0  0  0  0  0  0  0  0  # atno 5459 bound_to 3104
   22.4451    8.6300    3.2496 LP  0  0  0  0  0  0  0  0  0  0  0  0  # atno 5468 bound_to 564 
   21.8328    9.5670    4.4386 LP  0  0  0  0  0  0  0  0  0  0  0  0  # atno 5469 bound_to 564 

> <Gold.Score>
     Fitness  S(hb_ext) S(vdw_ext)  S(hb_int)    S(int)      intcor
     26.89       6.00      17.65       0.00      -3.38      -0.77

> <Gold.Goldscore.Fitness>
26.8881

> <Gold.Goldscore.Internal.Vdw>
-3.7537

> <Gold.Goldscore.Internal.Torsion>
-0.3912

> <Gold.Goldscore.External.Vdw>
17.6492

> <Gold.Goldscore.Internal.HBond>
0.0000

> <Gold.Goldscore.External.HBond>
6.0000

> <Gold.Goldscore.Internal.Correction>
-0.7653

> <Gold.Goldscore.Hbonds>
donor molecule, donor type, donor heavy atom, donor atom, acceptor molecule, acceptor atom, score
      P1  H  2524  2535       L1     9  1.00

> <Gold.Goldscore.Internal.Vdw.Weighted>
-3.7537

> <Gold.Goldscore.Internal.Torsion.Weighted>
-0.3912

> <Gold.Goldscore.External.Vdw.Weighted>
24.2677

> <Gold.Goldscore.Internal.HBond.Weighted>
0.0000

> <Gold.Goldscore.External.HBond.Weighted>
6.0000

> <Gold.Goldscore.Internal.Correction.Weighted>
-0.7653

> <Gold.Rescore>
     Score     S(PLP)   S(hbond)     S(cho)   S(metal)  DE(clash)   DE(tors)     intcor
     21.39     -20.18       1.00       0.00       0.00       0.01       0.89       ----

> <Gold.PLP.Fitness>
21.3899

> <Gold.PLP.PLP>
-20.1816

> <Gold.PLP.part.hbond>
-2.3262

> <Gold.PLP.part.metal>
0.0000

> <Gold.PLP.part.buried>
1.9412

> <Gold.PLP.part.nonpolar>
-21.2075

> <Gold.PLP.part.repulsive>
0.1984

> <Gold.PLP.ligand.clash>
0.0125

> <Gold.PLP.ligand.torsion>
0.8896

> <Gold.PLP.Chemscore.Hbond>
1.0000

> <Gold.PLP.Chemscore.CHOScore>
0.0000

> <Gold.PLP.Chemscore.Metal>
0.0000

> <Gold.Chemscore.Hbonds>
donor molecule, donor type, donor heavy atom, donor atom, acceptor molecule, acceptor atom, score
      P1  H  2524  2535       L1     9  1.00

> <Gold.PLP.Chemscore.Internal.Correction>
   9.000000E+99

#       Name:                CT1002167954
#       Creating user name   hitesit
#       Creation time:       Sun Apr 16 22:51:16 2023


#       File generated by GOLD software.
#

@<TRIPOS>MOLECULE
CT1002167954|ligand_prepared|mol2|1|dock10
    29    30     1
SMALL
NO_CHARGES


@<TRIPOS>ATOM
      1 C1          14.7473  -1.3053  -8.3892 C.3            1 RES1               0.0000
      2 C2          15.6137  -1.0602  -7.1370 C.ar           1 RES1               0.0000
      3 C3          15.7007  -1.2859  -9.5804 C.2            1 RES1               0.0000
      4 C4          14.0514  -2.6443  -8.1711 C.2            1 RES1               0.0000
      5 C5          13.6574  -0.2316  -8.6149 C.3            1 RES1               0.0000
      6 C6          15.6514   0.1944  -6.5360 C.ar           1 RES1               0.0000
      7 C7          16.3771  -2.0777  -6.5709 C.ar           1 RES1               0.0000
      8 N8          15.9984  -2.4787 -10.1709 N.am           1 RES1               0.0000
      9 O9          16.2144  -0.2448  -9.9708 O.2            1 RES1               0.0000
     10 N10         14.3786  -3.6813  -9.0049 N.am           1 RES1               0.0000
     11 O11         13.2349  -2.8152  -7.2742 O.2            1 RES1               0.0000
     12 C12         12.6111  -0.6271  -9.6449 C.3            1 RES1               0.0000
     13 C13         16.4221   0.4229  -5.4081 C.ar           1 RES1               0.0000
     14 C14         17.1474  -1.8470  -5.4431 C.ar           1 RES1               0.0000
     15 C15         15.3431  -3.6678  -9.9753 C.2            1 RES1               0.0000
     16 C16         17.1702  -0.5976  -4.8607 C.ar           1 RES1               0.0000
     17 O17         15.6177  -4.6572 -10.6482 O.2            1 RES1               0.0000
     18 H18         13.1553  -0.0321  -7.6602 H              1 RES1               0.0000
     19 H19         14.1398   0.6982  -8.9408 H              1 RES1               0.0000
     20 H20         15.0713   1.0103  -6.9540 H              1 RES1               0.0000
     21 H21         16.3754  -3.0683  -7.0128 H              1 RES1               0.0000
     22 H22         16.7808  -2.4873 -10.8175 H              1 RES1               0.0000
     23 H23         13.8545  -4.5432  -8.8918 H              1 RES1               0.0000
     24 H24         11.8707   0.1610  -9.7648 H              1 RES1               0.0000
     25 H25         13.0725  -0.8086 -10.6134 H              1 RES1               0.0000
     26 H26         12.0938  -1.5346  -9.3405 H              1 RES1               0.0000
     27 H27         16.4377   1.4083  -4.9543 H              1 RES1               0.0000
     28 H28         17.7350  -2.6529  -5.0160 H              1 RES1               0.0000
     29 H29         17.7735  -0.4184  -3.9769 H              1 RES1               0.0000
@<TRIPOS>BOND
    1    1    2 1     
    2    1    3 1     
    3    1    4 1     
    4    1    5 1     
    5    2    6 ar    
    6    2    7 ar    
    7    3    8 1     
    8    3    9 2     
    9    4   10 1     
   10    4   11 2     
   11    5   12 1     
   12    5   18 1     
   13    5   19 1     
   14    6   13 ar    
   15    6   20 1     
   16    7   14 ar    
   17    7   21 1     
   18    8   15 1     
   19    8   22 1     
   20   10   15 1     
   21   10   23 1     
   22   12   24 1     
   23   12   25 1     
   24   12   26 1     
   25   13   16 ar    
   26   13   27 1     
   27   14   16 ar    
   28   14   28 1     
   29   15   17 2     
   30   16   29 1     
@<TRIPOS>SUBSTRUCTURE
      1 RES1           1
@<TRIPOS>SET
DONOR_HYDROGENS      STATIC     ATOMS    <user>   **** ""
2 22 23
ATOM$RED        STATIC     ATOMS    COLORGROUP SYSTEM
2 22 23
@<TRIPOS>COMMENT
> <Gold.Version>
2022.3.0

> <Gold.Id.Protein>
unknown|3nx8_clean|pdb

> <Gold.Protein.RotatedTorsions>
[ 3590 3581 3580 3578 ] final -120.91 input   60.00 | X-H torsion
[ 3510 3501 3500 3498 ] final  149.18 input   59.99 | X-H torsion
[ 3778 3769 3768 3766 ] final  126.69 input   60.02 | X-H torsion
[ 2535 2524 2523 2522 ] final -178.42 input   60.02 | X-H torsion
[ 3063 3056 3054 3051 ] final   -4.25 input   59.97 | X-H torsion
[ 5056 5047 5046 5044 ] final   84.30 input   59.99 | X-H torsion
[  549  544  542  539 ] final  -85.24 input   60.01 | X-H torsion
[ 1860 1855 1854 1851 ] final -142.59 input   60.02 | X-H torsion
[ 3113 3104 3103 3101 ] final  -10.38 input   60.01 | X-H torsion
[  567  564  563  560 ] final  -10.31 input   60.03 | X-H torsion

> <Gold.Protein.ActiveResidues>
 LEU49   GLY50   THR51   GLY52   SER53   PHE54   VAL57   LEU82   GLN84   HIS87  
 GLU127  MET128  PHE129  SER130  LEU132  ARG133  ARG134  ILE135  GLY136  ARG137 
 ARG165  ASP166  LEU167  LYS168  PRO169  GLU170  ASN171  LEU172  LEU173  THR183 
 ASP184  GLY186  PHE187  TPO197  LEU198  CYS199  GLY200  THR201  PRO202  GLU203 
 TYR204  LEU205  ILE209  ILE210  VAL226  LEU227  TYR229  GLU230  ALA233  GLY234 
 TYR235  PRO236  PRO237  PHE238  PHE239  ALA240  ASP241  GLN242  PRO243  ILE244 
 GLN245  ILE246  TYR247  ARG256  PHE257  PRO258  SER259  PHE327  ASP328  TYR330 

> <Gold.Protein.RotatedAtoms>
   20.4561   11.7923   -6.2633 H   0  0  0  0  0  0  0  0  0  0  0  0  # atno 549  bound_to 544 
   22.1272    9.7417    2.6469 H   0  0  0  0  0  0  0  0  0  0  0  0  # atno 567  bound_to 564 
   26.1936    5.3776  -12.7826 H   0  0  0  0  0  0  0  0  0  0  0  0  # atno 1860 bound_to 1855
   19.3582    5.0087   -1.0864 H   0  0  0  0  0  0  0  0  0  0  0  0  # atno 2535 bound_to 2524
   18.6506    3.7364   -1.8787 H   0  0  0  0  0  0  0  0  0  0  0  0  # atno 2536 bound_to 2524
   18.8763    3.6690   -0.2376 H   0  0  0  0  0  0  0  0  0  0  0  0  # atno 2537 bound_to 2524
   17.2936    2.7330    1.0099 H   0  0  0  0  0  0  0  0  0  0  0  0  # atno 3063 bound_to 3056
   20.4850   -4.2554   -4.4010 H   0  0  0  0  0  0  0  0  0  0  0  0  # atno 3113 bound_to 3104
   16.1024  -15.2246   -7.3956 H   0  0  0  0  0  0  0  0  0  0  0  0  # atno 3510 bound_to 3501
   16.8190  -14.0409  -12.3690 H   0  0  0  0  0  0  0  0  0  0  0  0  # atno 3590 bound_to 3581
    8.8087    0.8439    2.2130 H   0  0  0  0  0  0  0  0  0  0  0  0  # atno 3778 bound_to 3769
   23.3379   10.1410   -8.5999 H   0  0  0  0  0  0  0  0  0  0  0  0  # atno 5056 bound_to 5047
   15.3140  -13.7429  -12.9110 LP  0  0  0  0  0  0  0  0  0  0  0  0  # atno 5350 bound_to 3581
   15.5568  -14.1480  -11.3478 LP  0  0  0  0  0  0  0  0  0  0  0  0  # atno 5351 bound_to 3581
   16.0866  -13.8599   -8.2823 LP  0  0  0  0  0  0  0  0  0  0  0  0  # atno 5358 bound_to 3501
   15.1763  -13.9695   -6.9310 LP  0  0  0  0  0  0  0  0  0  0  0  0  # atno 5359 bound_to 3501
   10.2900    0.1832    2.3477 LP  0  0  0  0  0  0  0  0  0  0  0  0  # atno 5412 bound_to 3769
    9.4592    0.6116    3.6867 LP  0  0  0  0  0  0  0  0  0  0  0  0  # atno 5413 bound_to 3769
   17.6698    2.6444   -0.5709 LP  0  0  0  0  0  0  0  0  0  0  0  0  # atno 5416 bound_to 3056
   18.6617    1.9841    0.5457 LP  0  0  0  0  0  0  0  0  0  0  0  0  # atno 5417 bound_to 3056
   23.3646    9.8360  -10.1982 LP  0  0  0  0  0  0  0  0  0  0  0  0  # atno 5426 bound_to 5047
   21.9432    9.8758   -9.3953 LP  0  0  0  0  0  0  0  0  0  0  0  0  # atno 5427 bound_to 5047
   19.2141   11.7991   -5.2118 LP  0  0  0  0  0  0  0  0  0  0  0  0  # atno 5430 bound_to 544 
   20.4500   10.7504   -5.0132 LP  0  0  0  0  0  0  0  0  0  0  0  0  # atno 5431 bound_to 544 
   26.7286    4.5945  -11.4600 LP  0  0  0  0  0  0  0  0  0  0  0  0  # atno 5436 bound_to 1855
   25.1759    4.4290  -11.9381 LP  0  0  0  0  0  0  0  0  0  0  0  0  # atno 5437 bound_to 1855
   21.1504   -5.5558   -3.6829 LP  0  0  0  0  0  0  0  0  0  0  0  0  # atno 5458 bound_to 3104
   21.9205   -4.1163   -3.6464 LP  0  0  0  0  0  0  0  0  0  0  0  0  # atno 5459 bound_to 3104
   22.3604    8.5794    3.7622 LP  0  0  0  0  0  0  0  0  0  0  0  0  # atno 5468 bound_to 564 
   21.7069   10.0116    4.1960 LP  0  0  0  0  0  0  0  0  0  0  0  0  # atno 5469 bound_to 564 

> <Gold.Score>
     Fitness  S(hb_ext) S(vdw_ext)  S(hb_int)    S(int)      intcor
     25.64       1.92      17.75       0.00      -0.68      -0.76

> <Gold.Goldscore.Fitness>
25.6443

> <Gold.Goldscore.Internal.Vdw>
-0.8159

> <Gold.Goldscore.Internal.Torsion>
-0.6317

> <Gold.Goldscore.External.Vdw>
17.7537

> <Gold.Goldscore.Internal.HBond>
0.0000

> <Gold.Goldscore.External.HBond>
1.9155

> <Gold.Goldscore.Internal.Correction>
-0.7650

> <Gold.Goldscore.Hbonds>
donor molecule, donor type, donor heavy atom, donor atom, acceptor molecule, acceptor atom, score
      P1  H  1920  1936       L1     9  0.03
      P1  H  1922  1925       L1     9  0.29

> <Gold.Goldscore.Internal.Vdw.Weighted>
-0.8159

> <Gold.Goldscore.Internal.Torsion.Weighted>
-0.6317

> <Gold.Goldscore.External.Vdw.Weighted>
24.4114

> <Gold.Goldscore.Internal.HBond.Weighted>
0.0000

> <Gold.Goldscore.External.HBond.Weighted>
1.9155

> <Gold.Goldscore.Internal.Correction.Weighted>
-0.7650

> <Gold.Rescore>
     Score     S(PLP)   S(hbond)     S(cho)   S(metal)  DE(clash)   DE(tors)     intcor
     25.45     -25.80       0.30       0.00       0.00       0.00       0.63       ----

> <Gold.PLP.Fitness>
25.4465

> <Gold.PLP.PLP>
-25.8007

> <Gold.PLP.part.hbond>
-1.4833

> <Gold.PLP.part.metal>
0.0000

> <Gold.PLP.part.buried>
-6.7989

> <Gold.PLP.part.nonpolar>
-18.7530

> <Gold.PLP.part.repulsive>
0.6003

> <Gold.PLP.ligand.clash>
0.0000

> <Gold.PLP.ligand.torsion>
0.6295

> <Gold.PLP.Chemscore.Hbond>
0.3016

> <Gold.PLP.Chemscore.CHOScore>
0.0000

> <Gold.PLP.Chemscore.Metal>
0.0000

> <Gold.PLP.Chemscore.Internal.Correction>
   9.000000E+99

#       Name:                CT1002167954
#       Creating user name   hitesit
#       Creation time:       Sun Apr 16 22:51:09 2023


#       File generated by GOLD software.
#

@<TRIPOS>MOLECULE
CT1002167954|ligand_prepared|mol2|1|dock2
    29    30     1
SMALL
NO_CHARGES


@<TRIPOS>ATOM
      1 C1          15.1597  -1.6646  -8.2816 C.3            1 RES1               0.0000
      2 C2          15.1987  -2.5923  -9.5131 C.ar           1 RES1               0.0000
      3 C3          15.7624  -0.3355  -8.7272 C.2            1 RES1               0.0000
      4 C4          13.6968  -1.5746  -7.8614 C.2            1 RES1               0.0000
      5 C5          15.9715  -2.1924  -7.0758 C.3            1 RES1               0.0000
      6 C6          14.7977  -3.9212  -9.4122 C.ar           1 RES1               0.0000
      7 C7          15.6299  -2.1339 -10.7550 C.ar           1 RES1               0.0000
      8 N8          14.9107   0.7129  -8.9156 N.am           1 RES1               0.0000
      9 O9          16.9616  -0.2197  -8.9480 O.2            1 RES1               0.0000
     10 N10         13.0706  -0.3608  -7.9717 N.am           1 RES1               0.0000
     11 O11         13.0761  -2.5477  -7.4516 O.2            1 RES1               0.0000
     12 C12         16.2340  -1.1431  -6.0069 C.3            1 RES1               0.0000
     13 C13         14.8240  -4.7605 -10.5136 C.ar           1 RES1               0.0000
     14 C14         15.6556  -2.9750 -11.8552 C.ar           1 RES1               0.0000
     15 C15         13.6025   0.7799  -8.5086 C.2            1 RES1               0.0000
     16 C16         15.2525  -4.2880 -11.7358 C.ar           1 RES1               0.0000
     17 O17         12.9586   1.8188  -8.6237 O.2            1 RES1               0.0000
     18 H18         15.4265  -3.0295  -6.6224 H              1 RES1               0.0000
     19 H19         16.9334  -2.5755  -7.4382 H              1 RES1               0.0000
     20 H20         14.4598  -4.3115  -8.4580 H              1 RES1               0.0000
     21 H21         15.9527  -1.1049 -10.8722 H              1 RES1               0.0000
     22 H22         15.2807   1.5218  -9.4045 H              1 RES1               0.0000
     23 H23         12.1199  -0.3020  -7.6208 H              1 RES1               0.0000
     24 H24         16.8068  -1.5657  -5.1841 H              1 RES1               0.0000
     25 H25         16.7965  -0.3070  -6.4171 H              1 RES1               0.0000
     26 H26         15.2985  -0.7583  -5.6062 H              1 RES1               0.0000
     27 H27         14.5070  -5.7934 -10.4140 H              1 RES1               0.0000
     28 H28         15.9942  -2.5990 -12.8150 H              1 RES1               0.0000
     29 H29         15.2726  -4.9456 -12.5985 H              1 RES1               0.0000
@<TRIPOS>BOND
    1    1    2 1     
    2    1    3 1     
    3    1    4 1     
    4    1    5 1     
    5    2    6 ar    
    6    2    7 ar    
    7    3    8 1     
    8    3    9 2     
    9    4   10 1     
   10    4   11 2     
   11    5   12 1     
   12    5   18 1     
   13    5   19 1     
   14    6   13 ar    
   15    6   20 1     
   16    7   14 ar    
   17    7   21 1     
   18    8   15 1     
   19    8   22 1     
   20   10   15 1     
   21   10   23 1     
   22   12   24 1     
   23   12   25 1     
   24   12   26 1     
   25   13   16 ar    
   26   13   27 1     
   27   14   16 ar    
   28   14   28 1     
   29   15   17 2     
   30   16   29 1     
@<TRIPOS>SUBSTRUCTURE
      1 RES1           1
@<TRIPOS>SET
DONOR_HYDROGENS      STATIC     ATOMS    <user>   **** ""
2 22 23
ATOM$RED        STATIC     ATOMS    COLORGROUP SYSTEM
2 22 23
@<TRIPOS>COMMENT
> <Gold.Version>
2022.3.0

> <Gold.Id.Protein>
unknown|3nx8_clean|pdb

> <Gold.Protein.RotatedTorsions>
[ 3590 3581 3580 3578 ] final  -76.74 input   60.00 | X-H torsion
[ 3510 3501 3500 3498 ] final -164.39 input   59.99 | X-H torsion
[ 3778 3769 3768 3766 ] final  154.20 input   60.02 | X-H torsion
[ 2535 2524 2523 2522 ] final   46.42 input   60.02 | X-H torsion
[ 3063 3056 3054 3051 ] final   -1.89 input   59.97 | X-H torsion
[ 5056 5047 5046 5044 ] final   68.30 input   59.99 | X-H torsion
[  549  544  542  539 ] final -121.96 input   60.01 | X-H torsion
[ 1860 1855 1854 1851 ] final   38.52 input   60.02 | X-H torsion
[ 3113 3104 3103 3101 ] final    8.58 input   60.01 | X-H torsion
[  567  564  563  560 ] final   18.56 input   60.03 | X-H torsion

> <Gold.Protein.ActiveResidues>
 LEU49   GLY50   THR51   GLY52   SER53   PHE54   VAL57   LEU82   GLN84   HIS87  
 GLU127  MET128  PHE129  SER130  LEU132  ARG133  ARG134  ILE135  GLY136  ARG137 
 ARG165  ASP166  LEU167  LYS168  PRO169  GLU170  ASN171  LEU172  LEU173  THR183 
 ASP184  GLY186  PHE187  TPO197  LEU198  CYS199  GLY200  THR201  PRO202  GLU203 
 TYR204  LEU205  ILE209  ILE210  VAL226  LEU227  TYR229  GLU230  ALA233  GLY234 
 TYR235  PRO236  PRO237  PHE238  PHE239  ALA240  ASP241  GLN242  PRO243  ILE244 
 GLN245  ILE246  TYR247  ARG256  PHE257  PRO258  SER259  PHE327  ASP328  TYR330 

> <Gold.Protein.RotatedAtoms>
   19.9502   12.0837   -6.1793 H   0  0  0  0  0  0  0  0  0  0  0  0  # atno 549  bound_to 544 
   21.9383   10.1014    2.8772 H   0  0  0  0  0  0  0  0  0  0  0  0  # atno 567  bound_to 564 
   25.8906    4.2251  -11.3379 H   0  0  0  0  0  0  0  0  0  0  0  0  # atno 1860 bound_to 1855
   18.7721    3.4929   -0.3858 H   0  0  0  0  0  0  0  0  0  0  0  0  # atno 2535 bound_to 2524
   19.3788    4.9678   -0.8373 H   0  0  0  0  0  0  0  0  0  0  0  0  # atno 2536 bound_to 2524
   18.7339    3.9521   -1.9780 H   0  0  0  0  0  0  0  0  0  0  0  0  # atno 2537 bound_to 2524
   17.3174    2.7172    1.0356 H   0  0  0  0  0  0  0  0  0  0  0  0  # atno 3063 bound_to 3056
   20.6664   -4.0080   -4.3675 H   0  0  0  0  0  0  0  0  0  0  0  0  # atno 3113 bound_to 3104
   15.6273  -14.9992   -6.8774 H   0  0  0  0  0  0  0  0  0  0  0  0  # atno 3510 bound_to 3501
   16.6559  -14.1845  -11.6996 H   0  0  0  0  0  0  0  0  0  0  0  0  # atno 3590 bound_to 3581
    8.6687    0.9236    2.6281 H   0  0  0  0  0  0  0  0  0  0  0  0  # atno 3778 bound_to 3769
   23.5449   10.1275   -8.7576 H   0  0  0  0  0  0  0  0  0  0  0  0  # atno 5056 bound_to 5047
   15.9898  -13.7671  -13.1243 LP  0  0  0  0  0  0  0  0  0  0  0  0  # atno 5350 bound_to 3581
   15.0454  -13.9791  -11.8090 LP  0  0  0  0  0  0  0  0  0  0  0  0  # atno 5351 bound_to 3581
   16.3813  -14.5412   -8.2451 LP  0  0  0  0  0  0  0  0  0  0  0  0  # atno 5358 bound_to 3501
   15.3599  -13.5151   -7.4898 LP  0  0  0  0  0  0  0  0  0  0  0  0  # atno 5359 bound_to 3501
   10.0283    0.2875    1.9990 LP  0  0  0  0  0  0  0  0  0  0  0  0  # atno 5412 bound_to 3769
    9.8618    0.4270    3.6175 LP  0  0  0  0  0  0  0  0  0  0  0  0  # atno 5413 bound_to 3769
   17.6374    2.6621   -0.5590 LP  0  0  0  0  0  0  0  0  0  0  0  0  # atno 5416 bound_to 3056
   18.6700    1.9823    0.5079 LP  0  0  0  0  0  0  0  0  0  0  0  0  # atno 5417 bound_to 3056
   23.1235    9.7984  -10.2946 LP  0  0  0  0  0  0  0  0  0  0  0  0  # atno 5426 bound_to 5047
   21.9759    9.9270   -9.1400 LP  0  0  0  0  0  0  0  0  0  0  0  0  # atno 5427 bound_to 5047
   19.3754   11.3693   -4.8349 LP  0  0  0  0  0  0  0  0  0  0  0  0  # atno 5430 bound_to 544 
   20.7982   10.8868   -5.4746 LP  0  0  0  0  0  0  0  0  0  0  0  0  # atno 5431 bound_to 544 
   25.3259    4.9995  -12.6532 LP  0  0  0  0  0  0  0  0  0  0  0  0  # atno 5436 bound_to 1855
   26.8836    5.1844  -12.1994 LP  0  0  0  0  0  0  0  0  0  0  0  0  # atno 5437 bound_to 1855
   20.8822   -5.5320   -3.8378 LP  0  0  0  0  0  0  0  0  0  0  0  0  # atno 5458 bound_to 3104
   22.0060   -4.3892   -3.5251 LP  0  0  0  0  0  0  0  0  0  0  0  0  # atno 5459 bound_to 3104
   22.4416    8.6125    3.3003 LP  0  0  0  0  0  0  0  0  0  0  0  0  # atno 5468 bound_to 564 
   21.8158    9.6164    4.4260 LP  0  0  0  0  0  0  0  0  0  0  0  0  # atno 5469 bound_to 564 

> <Gold.Score>
     Fitness  S(hb_ext) S(vdw_ext)  S(hb_int)    S(int)      intcor
     25.57       6.00      16.45       0.00      -3.04      -0.77

> <Gold.Goldscore.Fitness>
25.5727

> <Gold.Goldscore.Internal.Vdw>
-3.0980

> <Gold.Goldscore.Internal.Torsion>
-0.7133

> <Gold.Goldscore.External.Vdw>
16.4475

> <Gold.Goldscore.Internal.HBond>
0.0000

> <Gold.Goldscore.External.HBond>
6.0000

> <Gold.Goldscore.Internal.Correction>
-0.7686

> <Gold.Goldscore.Hbonds>
donor molecule, donor type, donor heavy atom, donor atom, acceptor molecule, acceptor atom, score
      P1  H  1922  1925       L1     9  1.00

> <Gold.Goldscore.Internal.Vdw.Weighted>
-3.0980

> <Gold.Goldscore.Internal.Torsion.Weighted>
-0.7133

> <Gold.Goldscore.External.Vdw.Weighted>
22.6153

> <Gold.Goldscore.Internal.HBond.Weighted>
0.0000

> <Gold.Goldscore.External.HBond.Weighted>
6.0000

> <Gold.Goldscore.Internal.Correction.Weighted>
-0.7686

> <Gold.Rescore>
     Score     S(PLP)   S(hbond)     S(cho)   S(metal)  DE(clash)   DE(tors)     intcor
     28.13     -27.10       1.06       0.00       0.00       1.24       0.45       ----

> <Gold.PLP.Fitness>
28.1302

> <Gold.PLP.PLP>
-27.0994

> <Gold.PLP.part.hbond>
-1.9630

> <Gold.PLP.part.metal>
0.0000

> <Gold.PLP.part.buried>
-2.6508

> <Gold.PLP.part.nonpolar>
-23.8608

> <Gold.PLP.part.repulsive>
0.1275

> <Gold.PLP.ligand.clash>
1.2413

> <Gold.PLP.ligand.torsion>
0.4540

> <Gold.PLP.Chemscore.Hbond>
1.0600

> <Gold.PLP.Chemscore.CHOScore>
0.0000

> <Gold.PLP.Chemscore.Metal>
0.0000

> <Gold.Chemscore.Hbonds>
donor molecule, donor type, donor heavy atom, donor atom, acceptor molecule, acceptor atom, score
      P1  H  1922  1925       L1     9  1.00

> <Gold.PLP.Chemscore.Internal.Correction>
   9.000000E+99

#       Name:                CT1002167954
#       Creating user name   hitesit
#       Creation time:       Sun Apr 16 22:51:14 2023


#       File generated by GOLD software.
#

@<TRIPOS>MOLECULE
CT1002167954|ligand_prepared|mol2|1|dock8
    29    30     1
SMALL
NO_CHARGES


@<TRIPOS>ATOM
      1 C1          14.9966  -1.3880  -8.6492 C.3            1 RES1               0.0000
      2 C2          15.0941  -2.4934  -9.7203 C.ar           1 RES1               0.0000
      3 C3          15.8568  -0.2307  -9.1483 C.2            1 RES1               0.0000
      4 C4          13.5155  -1.0508  -8.5178 C.2            1 RES1               0.0000
      5 C5          15.5136  -1.8196  -7.2571 C.3            1 RES1               0.0000
      6 C6          14.6182  -3.7753  -9.4611 C.ar           1 RES1               0.0000
      7 C7          15.6540  -2.2463 -10.9710 C.ar           1 RES1               0.0000
      8 N8          15.2147   0.8741  -9.6247 N.am           1 RES1               0.0000
      9 O9          17.0795  -0.3023  -9.1605 O.2            1 RES1               0.0000
     10 N10         13.1056   0.2001  -8.8987 N.am           1 RES1               0.0000
     11 O11         12.6971  -1.8626  -8.1036 O.2            1 RES1               0.0000
     12 C12         15.6259  -0.6746  -6.2628 C.3            1 RES1               0.0000
     13 C13         14.6964  -4.7731 -10.4185 C.ar           1 RES1               0.0000
     14 C14         15.7314  -3.2457 -11.9269 C.ar           1 RES1               0.0000
     15 C15         13.8830   1.1674  -9.4749 C.2            1 RES1               0.0000
     16 C16         15.2526  -4.5089 -11.6520 C.ar           1 RES1               0.0000
     17 O17         13.4303   2.2483  -9.8407 O.2            1 RES1               0.0000
     18 H18         14.8346  -2.5776  -6.8476 H              1 RES1               0.0000
     19 H19         16.5011  -2.2827  -7.3751 H              1 RES1               0.0000
     20 H20         14.1795  -4.0025  -8.4953 H              1 RES1               0.0000
     21 H21         16.0381  -1.2601 -11.2090 H              1 RES1               0.0000
     22 H22         15.7766   1.5443 -10.1399 H              1 RES1               0.0000
     23 H23         12.1305   0.4316  -8.7375 H              1 RES1               0.0000
     24 H24         15.9930  -1.0320  -5.3029 H              1 RES1               0.0000
     25 H25         16.3134   0.0862  -6.6266 H              1 RES1               0.0000
     26 H26         14.6568  -0.2069  -6.1022 H              1 RES1               0.0000
     27 H27         14.3194  -5.7660 -10.1967 H              1 RES1               0.0000
     28 H28         16.1704  -3.0334 -12.8961 H              1 RES1               0.0000
     29 H29         15.3133  -5.2907 -12.4019 H              1 RES1               0.0000
@<TRIPOS>BOND
    1    1    2 1     
    2    1    3 1     
    3    1    4 1     
    4    1    5 1     
    5    2    6 ar    
    6    2    7 ar    
    7    3    8 1     
    8    3    9 2     
    9    4   10 1     
   10    4   11 2     
   11    5   12 1     
   12    5   18 1     
   13    5   19 1     
   14    6   13 ar    
   15    6   20 1     
   16    7   14 ar    
   17    7   21 1     
   18    8   15 1     
   19    8   22 1     
   20   10   15 1     
   21   10   23 1     
   22   12   24 1     
   23   12   25 1     
   24   12   26 1     
   25   13   16 ar    
   26   13   27 1     
   27   14   16 ar    
   28   14   28 1     
   29   15   17 2     
   30   16   29 1     
@<TRIPOS>SUBSTRUCTURE
      1 RES1           1
@<TRIPOS>SET
DONOR_HYDROGENS      STATIC     ATOMS    <user>   **** ""
2 22 23
ATOM$RED        STATIC     ATOMS    COLORGROUP SYSTEM
2 22 23
@<TRIPOS>COMMENT
> <Gold.Version>
2022.3.0

> <Gold.Id.Protein>
unknown|3nx8_clean|pdb

> <Gold.Protein.RotatedTorsions>
[ 3590 3581 3580 3578 ] final  139.52 input   60.00 | X-H torsion
[ 3510 3501 3500 3498 ] final  -28.66 input   59.99 | X-H torsion
[ 3778 3769 3768 3766 ] final  104.82 input   60.02 | X-H torsion
[ 2535 2524 2523 2522 ] final -105.08 input   60.02 | X-H torsion
[ 3063 3056 3054 3051 ] final   80.34 input   59.97 | X-H torsion
[ 5056 5047 5046 5044 ] final  100.44 input   59.99 | X-H torsion
[  549  544  542  539 ] final -132.36 input   60.01 | X-H torsion
[ 1860 1855 1854 1851 ] final  162.88 input   60.02 | X-H torsion
[ 3113 3104 3103 3101 ] final   87.74 input   60.01 | X-H torsion
[  567  564  563  560 ] final  137.38 input   60.03 | X-H torsion

> <Gold.Protein.ActiveResidues>
 LEU49   GLY50   THR51   GLY52   SER53   PHE54   VAL57   LEU82   GLN84   HIS87  
 GLU127  MET128  PHE129  SER130  LEU132  ARG133  ARG134  ILE135  GLY136  ARG137 
 ARG165  ASP166  LEU167  LYS168  PRO169  GLU170  ASN171  LEU172  LEU173  THR183 
 ASP184  GLY186  PHE187  TPO197  LEU198  CYS199  GLY200  THR201  PRO202  GLU203 
 TYR204  LEU205  ILE209  ILE210  VAL226  LEU227  TYR229  GLU230  ALA233  GLY234 
 TYR235  PRO236  PRO237  PHE238  PHE239  ALA240  ASP241  GLN242  PRO243  ILE244 
 GLN245  ILE246  TYR247  ARG256  PHE257  PRO258  SER259  PHE327  ASP328  TYR330 

> <Gold.Protein.RotatedAtoms>
   19.8044   12.1232   -6.1019 H   0  0  0  0  0  0  0  0  0  0  0  0  # atno 549  bound_to 544 
   21.8095    9.6321    4.4145 H   0  0  0  0  0  0  0  0  0  0  0  0  # atno 567  bound_to 564 
   26.8515    5.2126  -12.2572 H   0  0  0  0  0  0  0  0  0  0  0  0  # atno 1860 bound_to 1855
   18.9502    4.4245   -1.9805 H   0  0  0  0  0  0  0  0  0  0  0  0  # atno 2535 bound_to 2524
   18.6057    3.2813   -0.8309 H   0  0  0  0  0  0  0  0  0  0  0  0  # atno 2536 bound_to 2524
   19.3288    4.7072   -0.3918 H   0  0  0  0  0  0  0  0  0  0  0  0  # atno 2537 bound_to 2524
   18.3844    2.1027    1.0312 H   0  0  0  0  0  0  0  0  0  0  0  0  # atno 3063 bound_to 3056
   21.7191   -3.8785   -3.8198 H   0  0  0  0  0  0  0  0  0  0  0  0  # atno 3113 bound_to 3104
   15.4986  -13.4787   -7.7034 H   0  0  0  0  0  0  0  0  0  0  0  0  # atno 3510 bound_to 3501
   15.6090  -13.7366  -13.0664 H   0  0  0  0  0  0  0  0  0  0  0  0  # atno 3590 bound_to 3581
    9.0372    0.7309    1.9655 H   0  0  0  0  0  0  0  0  0  0  0  0  # atno 3778 bound_to 3769
   23.0933   10.1400   -8.5033 H   0  0  0  0  0  0  0  0  0  0  0  0  # atno 5056 bound_to 5047
   15.2738  -14.0768  -11.5109 LP  0  0  0  0  0  0  0  0  0  0  0  0  # atno 5350 bound_to 3581
   16.8162  -14.1207  -12.0453 LP  0  0  0  0  0  0  0  0  0  0  0  0  # atno 5351 bound_to 3581
   15.4703  -14.8194   -6.7812 LP  0  0  0  0  0  0  0  0  0  0  0  0  # atno 5358 bound_to 3501
   16.4004  -14.7672   -8.1224 LP  0  0  0  0  0  0  0  0  0  0  0  0  # atno 5359 bound_to 3501
   10.3752    0.1586    2.6942 LP  0  0  0  0  0  0  0  0  0  0  0  0  # atno 5412 bound_to 3769
    9.1441    0.7500    3.5894 LP  0  0  0  0  0  0  0  0  0  0  0  0  # atno 5413 bound_to 3769
   17.0667    2.9057    0.5145 LP  0  0  0  0  0  0  0  0  0  0  0  0  # atno 5416 bound_to 3056
   18.1663    2.3575   -0.5612 LP  0  0  0  0  0  0  0  0  0  0  0  0  # atno 5417 bound_to 3056
   23.5700    9.8829  -10.0379 LP  0  0  0  0  0  0  0  0  0  0  0  0  # atno 5426 bound_to 5047
   21.9840    9.8299   -9.6528 LP  0  0  0  0  0  0  0  0  0  0  0  0  # atno 5427 bound_to 5047
   19.4749   11.2454   -4.7718 LP  0  0  0  0  0  0  0  0  0  0  0  0  # atno 5430 bound_to 544 
   20.8456   10.9708   -5.6158 LP  0  0  0  0  0  0  0  0  0  0  0  0  # atno 5431 bound_to 544 
   25.9579    4.2329  -11.3137 LP  0  0  0  0  0  0  0  0  0  0  0  0  # atno 5436 bound_to 1855
   25.2843    4.9567  -12.6134 LP  0  0  0  0  0  0  0  0  0  0  0  0  # atno 5437 bound_to 1855
   20.3664   -4.5910   -4.3783 LP  0  0  0  0  0  0  0  0  0  0  0  0  # atno 5458 bound_to 3104
   21.4623   -5.4606   -3.5360 LP  0  0  0  0  0  0  0  0  0  0  0  0  # atno 5459 bound_to 3104
   21.9469   10.0945    2.8600 LP  0  0  0  0  0  0  0  0  0  0  0  0  # atno 5468 bound_to 564 
   22.4401    8.6069    3.3188 LP  0  0  0  0  0  0  0  0  0  0  0  0  # atno 5469 bound_to 564 

> <Gold.Score>
     Fitness  S(hb_ext) S(vdw_ext)  S(hb_int)    S(int)      intcor
     24.88       6.00      14.83       0.00      -1.52      -0.76

> <Gold.Goldscore.Fitness>
24.8751

> <Gold.Goldscore.Internal.Vdw>
-1.7777

> <Gold.Goldscore.Internal.Torsion>
-0.5071

> <Gold.Goldscore.External.Vdw>
14.8328

> <Gold.Goldscore.Internal.HBond>
0.0000

> <Gold.Goldscore.External.HBond>
6.0000

> <Gold.Goldscore.Internal.Correction>
-0.7650

> <Gold.Goldscore.Hbonds>
donor molecule, donor type, donor heavy atom, donor atom, acceptor molecule, acceptor atom, score
      P1  H  1922  1925       L1     9  1.00

> <Gold.Goldscore.Internal.Vdw.Weighted>
-1.7777

> <Gold.Goldscore.Internal.Torsion.Weighted>
-0.5071

> <Gold.Goldscore.External.Vdw.Weighted>
20.3951

> <Gold.Goldscore.Internal.HBond.Weighted>
0.0000

> <Gold.Goldscore.External.HBond.Weighted>
6.0000

> <Gold.Goldscore.Internal.Correction.Weighted>
-0.7650

> <Gold.Rescore>
     Score     S(PLP)   S(hbond)     S(cho)   S(metal)  DE(clash)   DE(tors)     intcor
     27.08     -24.50       1.44       0.00       0.00       1.29       0.22       ----

> <Gold.PLP.Fitness>
27.0771

> <Gold.PLP.PLP>
-24.4967

> <Gold.PLP.part.hbond>
-2.0000

> <Gold.PLP.part.metal>
0.0000

> <Gold.PLP.part.buried>
-1.6628

> <Gold.PLP.part.nonpolar>
-21.6829

> <Gold.PLP.part.repulsive>
0.1241

> <Gold.PLP.ligand.clash>
1.2899

> <Gold.PLP.ligand.torsion>
0.2248

> <Gold.PLP.Chemscore.Hbond>
1.4400

> <Gold.PLP.Chemscore.CHOScore>
0.0000

> <Gold.PLP.Chemscore.Metal>
0.0000

> <Gold.Chemscore.Hbonds>
donor molecule, donor type, donor heavy atom, donor atom, acceptor molecule, acceptor atom, score
      P1  H  1922  1925       L1     9  0.62

> <Gold.PLP.Chemscore.Internal.Correction>
   9.000000E+99

#       Name:                CT1002167954
#       Creating user name   hitesit
#       Creation time:       Sun Apr 16 22:51:15 2023


#       File generated by GOLD software.
#

@<TRIPOS>MOLECULE
CT1002167954|ligand_prepared|mol2|1|dock9
    29    30     1
SMALL
NO_CHARGES


@<TRIPOS>ATOM
      1 C1          14.9760  -0.1772  -7.9330 C.3            1 RES1               0.0000
      2 C2          15.8638  -0.1900  -6.6719 C.ar           1 RES1               0.0000
      3 C3          15.7382  -0.9554  -9.0015 C.2            1 RES1               0.0000
      4 C4          13.6503  -0.8121  -7.5279 C.2            1 RES1               0.0000
      5 C5          14.6807   1.2408  -8.4749 C.3            1 RES1               0.0000
      6 C6          16.7687  -1.2244  -6.4529 C.ar           1 RES1               0.0000
      7 C7          15.7913   0.8250  -5.7217 C.ar           1 RES1               0.0000
      8 N8          15.2905  -2.2055  -9.3126 N.am           1 RES1               0.0000
      9 O9          16.7401  -0.4949  -9.5346 O.2            1 RES1               0.0000
     10 N10         13.3082  -2.0074  -8.1039 N.am           1 RES1               0.0000
     11 O11         12.9066  -0.2962  -6.7026 O.2            1 RES1               0.0000
     12 C12         13.9847   1.2479  -9.8268 C.3            1 RES1               0.0000
     13 C13         17.5741  -1.2419  -5.3262 C.ar           1 RES1               0.0000
     14 C14         16.5974   0.8055  -4.5955 C.ar           1 RES1               0.0000
     15 C15         14.0825  -2.7481  -8.9549 C.2            1 RES1               0.0000
     16 C16         17.4894  -0.2269  -4.3971 C.ar           1 RES1               0.0000
     17 O17         13.7287  -3.8407  -9.3887 O.2            1 RES1               0.0000
     18 H18         14.0507   1.7715  -7.7505 H              1 RES1               0.0000
     19 H19         15.6266   1.7896  -8.5619 H              1 RES1               0.0000
     20 H20         16.8477  -2.0330  -7.1718 H              1 RES1               0.0000
     21 H21         15.0961   1.6467  -5.8564 H              1 RES1               0.0000
     22 H22         15.9114  -2.7911  -9.8620 H              1 RES1               0.0000
     23 H23         12.3914  -2.3796  -7.8775 H              1 RES1               0.0000
     24 H24         13.8011   2.2670 -10.1608 H              1 RES1               0.0000
     25 H25         14.5950   0.7501 -10.5775 H              1 RES1               0.0000
     26 H26         13.0283   0.7321  -9.7709 H              1 RES1               0.0000
     27 H27         18.2735  -2.0573  -5.1740 H              1 RES1               0.0000
     28 H28         16.5270   1.6061  -3.8666 H              1 RES1               0.0000
     29 H29         18.1207  -0.2406  -3.5148 H              1 RES1               0.0000
@<TRIPOS>BOND
    1    1    2 1     
    2    1    3 1     
    3    1    4 1     
    4    1    5 1     
    5    2    6 ar    
    6    2    7 ar    
    7    3    8 1     
    8    3    9 2     
    9    4   10 1     
   10    4   11 2     
   11    5   12 1     
   12    5   18 1     
   13    5   19 1     
   14    6   13 ar    
   15    6   20 1     
   16    7   14 ar    
   17    7   21 1     
   18    8   15 1     
   19    8   22 1     
   20   10   15 1     
   21   10   23 1     
   22   12   24 1     
   23   12   25 1     
   24   12   26 1     
   25   13   16 ar    
   26   13   27 1     
   27   14   16 ar    
   28   14   28 1     
   29   15   17 2     
   30   16   29 1     
@<TRIPOS>SUBSTRUCTURE
      1 RES1           1
@<TRIPOS>SET
DONOR_HYDROGENS      STATIC     ATOMS    <user>   **** ""
2 22 23
ATOM$RED        STATIC     ATOMS    COLORGROUP SYSTEM
2 22 23
@<TRIPOS>COMMENT
> <Gold.Version>
2022.3.0

> <Gold.Id.Protein>
unknown|3nx8_clean|pdb

> <Gold.Protein.RotatedTorsions>
[ 3590 3581 3580 3578 ] final  -43.71 input   60.00 | X-H torsion
[ 3510 3501 3500 3498 ] final  -64.72 input   59.99 | X-H torsion
[ 3778 3769 3768 3766 ] final  151.98 input   60.02 | X-H torsion
[ 2535 2524 2523 2522 ] final -167.83 input   60.02 | X-H torsion
[ 3063 3056 3054 3051 ] final    4.25 input   59.97 | X-H torsion
[ 5056 5047 5046 5044 ] final -145.47 input   59.99 | X-H torsion
[  549  544  542  539 ] final  -32.42 input   60.01 | X-H torsion
[ 1860 1855 1854 1851 ] final -119.49 input   60.02 | X-H torsion
[ 3113 3104 3103 3101 ] final   25.95 input   60.01 | X-H torsion
[  567  564  563  560 ] final  160.59 input   60.03 | X-H torsion

> <Gold.Protein.ActiveResidues>
 LEU49   GLY50   THR51   GLY52   SER53   PHE54   VAL57   LEU82   GLN84   HIS87  
 GLU127  MET128  PHE129  SER130  LEU132  ARG133  ARG134  ILE135  GLY136  ARG137 
 ARG165  ASP166  LEU167  LYS168  PRO169  GLU170  ASN171  LEU172  LEU173  THR183 
 ASP184  GLY186  PHE187  TPO197  LEU198  CYS199  GLY200  THR201  PRO202  GLU203 
 TYR204  LEU205  ILE209  ILE210  VAL226  LEU227  TYR229  GLU230  ALA233  GLY234 
 TYR235  PRO236  PRO237  PHE238  PHE239  ALA240  ASP241  GLN242  PRO243  ILE244 
 GLN245  ILE246  TYR247  ARG256  PHE257  PRO258  SER259  PHE327  ASP328  TYR330 

> <Gold.Protein.RotatedAtoms>
   20.8566   11.1774   -5.8695 H   0  0  0  0  0  0  0  0  0  0  0  0  # atno 549  bound_to 544 
   21.9416    9.2806    4.4469 H   0  0  0  0  0  0  0  0  0  0  0  0  # atno 567  bound_to 564 
   25.8314    5.2940  -12.8324 H   0  0  0  0  0  0  0  0  0  0  0  0  # atno 1860 bound_to 1855
   19.3275    5.0010   -1.2603 H   0  0  0  0  0  0  0  0  0  0  0  0  # atno 2535 bound_to 2524
   18.6047    3.6009   -1.7748 H   0  0  0  0  0  0  0  0  0  0  0  0  # atno 2536 bound_to 2524
   18.9530    3.8121   -0.1677 H   0  0  0  0  0  0  0  0  0  0  0  0  # atno 2537 bound_to 2524
   17.3841    2.6739    1.0971 H   0  0  0  0  0  0  0  0  0  0  0  0  # atno 3063 bound_to 3056
   20.8824   -3.8412   -4.2931 H   0  0  0  0  0  0  0  0  0  0  0  0  # atno 3113 bound_to 3104
   15.2405  -13.6637   -7.2184 H   0  0  0  0  0  0  0  0  0  0  0  0  # atno 3510 bound_to 3501
   16.2386  -14.2170  -11.3711 H   0  0  0  0  0  0  0  0  0  0  0  0  # atno 3590 bound_to 3581
    8.6731    0.9202    2.5924 H   0  0  0  0  0  0  0  0  0  0  0  0  # atno 3778 bound_to 3769
   21.9666    9.8492   -9.5592 H   0  0  0  0  0  0  0  0  0  0  0  0  # atno 5056 bound_to 5047
   16.4835  -13.8668  -12.9411 LP  0  0  0  0  0  0  0  0  0  0  0  0  # atno 5350 bound_to 3581
   14.9721  -13.8466  -12.3232 LP  0  0  0  0  0  0  0  0  0  0  0  0  # atno 5351 bound_to 3581
   15.8391  -15.1697   -7.0673 LP  0  0  0  0  0  0  0  0  0  0  0  0  # atno 5358 bound_to 3501
   16.2913  -14.2307   -8.3244 LP  0  0  0  0  0  0  0  0  0  0  0  0  # atno 5359 bound_to 3501
   10.0547    0.2765    2.0217 LP  0  0  0  0  0  0  0  0  0  0  0  0  # atno 5412 bound_to 3769
    9.8311    0.4414    3.6309 LP  0  0  0  0  0  0  0  0  0  0  0  0  # atno 5413 bound_to 3769
   17.5549    2.7066   -0.5209 LP  0  0  0  0  0  0  0  0  0  0  0  0  # atno 5416 bound_to 3056
   18.6854    1.9814    0.4079 LP  0  0  0  0  0  0  0  0  0  0  0  0  # atno 5417 bound_to 3056
   23.1882   10.1408   -8.5243 LP  0  0  0  0  0  0  0  0  0  0  0  0  # atno 5426 bound_to 5047
   23.5002    9.8649  -10.1033 LP  0  0  0  0  0  0  0  0  0  0  0  0  # atno 5427 bound_to 5047
   19.5449   12.1400   -5.9031 LP  0  0  0  0  0  0  0  0  0  0  0  0  # atno 5430 bound_to 544 
   19.7157   11.0289   -4.7185 LP  0  0  0  0  0  0  0  0  0  0  0  0  # atno 5431 bound_to 544 
   26.9034    4.8274  -11.7003 LP  0  0  0  0  0  0  0  0  0  0  0  0  # atno 5436 bound_to 1855
   25.3658    4.2802  -11.6476 LP  0  0  0  0  0  0  0  0  0  0  0  0  # atno 5437 bound_to 1855
   20.6647   -5.4251   -3.9872 LP  0  0  0  0  0  0  0  0  0  0  0  0  # atno 5458 bound_to 3104
   22.0062   -4.6640   -3.4506 LP  0  0  0  0  0  0  0  0  0  0  0  0  # atno 5459 bound_to 3104
   21.8132   10.2757    3.1652 LP  0  0  0  0  0  0  0  0  0  0  0  0  # atno 5468 bound_to 564 
   22.4410    8.7795    2.9810 LP  0  0  0  0  0  0  0  0  0  0  0  0  # atno 5469 bound_to 564 

> <Gold.Score>
     Fitness  S(hb_ext) S(vdw_ext)  S(hb_int)    S(int)      intcor
     22.58       2.85      14.96       0.00      -0.84      -0.76

> <Gold.Goldscore.Fitness>
22.5796

> <Gold.Goldscore.Internal.Vdw>
-1.1174

> <Gold.Goldscore.Internal.Torsion>
-0.4883

> <Gold.Goldscore.External.Vdw>
14.9583

> <Gold.Goldscore.Internal.HBond>
0.0000

> <Gold.Goldscore.External.HBond>
2.8526

> <Gold.Goldscore.Internal.Correction>
-0.7650

> <Gold.Goldscore.Hbonds>
donor molecule, donor type, donor heavy atom, donor atom, acceptor molecule, acceptor atom, score
      P1  H  1922  1925       L1     9  0.48

> <Gold.Goldscore.Internal.Vdw.Weighted>
-1.1174

> <Gold.Goldscore.Internal.Torsion.Weighted>
-0.4883

> <Gold.Goldscore.External.Vdw.Weighted>
20.5677

> <Gold.Goldscore.Internal.HBond.Weighted>
0.0000

> <Gold.Goldscore.External.HBond.Weighted>
2.8526

> <Gold.Goldscore.Internal.Correction.Weighted>
-0.7650

> <Gold.Rescore>
     Score     S(PLP)   S(hbond)     S(cho)   S(metal)  DE(clash)   DE(tors)     intcor
     25.41     -23.42       1.34       0.00       0.00       0.00       1.02       ----

> <Gold.PLP.Fitness>
25.4083

> <Gold.PLP.PLP>
-23.4199

> <Gold.PLP.part.hbond>
-1.8504

> <Gold.PLP.part.metal>
0.0000

> <Gold.PLP.part.buried>
-3.6508

> <Gold.PLP.part.nonpolar>
-18.7627

> <Gold.PLP.part.repulsive>
0.1368

> <Gold.PLP.ligand.clash>
0.0000

> <Gold.PLP.ligand.torsion>
1.0190

> <Gold.PLP.Chemscore.Hbond>
1.3422

> <Gold.PLP.Chemscore.CHOScore>
0.0000

> <Gold.PLP.Chemscore.Metal>
0.0000

> <Gold.Chemscore.Hbonds>
donor molecule, donor type, donor heavy atom, donor atom, acceptor molecule, acceptor atom, score
      P1  H  1922  1925       L1     9  0.94

> <Gold.PLP.Chemscore.Internal.Correction>
   9.000000E+99

