#       Name:                CT1002167954
#       Creating user name   hitesit
#       Creation time:       Sun Apr 16 22:51:11 2023


#       File generated by GOLD software.
#

@<TRIPOS>MOLECULE
CT1002167954|ligand_prepared|mol2|1|dock4
    29    30     1
SMALL
NO_CHARGES


@<TRIPOS>ATOM
      1 C1          15.0889  -2.1106  -8.1033 C.3            1 RES1               0.0000
      2 C2          15.9856  -1.7671  -6.8964 C.ar           1 RES1               0.0000
      3 C3          13.7348  -2.5171  -7.5291 C.2            1 RES1               0.0000
      4 C4          15.0456  -0.8588  -8.9726 C.2            1 RES1               0.0000
      5 C5          15.6249  -3.2749  -8.9686 C.3            1 RES1               0.0000
      6 C6          15.6143  -0.7707  -5.9986 C.ar           1 RES1               0.0000
      7 C7          17.1835  -2.4385  -6.6665 C.ar           1 RES1               0.0000
      8 N8          12.7039  -1.6333  -7.6558 N.am           1 RES1               0.0000
      9 O9          13.5839  -3.5799  -6.9393 O.2            1 RES1               0.0000
     10 N10         13.8454  -0.2110  -9.1062 N.am           1 RES1               0.0000
     11 O11         16.0434  -0.4181  -9.5297 O.2            1 RES1               0.0000
     12 C12         14.7263  -3.6305 -10.1426 C.3            1 RES1               0.0000
     13 C13         16.4102  -0.4587  -4.9089 C.ar           1 RES1               0.0000
     14 C14         17.9780  -2.1248  -5.5762 C.ar           1 RES1               0.0000
     15 C15         12.6793  -0.5241  -8.4624 C.2            1 RES1               0.0000
     16 C16         17.5922  -1.1358  -4.6966 C.ar           1 RES1               0.0000
     17 O17         11.6544   0.1391  -8.5916 O.2            1 RES1               0.0000
     18 H18         16.6159  -3.0025  -9.3523 H              1 RES1               0.0000
     19 H19         15.7433  -4.1614  -8.3335 H              1 RES1               0.0000
     20 H20         14.6888  -0.2254  -6.1507 H              1 RES1               0.0000
     21 H21         17.5075  -3.2196  -7.3459 H              1 RES1               0.0000
     22 H22         11.8744  -1.8139  -7.0992 H              1 RES1               0.0000
     23 H23         13.8188   0.5776  -9.7447 H              1 RES1               0.0000
     24 H24         15.1486  -4.4528 -10.7164 H              1 RES1               0.0000
     25 H25         13.7396  -3.9306  -9.7961 H              1 RES1               0.0000
     26 H26         14.6069  -2.7785 -10.8088 H              1 RES1               0.0000
     27 H27         16.1027   0.3215  -4.2204 H              1 RES1               0.0000
     28 H28         18.9078  -2.6599  -5.4134 H              1 RES1               0.0000
     29 H29         18.2153  -0.8915  -3.8427 H              1 RES1               0.0000
@<TRIPOS>BOND
    1    1    2 1     
    2    1    3 1     
    3    1    4 1     
    4    1    5 1     
    5    2    6 ar    
    6    2    7 ar    
    7    3    8 1     
    8    3    9 2     
    9    4   10 1     
   10    4   11 2     
   11    5   12 1     
   12    5   18 1     
   13    5   19 1     
   14    6   13 ar    
   15    6   20 1     
   16    7   14 ar    
   17    7   21 1     
   18    8   15 1     
   19    8   22 1     
   20   10   15 1     
   21   10   23 1     
   22   12   24 1     
   23   12   25 1     
   24   12   26 1     
   25   13   16 ar    
   26   13   27 1     
   27   14   16 ar    
   28   14   28 1     
   29   15   17 2     
   30   16   29 1     
@<TRIPOS>SUBSTRUCTURE
      1 RES1           1
@<TRIPOS>SET
DONOR_HYDROGENS      STATIC     ATOMS    <user>   **** ""
2 22 23
ATOM$RED        STATIC     ATOMS    COLORGROUP SYSTEM
2 22 23
@<TRIPOS>COMMENT
> <Gold.Version>
2022.3.0

> <Gold.Id.Protein>
unknown|3nx8_clean|pdb

> <Gold.Protein.RotatedTorsions>
[ 3590 3581 3580 3578 ] final   90.62 input   60.00 | X-H torsion
[ 3510 3501 3500 3498 ] final  149.91 input   59.99 | X-H torsion
[ 3778 3769 3768 3766 ] final  129.84 input   60.02 | X-H torsion
[ 2535 2524 2523 2522 ] final  130.41 input   60.02 | X-H torsion
[ 3063 3056 3054 3051 ] final -157.36 input   59.97 | X-H torsion
[ 5056 5047 5046 5044 ] final  -33.96 input   59.99 | X-H torsion
[  549  544  542  539 ] final  145.82 input   60.01 | X-H torsion
[ 1860 1855 1854 1851 ] final   80.14 input   60.02 | X-H torsion
[ 3113 3104 3103 3101 ] final  -34.91 input   60.01 | X-H torsion
[  567  564  563  560 ] final -159.38 input   60.03 | X-H torsion

> <Gold.Protein.ActiveResidues>
 LEU49   GLY50   THR51   GLY52   SER53   PHE54   VAL57   LEU82   GLN84   HIS87  
 GLU127  MET128  PHE129  SER130  LEU132  ARG133  ARG134  ILE135  GLY136  ARG137 
 ARG165  ASP166  LEU167  LYS168  PRO169  GLU170  ASN171  LEU172  LEU173  THR183 
 ASP184  GLY186  PHE187  TPO197  LEU198  CYS199  GLY200  THR201  PRO202  GLU203 
 TYR204  LEU205  ILE209  ILE210  VAL226  LEU227  TYR229  GLU230  ALA233  GLY234 
 TYR235  PRO236  PRO237  PHE238  PHE239  ALA240  ASP241  GLN242  PRO243  ILE244 
 GLN245  ILE246  TYR247  ARG256  PHE257  PRO258  SER259  PHE327  ASP328  TYR330 

> <Gold.Protein.RotatedAtoms>
   19.2300   11.7007   -5.1043 H   0  0  0  0  0  0  0  0  0  0  0  0  # atno 549  bound_to 544 
   22.2017    8.7671    4.1649 H   0  0  0  0  0  0  0  0  0  0  0  0  # atno 567  bound_to 564 
   26.5201    4.4408  -11.3481 H   0  0  0  0  0  0  0  0  0  0  0  0  # atno 1860 bound_to 1855
   19.3119    4.6537   -0.3412 H   0  0  0  0  0  0  0  0  0  0  0  0  # atno 2535 bound_to 2524
   18.9837    4.4888   -1.9575 H   0  0  0  0  0  0  0  0  0  0  0  0  # atno 2536 bound_to 2524
   18.5898    3.2716   -0.9030 H   0  0  0  0  0  0  0  0  0  0  0  0  # atno 2537 bound_to 2524
   18.1324    2.3749   -0.5664 H   0  0  0  0  0  0  0  0  0  0  0  0  # atno 3063 bound_to 3056
   20.3646   -4.6330   -4.3654 H   0  0  0  0  0  0  0  0  0  0  0  0  # atno 3113 bound_to 3104
   16.0958  -15.2254   -7.3858 H   0  0  0  0  0  0  0  0  0  0  0  0  # atno 3510 bound_to 3501
   15.0422  -13.7998  -12.5420 H   0  0  0  0  0  0  0  0  0  0  0  0  # atno 3590 bound_to 3581
    8.7836    0.8569    2.2561 H   0  0  0  0  0  0  0  0  0  0  0  0  # atno 3778 bound_to 3769
   23.3851    9.8441  -10.1789 H   0  0  0  0  0  0  0  0  0  0  0  0  # atno 5056 bound_to 5047
   16.0143  -14.2100  -11.3033 LP  0  0  0  0  0  0  0  0  0  0  0  0  # atno 5350 bound_to 3581
   16.6468  -13.9238  -12.7813 LP  0  0  0  0  0  0  0  0  0  0  0  0  # atno 5351 bound_to 3581
   16.0934  -13.8692   -8.2857 LP  0  0  0  0  0  0  0  0  0  0  0  0  # atno 5358 bound_to 3501
   15.1763  -13.9594   -6.9376 LP  0  0  0  0  0  0  0  0  0  0  0  0  # atno 5359 bound_to 3501
   10.2681    0.1913    2.3014 LP  0  0  0  0  0  0  0  0  0  0  0  0  # atno 5412 bound_to 3769
    9.5064    0.5904    3.6897 LP  0  0  0  0  0  0  0  0  0  0  0  0  # atno 5413 bound_to 3769
   18.4142    2.0897    1.0107 LP  0  0  0  0  0  0  0  0  0  0  0  0  # atno 5416 bound_to 3056
   17.0725    2.8994    0.5515 LP  0  0  0  0  0  0  0  0  0  0  0  0  # atno 5417 bound_to 3056
   21.9440    9.8705   -9.4234 LP  0  0  0  0  0  0  0  0  0  0  0  0  # atno 5426 bound_to 5047
   23.3162   10.1403   -8.5802 LP  0  0  0  0  0  0  0  0  0  0  0  0  # atno 5427 bound_to 5047
   20.5568   10.7584   -5.1142 LP  0  0  0  0  0  0  0  0  0  0  0  0  # atno 5430 bound_to 544 
   20.3422   11.8835   -6.2781 LP  0  0  0  0  0  0  0  0  0  0  0  0  # atno 5431 bound_to 544 
   25.1230    4.5810  -12.1709 LP  0  0  0  0  0  0  0  0  0  0  0  0  # atno 5436 bound_to 1855
   26.4529    5.3857  -12.6714 LP  0  0  0  0  0  0  0  0  0  0  0  0  # atno 5437 bound_to 1855
   21.4983   -5.4405   -3.5215 LP  0  0  0  0  0  0  0  0  0  0  0  0  # atno 5458 bound_to 3104
   21.6938   -3.8516   -3.8436 LP  0  0  0  0  0  0  0  0  0  0  0  0  # atno 5459 bound_to 3104
   21.6873   10.2671    3.7980 LP  0  0  0  0  0  0  0  0  0  0  0  0  # atno 5468 bound_to 564 
   22.3049    9.3049    2.6321 LP  0  0  0  0  0  0  0  0  0  0  0  0  # atno 5469 bound_to 564 

> <Gold.Score>
     Fitness  S(hb_ext) S(vdw_ext)  S(hb_int)    S(int)      intcor
     30.72       4.71      18.95       0.00      -0.04      -0.77

> <Gold.Goldscore.Fitness>
30.7245

> <Gold.Goldscore.Internal.Vdw>
-0.4313

> <Gold.Goldscore.Internal.Torsion>
-0.3696

> <Gold.Goldscore.External.Vdw>
18.9475

> <Gold.Goldscore.Internal.HBond>
0.0000

> <Gold.Goldscore.External.HBond>
4.7072

> <Gold.Goldscore.Internal.Correction>
-0.7653

> <Gold.Goldscore.Hbonds>
donor molecule, donor type, donor heavy atom, donor atom, acceptor molecule, acceptor atom, score
      P1  H  1922  1925       L1    11  0.78

> <Gold.Goldscore.Internal.Vdw.Weighted>
-0.4313

> <Gold.Goldscore.Internal.Torsion.Weighted>
-0.3696

> <Gold.Goldscore.External.Vdw.Weighted>
26.0528

> <Gold.Goldscore.Internal.HBond.Weighted>
0.0000

> <Gold.Goldscore.External.HBond.Weighted>
4.7072

> <Gold.Goldscore.Internal.Correction.Weighted>
-0.7653

> <Gold.Rescore>
     Score     S(PLP)   S(hbond)     S(cho)   S(metal)  DE(clash)   DE(tors)     intcor
     27.73     -23.52       1.53       0.00       0.00       0.00       0.18       ----

> <Gold.PLP.Fitness>
27.7296

> <Gold.PLP.PLP>
-23.5241

> <Gold.PLP.part.hbond>
-2.0000

> <Gold.PLP.part.metal>
0.0000

> <Gold.PLP.part.buried>
-2.3579

> <Gold.PLP.part.nonpolar>
-20.0770

> <Gold.PLP.part.repulsive>
0.2507

> <Gold.PLP.ligand.clash>
0.0000

> <Gold.PLP.ligand.torsion>
0.1848

> <Gold.PLP.Chemscore.Hbond>
1.5250

> <Gold.PLP.Chemscore.CHOScore>
0.0000

> <Gold.PLP.Chemscore.Metal>
0.0000

> <Gold.Chemscore.Hbonds>
donor molecule, donor type, donor heavy atom, donor atom, acceptor molecule, acceptor atom, score
      P1  H  1922  1925       L1    11  0.73

> <Gold.PLP.Chemscore.Internal.Correction>
   9.000000E+99

