#       Name:                CT1002167954
#       Creating user name   hitesit
#       Creation time:       Sun Apr 16 22:51:13 2023


#       File generated by GOLD software.
#

@<TRIPOS>MOLECULE
CT1002167954|ligand_prepared|mol2|1|dock7
    29    30     1
SMALL
NO_CHARGES


@<TRIPOS>ATOM
      1 C1          16.5196   2.3935  -5.3909 C.3            1 RES1               0.0000
      2 C2          16.9711   0.9200  -5.3313 C.ar           1 RES1               0.0000
      3 C3          17.4719   3.1703  -4.4865 C.2            1 RES1               0.0000
      4 C4          16.5848   2.8006  -6.8588 C.2            1 RES1               0.0000
      5 C5          15.0731   2.6244  -4.8949 C.3            1 RES1               0.0000
      6 C6          16.3094  -0.0544  -6.0725 C.ar           1 RES1               0.0000
      7 C7          18.0472   0.5209  -4.5430 C.ar           1 RES1               0.0000
      8 N8          18.4099   3.9586  -5.0853 N.am           1 RES1               0.0000
      9 O9          17.4261   3.0622  -3.2673 O.2            1 RES1               0.0000
     10 N10         17.4993   3.7548  -7.2205 N.am           1 RES1               0.0000
     11 O11         15.8639   2.2916  -7.7082 O.2            1 RES1               0.0000
     12 C12         14.6599   4.0875  -4.8694 C.3            1 RES1               0.0000
     13 C13         16.7108  -1.3793  -6.0298 C.ar           1 RES1               0.0000
     14 C14         18.4468  -0.8047  -4.5015 C.ar           1 RES1               0.0000
     15 C15         18.4359   4.3301  -6.4055 C.2            1 RES1               0.0000
     16 C16         17.7799  -1.7553  -5.2447 C.ar           1 RES1               0.0000
     17 O17         19.2608   5.1412  -6.8163 O.2            1 RES1               0.0000
     18 H18         14.3840   2.0742  -5.5474 H              1 RES1               0.0000
     19 H19         14.9770   2.2127  -3.8826 H              1 RES1               0.0000
     20 H20         15.4644   0.2222  -6.6942 H              1 RES1               0.0000
     21 H21         18.5860   1.2513  -3.9492 H              1 RES1               0.0000
     22 H22         19.1618   4.3037  -4.4971 H              1 RES1               0.0000
     23 H23         17.4800   4.0652  -8.1867 H              1 RES1               0.0000
     24 H24         13.6371   4.1933  -4.5138 H              1 RES1               0.0000
     25 H25         15.3088   4.6602  -4.2100 H              1 RES1               0.0000
     26 H26         14.7193   4.5225  -5.8649 H              1 RES1               0.0000
     27 H27         16.1818  -2.1238  -6.6155 H              1 RES1               0.0000
     28 H28         19.2884  -1.0961  -3.8818 H              1 RES1               0.0000
     29 H29         18.0944  -2.7932  -5.2117 H              1 RES1               0.0000
@<TRIPOS>BOND
    1    1    2 1     
    2    1    3 1     
    3    1    4 1     
    4    1    5 1     
    5    2    6 ar    
    6    2    7 ar    
    7    3    8 1     
    8    3    9 2     
    9    4   10 1     
   10    4   11 2     
   11    5   12 1     
   12    5   18 1     
   13    5   19 1     
   14    6   13 ar    
   15    6   20 1     
   16    7   14 ar    
   17    7   21 1     
   18    8   15 1     
   19    8   22 1     
   20   10   15 1     
   21   10   23 1     
   22   12   24 1     
   23   12   25 1     
   24   12   26 1     
   25   13   16 ar    
   26   13   27 1     
   27   14   16 ar    
   28   14   28 1     
   29   15   17 2     
   30   16   29 1     
@<TRIPOS>SUBSTRUCTURE
      1 RES1           1
@<TRIPOS>SET
DONOR_HYDROGENS      STATIC     ATOMS    <user>   **** ""
2 22 23
ATOM$RED        STATIC     ATOMS    COLORGROUP SYSTEM
2 22 23
@<TRIPOS>COMMENT
> <Gold.Version>
2022.3.0

> <Gold.Id.Protein>
unknown|3nx8_clean|pdb

> <Gold.Protein.RotatedTorsions>
[ 3590 3581 3580 3578 ] final  165.82 input   60.00 | X-H torsion
[ 3510 3501 3500 3498 ] final  113.55 input   59.99 | X-H torsion
[ 3778 3769 3768 3766 ] final    5.56 input   60.02 | X-H torsion
[ 2535 2524 2523 2522 ] final  -61.21 input   60.02 | X-H torsion
[ 3063 3056 3054 3051 ] final  -27.90 input   59.97 | X-H torsion
[ 5056 5047 5046 5044 ] final  -96.21 input   59.99 | X-H torsion
[  549  544  542  539 ] final  141.92 input   60.01 | X-H torsion
[ 1860 1855 1854 1851 ] final -102.43 input   60.02 | X-H torsion
[ 3113 3104 3103 3101 ] final   10.51 input   60.01 | X-H torsion
[  567  564  563  560 ] final   21.83 input   60.03 | X-H torsion

> <Gold.Protein.ActiveResidues>
 LEU49   GLY50   THR51   GLY52   SER53   PHE54   VAL57   LEU82   GLN84   HIS87  
 GLU127  MET128  PHE129  SER130  LEU132  ARG133  ARG134  ILE135  GLY136  ARG137 
 ARG165  ASP166  LEU167  LYS168  PRO169  GLU170  ASN171  LEU172  LEU173  THR183 
 ASP184  GLY186  PHE187  TPO197  LEU198  CYS199  GLY200  THR201  PRO202  GLU203 
 TYR204  LEU205  ILE209  ILE210  VAL226  LEU227  TYR229  GLU230  ALA233  GLY234 
 TYR235  PRO236  PRO237  PHE238  PHE239  ALA240  ASP241  GLN242  PRO243  ILE244 
 GLN245  ILE246  TYR247  ARG256  PHE257  PRO258  SER259  PHE327  ASP328  TYR330 

> <Gold.Protein.RotatedAtoms>
   19.2402   11.6562   -5.0598 H   0  0  0  0  0  0  0  0  0  0  0  0  # atno 549  bound_to 544 
   21.9180   10.1332    2.9150 H   0  0  0  0  0  0  0  0  0  0  0  0  # atno 567  bound_to 564 
   25.5817    5.1803  -12.7897 H   0  0  0  0  0  0  0  0  0  0  0  0  # atno 1860 bound_to 1855
   18.6639    3.7739   -1.9012 H   0  0  0  0  0  0  0  0  0  0  0  0  # atno 2535 bound_to 2524
   18.8564    3.6331   -0.2610 H   0  0  0  0  0  0  0  0  0  0  0  0  # atno 2536 bound_to 2524
   19.3641    5.0054   -1.0406 H   0  0  0  0  0  0  0  0  0  0  0  0  # atno 2537 bound_to 2524
   17.1141    2.8613    0.6960 H   0  0  0  0  0  0  0  0  0  0  0  0  # atno 3063 bound_to 3056
   20.6884   -3.9864   -4.3613 H   0  0  0  0  0  0  0  0  0  0  0  0  # atno 3113 bound_to 3104
   16.3482  -15.0247   -7.8733 H   0  0  0  0  0  0  0  0  0  0  0  0  # atno 3510 bound_to 3501
   16.0306  -13.7725  -13.1134 H   0  0  0  0  0  0  0  0  0  0  0  0  # atno 3590 bound_to 3581
   10.2911    0.1807    2.3673 H   0  0  0  0  0  0  0  0  0  0  0  0  # atno 3778 bound_to 3769
   22.4204    9.7654  -10.1885 H   0  0  0  0  0  0  0  0  0  0  0  0  # atno 5056 bound_to 5047
   15.0291  -13.9683  -11.8460 LP  0  0  0  0  0  0  0  0  0  0  0  0  # atno 5350 bound_to 3581
   16.6361  -14.1929  -11.6628 LP  0  0  0  0  0  0  0  0  0  0  0  0  # atno 5351 bound_to 3581
   15.7193  -13.5278   -7.9862 LP  0  0  0  0  0  0  0  0  0  0  0  0  # atno 5358 bound_to 3501
   15.2963  -14.5027   -6.7464 LP  0  0  0  0  0  0  0  0  0  0  0  0  # atno 5359 bound_to 3501
    9.4423    0.6191    3.6849 LP  0  0  0  0  0  0  0  0  0  0  0  0  # atno 5412 bound_to 3769
    8.8147    0.8433    2.1941 LP  0  0  0  0  0  0  0  0  0  0  0  0  # atno 5413 bound_to 3769
   18.0044    2.4542   -0.6039 LP  0  0  0  0  0  0  0  0  0  0  0  0  # atno 5416 bound_to 3056
   18.5078    2.0450    0.8948 LP  0  0  0  0  0  0  0  0  0  0  0  0  # atno 5417 bound_to 3056
   22.4087   10.0663   -8.5893 LP  0  0  0  0  0  0  0  0  0  0  0  0  # atno 5426 bound_to 5047
   23.8229   10.0236   -9.4046 LP  0  0  0  0  0  0  0  0  0  0  0  0  # atno 5427 bound_to 5047
   20.5995   10.7671   -5.1612 LP  0  0  0  0  0  0  0  0  0  0  0  0  # atno 5430 bound_to 544 
   20.2892   11.9195   -6.2759 LP  0  0  0  0  0  0  0  0  0  0  0  0  # atno 5431 bound_to 544 
   26.9436    4.9989  -11.9175 LP  0  0  0  0  0  0  0  0  0  0  0  0  # atno 5436 bound_to 1855
   25.5769    4.2233  -11.4735 LP  0  0  0  0  0  0  0  0  0  0  0  0  # atno 5437 bound_to 1855
   20.8563   -5.5240   -3.8543 LP  0  0  0  0  0  0  0  0  0  0  0  0  # atno 5458 bound_to 3104
   22.0098   -4.4190   -3.5150 LP  0  0  0  0  0  0  0  0  0  0  0  0  # atno 5459 bound_to 3104
   22.4451    8.6300    3.2496 LP  0  0  0  0  0  0  0  0  0  0  0  0  # atno 5468 bound_to 564 
   21.8328    9.5670    4.4386 LP  0  0  0  0  0  0  0  0  0  0  0  0  # atno 5469 bound_to 564 

> <Gold.Score>
     Fitness  S(hb_ext) S(vdw_ext)  S(hb_int)    S(int)      intcor
     26.89       6.00      17.65       0.00      -3.38      -0.77

> <Gold.Goldscore.Fitness>
26.8881

> <Gold.Goldscore.Internal.Vdw>
-3.7537

> <Gold.Goldscore.Internal.Torsion>
-0.3912

> <Gold.Goldscore.External.Vdw>
17.6492

> <Gold.Goldscore.Internal.HBond>
0.0000

> <Gold.Goldscore.External.HBond>
6.0000

> <Gold.Goldscore.Internal.Correction>
-0.7653

> <Gold.Goldscore.Hbonds>
donor molecule, donor type, donor heavy atom, donor atom, acceptor molecule, acceptor atom, score
      P1  H  2524  2535       L1     9  1.00

> <Gold.Goldscore.Internal.Vdw.Weighted>
-3.7537

> <Gold.Goldscore.Internal.Torsion.Weighted>
-0.3912

> <Gold.Goldscore.External.Vdw.Weighted>
24.2677

> <Gold.Goldscore.Internal.HBond.Weighted>
0.0000

> <Gold.Goldscore.External.HBond.Weighted>
6.0000

> <Gold.Goldscore.Internal.Correction.Weighted>
-0.7653

> <Gold.Rescore>
     Score     S(PLP)   S(hbond)     S(cho)   S(metal)  DE(clash)   DE(tors)     intcor
     21.39     -20.18       1.00       0.00       0.00       0.01       0.89       ----

> <Gold.PLP.Fitness>
21.3899

> <Gold.PLP.PLP>
-20.1816

> <Gold.PLP.part.hbond>
-2.3262

> <Gold.PLP.part.metal>
0.0000

> <Gold.PLP.part.buried>
1.9412

> <Gold.PLP.part.nonpolar>
-21.2075

> <Gold.PLP.part.repulsive>
0.1984

> <Gold.PLP.ligand.clash>
0.0125

> <Gold.PLP.ligand.torsion>
0.8896

> <Gold.PLP.Chemscore.Hbond>
1.0000

> <Gold.PLP.Chemscore.CHOScore>
0.0000

> <Gold.PLP.Chemscore.Metal>
0.0000

> <Gold.Chemscore.Hbonds>
donor molecule, donor type, donor heavy atom, donor atom, acceptor molecule, acceptor atom, score
      P1  H  2524  2535       L1     9  1.00

> <Gold.PLP.Chemscore.Internal.Correction>
   9.000000E+99

