#       Name:                CT1002167954
#       Creating user name   hitesit
#       Creation time:       Sun Apr 16 22:51:13 2023


#       File generated by GOLD software.
#

@<TRIPOS>MOLECULE
CT1002167954|ligand_prepared|mol2|1|dock6
    29    30     1
SMALL
NO_CHARGES


@<TRIPOS>ATOM
      1 C1          25.8921   8.9756  -3.7391 C.3            1 RES1               0.0000
      2 C2          24.5894   8.3892  -4.3202 C.ar           1 RES1               0.0000
      3 C3          25.6198  10.4552  -3.4845 C.2            1 RES1               0.0000
      4 C4          26.1963   8.1731  -2.4789 C.2            1 RES1               0.0000
      5 C5          27.1084   8.8561  -4.6868 C.3            1 RES1               0.0000
      6 C6          24.2159   8.6569  -5.6339 C.ar           1 RES1               0.0000
      7 C7          23.7536   7.5781  -3.5571 C.ar           1 RES1               0.0000
      8 N8          25.4569  10.8541  -2.1905 N.am           1 RES1               0.0000
      9 O9          25.5102  11.2529  -4.4075 O.2            1 RES1               0.0000
     10 N10         26.1447   8.8248  -1.2746 N.am           1 RES1               0.0000
     11 O11         26.4638   6.9784  -2.5165 O.2            1 RES1               0.0000
     12 C12         28.4224   9.2885  -4.0555 C.3            1 RES1               0.0000
     13 C13         23.0508   8.1304  -6.1664 C.ar           1 RES1               0.0000
     14 C14         22.5887   7.0529  -4.0915 C.ar           1 RES1               0.0000
     15 C15         25.7588  10.1216  -1.0707 C.2            1 RES1               0.0000
     16 C16         22.2367   7.3278  -5.3958 C.ar           1 RES1               0.0000
     17 O17         25.6851  10.6211   0.0484 O.2            1 RES1               0.0000
     18 H18         27.2001   7.8129  -5.0137 H              1 RES1               0.0000
     19 H19         26.9247   9.4712  -5.5763 H              1 RES1               0.0000
     20 H20         24.8427   9.2884  -6.2546 H              1 RES1               0.0000
     21 H21         24.0100   7.3493  -2.5283 H              1 RES1               0.0000
     22 H22         25.0754  11.7829  -2.0418 H              1 RES1               0.0000
     23 H23         26.4196   8.2941  -0.4542 H              1 RES1               0.0000
     24 H24         29.2426   9.1849  -4.7627 H              1 RES1               0.0000
     25 H25         28.3753  10.3292  -3.7414 H              1 RES1               0.0000
     26 H26         28.6491   8.6807  -3.1820 H              1 RES1               0.0000
     27 H27         22.7775   8.3509  -7.1930 H              1 RES1               0.0000
     28 H28         21.9507   6.4222  -3.4813 H              1 RES1               0.0000
     29 H29         21.3241   6.9152  -5.8133 H              1 RES1               0.0000
@<TRIPOS>BOND
    1    1    2 1     
    2    1    3 1     
    3    1    4 1     
    4    1    5 1     
    5    2    6 ar    
    6    2    7 ar    
    7    3    8 1     
    8    3    9 2     
    9    4   10 1     
   10    4   11 2     
   11    5   12 1     
   12    5   18 1     
   13    5   19 1     
   14    6   13 ar    
   15    6   20 1     
   16    7   14 ar    
   17    7   21 1     
   18    8   15 1     
   19    8   22 1     
   20   10   15 1     
   21   10   23 1     
   22   12   24 1     
   23   12   25 1     
   24   12   26 1     
   25   13   16 ar    
   26   13   27 1     
   27   14   16 ar    
   28   14   28 1     
   29   15   17 2     
   30   16   29 1     
@<TRIPOS>SUBSTRUCTURE
      1 RES1           1
@<TRIPOS>SET
DONOR_HYDROGENS      STATIC     ATOMS    <user>   **** ""
2 22 23
ATOM$RED        STATIC     ATOMS    COLORGROUP SYSTEM
2 22 23
@<TRIPOS>COMMENT
> <Gold.Version>
2022.3.0

> <Gold.Id.Protein>
unknown|3nx8_clean|pdb

> <Gold.Protein.RotatedTorsions>
[ 3590 3581 3580 3578 ] final   78.11 input   60.00 | X-H torsion
[ 3510 3501 3500 3498 ] final  -74.47 input   59.99 | X-H torsion
[ 3778 3769 3768 3766 ] final  -85.48 input   60.02 | X-H torsion
[ 2535 2524 2523 2522 ] final   63.69 input   60.02 | X-H torsion
[ 3063 3056 3054 3051 ] final  -23.77 input   59.97 | X-H torsion
[ 5056 5047 5046 5044 ] final  -72.30 input   59.99 | X-H torsion
[  549  544  542  539 ] final    8.59 input   60.01 | X-H torsion
[ 1860 1855 1854 1851 ] final   21.02 input   60.02 | X-H torsion
[ 3113 3104 3103 3101 ] final    2.34 input   60.01 | X-H torsion
[  567  564  563  560 ] final  -58.50 input   60.03 | X-H torsion

> <Gold.Protein.ActiveResidues>
 LEU49   GLY50   THR51   GLY52   SER53   PHE54   VAL57   LEU82   GLN84   HIS87  
 GLU127  MET128  PHE129  SER130  LEU132  ARG133  ARG134  ILE135  GLY136  ARG137 
 ARG165  ASP166  LEU167  LYS168  PRO169  GLU170  ASN171  LEU172  LEU173  THR183 
 ASP184  GLY186  PHE187  TPO197  LEU198  CYS199  GLY200  THR201  PRO202  GLU203 
 TYR204  LEU205  ILE209  ILE210  VAL226  LEU227  TYR229  GLU230  ALA233  GLY234 
 TYR235  PRO236  PRO237  PHE238  PHE239  ALA240  ASP241  GLN242  PRO243  ILE244 
 GLN245  ILE246  TYR247  ARG256  PHE257  PRO258  SER259  PHE327  ASP328  TYR330 

> <Gold.Protein.RotatedAtoms>
   20.7209   10.8261   -5.3325 H   0  0  0  0  0  0  0  0  0  0  0  0  # atno 549  bound_to 544 
   22.3854    9.0303    2.7567 H   0  0  0  0  0  0  0  0  0  0  0  0  # atno 567  bound_to 564 
   25.6287    4.2198  -11.4497 H   0  0  0  0  0  0  0  0  0  0  0  0  # atno 1860 bound_to 1855
   18.8912    3.6962   -0.2210 H   0  0  0  0  0  0  0  0  0  0  0  0  # atno 2535 bound_to 2524
   19.3535    5.0093   -1.1207 H   0  0  0  0  0  0  0  0  0  0  0  0  # atno 2536 bound_to 2524
   18.6403    3.7076   -1.8593 H   0  0  0  0  0  0  0  0  0  0  0  0  # atno 2537 bound_to 2524
   17.1369    2.8434    0.7570 H   0  0  0  0  0  0  0  0  0  0  0  0  # atno 3063 bound_to 3056
   20.5994   -4.0831   -4.3843 H   0  0  0  0  0  0  0  0  0  0  0  0  # atno 3113 bound_to 3104
   15.2045  -13.7648   -7.1009 H   0  0  0  0  0  0  0  0  0  0  0  0  # atno 3510 bound_to 3501
   14.9840  -13.8395  -12.3505 H   0  0  0  0  0  0  0  0  0  0  0  0  # atno 3590 bound_to 3581
    9.8630    0.4234    3.6097 H   0  0  0  0  0  0  0  0  0  0  0  0  # atno 3778 bound_to 3769
   22.7887    9.7716  -10.3100 H   0  0  0  0  0  0  0  0  0  0  0  0  # atno 5056 bound_to 5047
   16.2131  -14.2200  -11.3544 LP  0  0  0  0  0  0  0  0  0  0  0  0  # atno 5350 bound_to 3581
   16.5067  -13.8738  -12.9231 LP  0  0  0  0  0  0  0  0  0  0  0  0  # atno 5351 bound_to 3581
   15.9416  -15.2137   -7.1822 LP  0  0  0  0  0  0  0  0  0  0  0  0  # atno 5358 bound_to 3501
   16.2250  -14.0849   -8.3277 LP  0  0  0  0  0  0  0  0  0  0  0  0  # atno 5359 bound_to 3501
    8.6636    0.9289    2.6326 LP  0  0  0  0  0  0  0  0  0  0  0  0  # atno 5412 bound_to 3769
   10.0244    0.2892    1.9958 LP  0  0  0  0  0  0  0  0  0  0  0  0  # atno 5413 bound_to 3769
   17.9460    2.4883   -0.6096 LP  0  0  0  0  0  0  0  0  0  0  0  0  # atno 5416 bound_to 3056
   18.5433    2.0290    0.8391 LP  0  0  0  0  0  0  0  0  0  0  0  0  # atno 5417 bound_to 3056
   22.1205    9.9950   -8.8431 LP  0  0  0  0  0  0  0  0  0  0  0  0  # atno 5426 bound_to 5047
   23.7402   10.0887   -9.0285 LP  0  0  0  0  0  0  0  0  0  0  0  0  # atno 5427 bound_to 5047
   20.1006   12.0252   -6.2411 LP  0  0  0  0  0  0  0  0  0  0  0  0  # atno 5430 bound_to 544 
   19.2967   11.4975   -4.9213 LP  0  0  0  0  0  0  0  0  0  0  0  0  # atno 5431 bound_to 544 
   25.5313    5.1572  -12.7765 LP  0  0  0  0  0  0  0  0  0  0  0  0  # atno 5436 bound_to 1855
   26.9420    5.0319  -11.9636 LP  0  0  0  0  0  0  0  0  0  0  0  0  # atno 5437 bound_to 1855
   20.9683   -5.5508   -3.7851 LP  0  0  0  0  0  0  0  0  0  0  0  0  # atno 5458 bound_to 3104
   21.9875   -4.2948   -3.5610 LP  0  0  0  0  0  0  0  0  0  0  0  0  # atno 5459 bound_to 3104
   22.0803    8.9829    4.3548 LP  0  0  0  0  0  0  0  0  0  0  0  0  # atno 5468 bound_to 564 
   21.7271   10.3242    3.4928 LP  0  0  0  0  0  0  0  0  0  0  0  0  # atno 5469 bound_to 564 

> <Gold.Score>
     Fitness  S(hb_ext) S(vdw_ext)  S(hb_int)    S(int)      intcor
     36.89       0.00      27.78       0.00      -1.31      -0.77

> <Gold.Goldscore.Fitness>
36.8884

> <Gold.Goldscore.Internal.Vdw>
-1.6433

> <Gold.Goldscore.Internal.Torsion>
-0.4328

> <Gold.Goldscore.External.Vdw>
27.7812

> <Gold.Goldscore.Internal.HBond>
0.0000

> <Gold.Goldscore.External.HBond>
0.0000

> <Gold.Goldscore.Internal.Correction>
-0.7653

> <Gold.Goldscore.Internal.Vdw.Weighted>
-1.6433

> <Gold.Goldscore.Internal.Torsion.Weighted>
-0.4328

> <Gold.Goldscore.External.Vdw.Weighted>
38.1992

> <Gold.Goldscore.Internal.HBond.Weighted>
0.0000

> <Gold.Goldscore.External.HBond.Weighted>
0.0000

> <Gold.Goldscore.Internal.Correction.Weighted>
-0.7653

> <Gold.Rescore>
     Score     S(PLP)   S(hbond)     S(cho)   S(metal)  DE(clash)   DE(tors)     intcor
      6.88      -8.55       0.00       0.00       0.00       0.66       0.50       ----

> <Gold.PLP.Fitness>
6.8760

> <Gold.PLP.PLP>
-8.5457

> <Gold.PLP.part.hbond>
-1.6067

> <Gold.PLP.part.metal>
0.0000

> <Gold.PLP.part.buried>
22.5594

> <Gold.PLP.part.nonpolar>
-32.9641

> <Gold.PLP.part.repulsive>
2.9968

> <Gold.PLP.ligand.clash>
0.6613

> <Gold.PLP.ligand.torsion>
0.5042

> <Gold.PLP.Chemscore.Hbond>
0.0000

> <Gold.PLP.Chemscore.CHOScore>
0.0000

> <Gold.PLP.Chemscore.Metal>
0.0000

> <Gold.PLP.Chemscore.Internal.Correction>
   9.000000E+99

