#       Name:                CT1002167954
#       Creating user name   hitesit
#       Creation time:       Sun Apr 16 22:51:15 2023


#       File generated by GOLD software.
#

@<TRIPOS>MOLECULE
CT1002167954|ligand_prepared|mol2|1|dock9
    29    30     1
SMALL
NO_CHARGES


@<TRIPOS>ATOM
      1 C1          14.9760  -0.1772  -7.9330 C.3            1 RES1               0.0000
      2 C2          15.8638  -0.1900  -6.6719 C.ar           1 RES1               0.0000
      3 C3          15.7382  -0.9554  -9.0015 C.2            1 RES1               0.0000
      4 C4          13.6503  -0.8121  -7.5279 C.2            1 RES1               0.0000
      5 C5          14.6807   1.2408  -8.4749 C.3            1 RES1               0.0000
      6 C6          16.7687  -1.2244  -6.4529 C.ar           1 RES1               0.0000
      7 C7          15.7913   0.8250  -5.7217 C.ar           1 RES1               0.0000
      8 N8          15.2905  -2.2055  -9.3126 N.am           1 RES1               0.0000
      9 O9          16.7401  -0.4949  -9.5346 O.2            1 RES1               0.0000
     10 N10         13.3082  -2.0074  -8.1039 N.am           1 RES1               0.0000
     11 O11         12.9066  -0.2962  -6.7026 O.2            1 RES1               0.0000
     12 C12         13.9847   1.2479  -9.8268 C.3            1 RES1               0.0000
     13 C13         17.5741  -1.2419  -5.3262 C.ar           1 RES1               0.0000
     14 C14         16.5974   0.8055  -4.5955 C.ar           1 RES1               0.0000
     15 C15         14.0825  -2.7481  -8.9549 C.2            1 RES1               0.0000
     16 C16         17.4894  -0.2269  -4.3971 C.ar           1 RES1               0.0000
     17 O17         13.7287  -3.8407  -9.3887 O.2            1 RES1               0.0000
     18 H18         14.0507   1.7715  -7.7505 H              1 RES1               0.0000
     19 H19         15.6266   1.7896  -8.5619 H              1 RES1               0.0000
     20 H20         16.8477  -2.0330  -7.1718 H              1 RES1               0.0000
     21 H21         15.0961   1.6467  -5.8564 H              1 RES1               0.0000
     22 H22         15.9114  -2.7911  -9.8620 H              1 RES1               0.0000
     23 H23         12.3914  -2.3796  -7.8775 H              1 RES1               0.0000
     24 H24         13.8011   2.2670 -10.1608 H              1 RES1               0.0000
     25 H25         14.5950   0.7501 -10.5775 H              1 RES1               0.0000
     26 H26         13.0283   0.7321  -9.7709 H              1 RES1               0.0000
     27 H27         18.2735  -2.0573  -5.1740 H              1 RES1               0.0000
     28 H28         16.5270   1.6061  -3.8666 H              1 RES1               0.0000
     29 H29         18.1207  -0.2406  -3.5148 H              1 RES1               0.0000
@<TRIPOS>BOND
    1    1    2 1     
    2    1    3 1     
    3    1    4 1     
    4    1    5 1     
    5    2    6 ar    
    6    2    7 ar    
    7    3    8 1     
    8    3    9 2     
    9    4   10 1     
   10    4   11 2     
   11    5   12 1     
   12    5   18 1     
   13    5   19 1     
   14    6   13 ar    
   15    6   20 1     
   16    7   14 ar    
   17    7   21 1     
   18    8   15 1     
   19    8   22 1     
   20   10   15 1     
   21   10   23 1     
   22   12   24 1     
   23   12   25 1     
   24   12   26 1     
   25   13   16 ar    
   26   13   27 1     
   27   14   16 ar    
   28   14   28 1     
   29   15   17 2     
   30   16   29 1     
@<TRIPOS>SUBSTRUCTURE
      1 RES1           1
@<TRIPOS>SET
DONOR_HYDROGENS      STATIC     ATOMS    <user>   **** ""
2 22 23
ATOM$RED        STATIC     ATOMS    COLORGROUP SYSTEM
2 22 23
@<TRIPOS>COMMENT
> <Gold.Version>
2022.3.0

> <Gold.Id.Protein>
unknown|3nx8_clean|pdb

> <Gold.Protein.RotatedTorsions>
[ 3590 3581 3580 3578 ] final  -43.71 input   60.00 | X-H torsion
[ 3510 3501 3500 3498 ] final  -64.72 input   59.99 | X-H torsion
[ 3778 3769 3768 3766 ] final  151.98 input   60.02 | X-H torsion
[ 2535 2524 2523 2522 ] final -167.83 input   60.02 | X-H torsion
[ 3063 3056 3054 3051 ] final    4.25 input   59.97 | X-H torsion
[ 5056 5047 5046 5044 ] final -145.47 input   59.99 | X-H torsion
[  549  544  542  539 ] final  -32.42 input   60.01 | X-H torsion
[ 1860 1855 1854 1851 ] final -119.49 input   60.02 | X-H torsion
[ 3113 3104 3103 3101 ] final   25.95 input   60.01 | X-H torsion
[  567  564  563  560 ] final  160.59 input   60.03 | X-H torsion

> <Gold.Protein.ActiveResidues>
 LEU49   GLY50   THR51   GLY52   SER53   PHE54   VAL57   LEU82   GLN84   HIS87  
 GLU127  MET128  PHE129  SER130  LEU132  ARG133  ARG134  ILE135  GLY136  ARG137 
 ARG165  ASP166  LEU167  LYS168  PRO169  GLU170  ASN171  LEU172  LEU173  THR183 
 ASP184  GLY186  PHE187  TPO197  LEU198  CYS199  GLY200  THR201  PRO202  GLU203 
 TYR204  LEU205  ILE209  ILE210  VAL226  LEU227  TYR229  GLU230  ALA233  GLY234 
 TYR235  PRO236  PRO237  PHE238  PHE239  ALA240  ASP241  GLN242  PRO243  ILE244 
 GLN245  ILE246  TYR247  ARG256  PHE257  PRO258  SER259  PHE327  ASP328  TYR330 

> <Gold.Protein.RotatedAtoms>
   20.8566   11.1774   -5.8695 H   0  0  0  0  0  0  0  0  0  0  0  0  # atno 549  bound_to 544 
   21.9416    9.2806    4.4469 H   0  0  0  0  0  0  0  0  0  0  0  0  # atno 567  bound_to 564 
   25.8314    5.2940  -12.8324 H   0  0  0  0  0  0  0  0  0  0  0  0  # atno 1860 bound_to 1855
   19.3275    5.0010   -1.2603 H   0  0  0  0  0  0  0  0  0  0  0  0  # atno 2535 bound_to 2524
   18.6047    3.6009   -1.7748 H   0  0  0  0  0  0  0  0  0  0  0  0  # atno 2536 bound_to 2524
   18.9530    3.8121   -0.1677 H   0  0  0  0  0  0  0  0  0  0  0  0  # atno 2537 bound_to 2524
   17.3841    2.6739    1.0971 H   0  0  0  0  0  0  0  0  0  0  0  0  # atno 3063 bound_to 3056
   20.8824   -3.8412   -4.2931 H   0  0  0  0  0  0  0  0  0  0  0  0  # atno 3113 bound_to 3104
   15.2405  -13.6637   -7.2184 H   0  0  0  0  0  0  0  0  0  0  0  0  # atno 3510 bound_to 3501
   16.2386  -14.2170  -11.3711 H   0  0  0  0  0  0  0  0  0  0  0  0  # atno 3590 bound_to 3581
    8.6731    0.9202    2.5924 H   0  0  0  0  0  0  0  0  0  0  0  0  # atno 3778 bound_to 3769
   21.9666    9.8492   -9.5592 H   0  0  0  0  0  0  0  0  0  0  0  0  # atno 5056 bound_to 5047
   16.4835  -13.8668  -12.9411 LP  0  0  0  0  0  0  0  0  0  0  0  0  # atno 5350 bound_to 3581
   14.9721  -13.8466  -12.3232 LP  0  0  0  0  0  0  0  0  0  0  0  0  # atno 5351 bound_to 3581
   15.8391  -15.1697   -7.0673 LP  0  0  0  0  0  0  0  0  0  0  0  0  # atno 5358 bound_to 3501
   16.2913  -14.2307   -8.3244 LP  0  0  0  0  0  0  0  0  0  0  0  0  # atno 5359 bound_to 3501
   10.0547    0.2765    2.0217 LP  0  0  0  0  0  0  0  0  0  0  0  0  # atno 5412 bound_to 3769
    9.8311    0.4414    3.6309 LP  0  0  0  0  0  0  0  0  0  0  0  0  # atno 5413 bound_to 3769
   17.5549    2.7066   -0.5209 LP  0  0  0  0  0  0  0  0  0  0  0  0  # atno 5416 bound_to 3056
   18.6854    1.9814    0.4079 LP  0  0  0  0  0  0  0  0  0  0  0  0  # atno 5417 bound_to 3056
   23.1882   10.1408   -8.5243 LP  0  0  0  0  0  0  0  0  0  0  0  0  # atno 5426 bound_to 5047
   23.5002    9.8649  -10.1033 LP  0  0  0  0  0  0  0  0  0  0  0  0  # atno 5427 bound_to 5047
   19.5449   12.1400   -5.9031 LP  0  0  0  0  0  0  0  0  0  0  0  0  # atno 5430 bound_to 544 
   19.7157   11.0289   -4.7185 LP  0  0  0  0  0  0  0  0  0  0  0  0  # atno 5431 bound_to 544 
   26.9034    4.8274  -11.7003 LP  0  0  0  0  0  0  0  0  0  0  0  0  # atno 5436 bound_to 1855
   25.3658    4.2802  -11.6476 LP  0  0  0  0  0  0  0  0  0  0  0  0  # atno 5437 bound_to 1855
   20.6647   -5.4251   -3.9872 LP  0  0  0  0  0  0  0  0  0  0  0  0  # atno 5458 bound_to 3104
   22.0062   -4.6640   -3.4506 LP  0  0  0  0  0  0  0  0  0  0  0  0  # atno 5459 bound_to 3104
   21.8132   10.2757    3.1652 LP  0  0  0  0  0  0  0  0  0  0  0  0  # atno 5468 bound_to 564 
   22.4410    8.7795    2.9810 LP  0  0  0  0  0  0  0  0  0  0  0  0  # atno 5469 bound_to 564 

> <Gold.Score>
     Fitness  S(hb_ext) S(vdw_ext)  S(hb_int)    S(int)      intcor
     22.58       2.85      14.96       0.00      -0.84      -0.76

> <Gold.Goldscore.Fitness>
22.5796

> <Gold.Goldscore.Internal.Vdw>
-1.1174

> <Gold.Goldscore.Internal.Torsion>
-0.4883

> <Gold.Goldscore.External.Vdw>
14.9583

> <Gold.Goldscore.Internal.HBond>
0.0000

> <Gold.Goldscore.External.HBond>
2.8526

> <Gold.Goldscore.Internal.Correction>
-0.7650

> <Gold.Goldscore.Hbonds>
donor molecule, donor type, donor heavy atom, donor atom, acceptor molecule, acceptor atom, score
      P1  H  1922  1925       L1     9  0.48

> <Gold.Goldscore.Internal.Vdw.Weighted>
-1.1174

> <Gold.Goldscore.Internal.Torsion.Weighted>
-0.4883

> <Gold.Goldscore.External.Vdw.Weighted>
20.5677

> <Gold.Goldscore.Internal.HBond.Weighted>
0.0000

> <Gold.Goldscore.External.HBond.Weighted>
2.8526

> <Gold.Goldscore.Internal.Correction.Weighted>
-0.7650

> <Gold.Rescore>
     Score     S(PLP)   S(hbond)     S(cho)   S(metal)  DE(clash)   DE(tors)     intcor
     25.41     -23.42       1.34       0.00       0.00       0.00       1.02       ----

> <Gold.PLP.Fitness>
25.4083

> <Gold.PLP.PLP>
-23.4199

> <Gold.PLP.part.hbond>
-1.8504

> <Gold.PLP.part.metal>
0.0000

> <Gold.PLP.part.buried>
-3.6508

> <Gold.PLP.part.nonpolar>
-18.7627

> <Gold.PLP.part.repulsive>
0.1368

> <Gold.PLP.ligand.clash>
0.0000

> <Gold.PLP.ligand.torsion>
1.0190

> <Gold.PLP.Chemscore.Hbond>
1.3422

> <Gold.PLP.Chemscore.CHOScore>
0.0000

> <Gold.PLP.Chemscore.Metal>
0.0000

> <Gold.Chemscore.Hbonds>
donor molecule, donor type, donor heavy atom, donor atom, acceptor molecule, acceptor atom, score
      P1  H  1922  1925       L1     9  0.94

> <Gold.PLP.Chemscore.Internal.Correction>
   9.000000E+99

