#       Name:                CT1002167954
#       Creating user name   hitesit
#       Creation time:       Sun Apr 16 22:51:08 2023


#       File generated by GOLD software.
#

@<TRIPOS>MOLECULE
CT1002167954|ligand_prepared|mol2|1|dock1
    29    30     1
SMALL
NO_CHARGES


@<TRIPOS>ATOM
      1 C1          14.9887  -1.1368  -8.4142 C.3            1 RES1               0.0000
      2 C2          15.7289  -1.1523  -7.0612 C.ar           1 RES1               0.0000
      3 C3          13.5210  -0.8657  -8.0966 C.2            1 RES1               0.0000
      4 C4          15.6546  -0.0511  -9.2523 C.2            1 RES1               0.0000
      5 C5          15.0846  -2.4687  -9.1941 C.3            1 RES1               0.0000
      6 C6          16.5669  -2.2110  -6.7240 C.ar           1 RES1               0.0000
      7 C7          15.5860  -0.1158  -6.1426 C.ar           1 RES1               0.0000
      8 N8          13.0304   0.3734  -8.3858 N.am           1 RES1               0.0000
      9 O9          12.8154  -1.7135  -7.5640 O.2            1 RES1               0.0000
     10 N10         14.9111   1.0514  -9.5830 N.am           1 RES1               0.0000
     11 O11         16.8216  -0.1328  -9.6153 O.2            1 RES1               0.0000
     12 C12         14.2768  -2.4844 -10.4823 C.3            1 RES1               0.0000
     13 C13         17.2401  -2.2313  -5.5138 C.ar           1 RES1               0.0000
     14 C14         16.2599  -0.1382  -4.9327 C.ar           1 RES1               0.0000
     15 C15         13.6388   1.3271  -9.1618 C.2            1 RES1               0.0000
     16 C16         17.0875  -1.1949  -4.6176 C.ar           1 RES1               0.0000
     17 O17         13.0554   2.3662  -9.4569 O.2            1 RES1               0.0000
     18 H18         16.1372  -2.6618  -9.4350 H              1 RES1               0.0000
     19 H19         14.7338  -3.2826  -8.5476 H              1 RES1               0.0000
     20 H20         16.6975  -3.0367  -7.4156 H              1 RES1               0.0000
     21 H21         14.9393   0.7253  -6.3688 H              1 RES1               0.0000
     22 H22         12.1278   0.6132  -7.9883 H              1 RES1               0.0000
     23 H23         15.3464   1.7294 -10.2003 H              1 RES1               0.0000
     24 H24         14.3789  -3.4412 -10.9900 H              1 RES1               0.0000
     25 H25         13.2209  -2.3205 -10.2776 H              1 RES1               0.0000
     26 H26         14.6159  -1.7034 -11.1598 H              1 RES1               0.0000
     27 H27         17.8891  -3.0659  -5.2699 H              1 RES1               0.0000
     28 H28         16.1363   0.6793  -4.2302 H              1 RES1               0.0000
     29 H29         17.6152  -1.2109  -3.6697 H              1 RES1               0.0000
@<TRIPOS>BOND
    1    1    2 1     
    2    1    3 1     
    3    1    4 1     
    4    1    5 1     
    5    2    6 ar    
    6    2    7 ar    
    7    3    8 1     
    8    3    9 2     
    9    4   10 1     
   10    4   11 2     
   11    5   12 1     
   12    5   18 1     
   13    5   19 1     
   14    6   13 ar    
   15    6   20 1     
   16    7   14 ar    
   17    7   21 1     
   18    8   15 1     
   19    8   22 1     
   20   10   15 1     
   21   10   23 1     
   22   12   24 1     
   23   12   25 1     
   24   12   26 1     
   25   13   16 ar    
   26   13   27 1     
   27   14   16 ar    
   28   14   28 1     
   29   15   17 2     
   30   16   29 1     
@<TRIPOS>SUBSTRUCTURE
      1 RES1           1
@<TRIPOS>SET
DONOR_HYDROGENS      STATIC     ATOMS    <user>   **** ""
2 22 23
ATOM$RED        STATIC     ATOMS    COLORGROUP SYSTEM
2 22 23
@<TRIPOS>COMMENT
> <Gold.Version>
2022.3.0

> <Gold.Id.Protein>
unknown|3nx8_clean|pdb

> <Gold.Protein.RotatedTorsions>
[ 3590 3581 3580 3578 ] final  -73.17 input   60.00 | X-H torsion
[ 3510 3501 3500 3498 ] final -155.97 input   59.99 | X-H torsion
[ 3778 3769 3768 3766 ] final   20.07 input   60.02 | X-H torsion
[ 2535 2524 2523 2522 ] final   81.09 input   60.02 | X-H torsion
[ 3063 3056 3054 3051 ] final   23.77 input   59.97 | X-H torsion
[ 5056 5047 5046 5044 ] final  -74.82 input   59.99 | X-H torsion
[  549  544  542  539 ] final   -9.14 input   60.01 | X-H torsion
[ 1860 1855 1854 1851 ] final   27.48 input   60.02 | X-H torsion
[ 3113 3104 3103 3101 ] final   -2.57 input   60.01 | X-H torsion
[  567  564  563  560 ] final   98.75 input   60.03 | X-H torsion

> <Gold.Protein.ActiveResidues>
 LEU49   GLY50   THR51   GLY52   SER53   PHE54   VAL57   LEU82   GLN84   HIS87  
 GLU127  MET128  PHE129  SER130  LEU132  ARG133  ARG134  ILE135  GLY136  ARG137 
 ARG165  ASP166  LEU167  LYS168  PRO169  GLU170  ASN171  LEU172  LEU173  THR183 
 ASP184  GLY186  PHE187  TPO197  LEU198  CYS199  GLY200  THR201  PRO202  GLU203 
 TYR204  LEU205  ILE209  ILE210  VAL226  LEU227  TYR229  GLU230  ALA233  GLY234 
 TYR235  PRO236  PRO237  PHE238  PHE239  ALA240  ASP241  GLN242  PRO243  ILE244 
 GLN245  ILE246  TYR247  ARG256  PHE257  PRO258  SER259  PHE327  ASP328  TYR330 

> <Gold.Protein.RotatedAtoms>
   20.8290   10.9478   -5.5708 H   0  0  0  0  0  0  0  0  0  0  0  0  # atno 549  bound_to 544 
   21.6885   10.1238    4.0572 H   0  0  0  0  0  0  0  0  0  0  0  0  # atno 567  bound_to 564 
   25.7222    4.2154  -11.4012 H   0  0  0  0  0  0  0  0  0  0  0  0  # atno 1860 bound_to 1855
   19.0175    3.9412   -0.1322 H   0  0  0  0  0  0  0  0  0  0  0  0  # atno 2535 bound_to 2524
   19.2923    4.9715   -1.4011 H   0  0  0  0  0  0  0  0  0  0  0  0  # atno 2536 bound_to 2524
   18.5753    3.5007   -1.6677 H   0  0  0  0  0  0  0  0  0  0  0  0  # atno 2537 bound_to 2524
   17.6287    2.5223    1.2309 H   0  0  0  0  0  0  0  0  0  0  0  0  # atno 3063 bound_to 3056
   20.5515   -4.1468   -4.3936 H   0  0  0  0  0  0  0  0  0  0  0  0  # atno 3113 bound_to 3104
   15.5432  -14.9060   -6.8210 H   0  0  0  0  0  0  0  0  0  0  0  0  # atno 3510 bound_to 3501
   16.6207  -14.1916  -11.6537 H   0  0  0  0  0  0  0  0  0  0  0  0  # atno 3590 bound_to 3581
   10.1762    0.2245    2.1652 H   0  0  0  0  0  0  0  0  0  0  0  0  # atno 3778 bound_to 3769
   22.7480    9.7694  -10.3045 H   0  0  0  0  0  0  0  0  0  0  0  0  # atno 5056 bound_to 5047
   16.0477  -13.7750  -13.1185 LP  0  0  0  0  0  0  0  0  0  0  0  0  # atno 5350 bound_to 3581
   15.0230  -13.9640  -11.8611 LP  0  0  0  0  0  0  0  0  0  0  0  0  # atno 5351 bound_to 3581
   16.3972  -14.6651   -8.1855 LP  0  0  0  0  0  0  0  0  0  0  0  0  # atno 5358 bound_to 3501
   15.4285  -13.4850   -7.6061 LP  0  0  0  0  0  0  0  0  0  0  0  0  # atno 5359 bound_to 3501
    9.6592    0.5210    3.6797 LP  0  0  0  0  0  0  0  0  0  0  0  0  # atno 5412 bound_to 3769
    8.7134    0.8973    2.4028 LP  0  0  0  0  0  0  0  0  0  0  0  0  # atno 5413 bound_to 3769
   17.3218    2.8264   -0.3380 LP  0  0  0  0  0  0  0  0  0  0  0  0  # atno 5416 bound_to 3056
   18.6722    2.0142    0.0903 LP  0  0  0  0  0  0  0  0  0  0  0  0  # atno 5417 bound_to 3056
   22.1454   10.0031   -8.8110 LP  0  0  0  0  0  0  0  0  0  0  0  0  # atno 5426 bound_to 5047
   23.7563   10.0828   -9.0662 LP  0  0  0  0  0  0  0  0  0  0  0  0  # atno 5427 bound_to 5047
   19.8466   12.1168   -6.1335 LP  0  0  0  0  0  0  0  0  0  0  0  0  # atno 5430 bound_to 544 
   19.4418   11.2833   -4.7889 LP  0  0  0  0  0  0  0  0  0  0  0  0  # atno 5431 bound_to 544 
   25.4489    5.1021  -12.7382 LP  0  0  0  0  0  0  0  0  0  0  0  0  # atno 5436 bound_to 1855
   26.9301    5.0915  -12.0507 LP  0  0  0  0  0  0  0  0  0  0  0  0  # atno 5437 bound_to 1855
   21.0377   -5.5581   -3.7446 LP  0  0  0  0  0  0  0  0  0  0  0  0  # atno 5458 bound_to 3104
   21.9662   -4.2234   -3.5921 LP  0  0  0  0  0  0  0  0  0  0  0  0  # atno 5459 bound_to 3104
   22.2001    9.5820    2.6101 LP  0  0  0  0  0  0  0  0  0  0  0  0  # atno 5468 bound_to 564 
   22.3087    8.6244    3.9284 LP  0  0  0  0  0  0  0  0  0  0  0  0  # atno 5469 bound_to 564 

> <Gold.Score>
     Fitness  S(hb_ext) S(vdw_ext)  S(hb_int)    S(int)      intcor
     27.69       6.09      16.30       0.00      -0.81      -0.78

> <Gold.Goldscore.Fitness>
27.6895

> <Gold.Goldscore.Internal.Vdw>
-1.1994

> <Gold.Goldscore.Internal.Torsion>
-0.3945

> <Gold.Goldscore.External.Vdw>
16.2982

> <Gold.Goldscore.Internal.HBond>
0.0000

> <Gold.Goldscore.External.HBond>
6.0913

> <Gold.Goldscore.Internal.Correction>
-0.7819

> <Gold.Goldscore.Hbonds>
donor molecule, donor type, donor heavy atom, donor atom, acceptor molecule, acceptor atom, score
      P1  H  1920  1936       L1    11  0.02
      P1  H  1922  1925       L1    11  1.00

> <Gold.Goldscore.Internal.Vdw.Weighted>
-1.1994

> <Gold.Goldscore.Internal.Torsion.Weighted>
-0.3945

> <Gold.Goldscore.External.Vdw.Weighted>
22.4101

> <Gold.Goldscore.Internal.HBond.Weighted>
0.0000

> <Gold.Goldscore.External.HBond.Weighted>
6.0913

> <Gold.Goldscore.Internal.Correction.Weighted>
-0.7819

> <Gold.Rescore>
     Score     S(PLP)   S(hbond)     S(cho)   S(metal)  DE(clash)   DE(tors)     intcor
     24.81     -19.47       1.80       0.00       0.00       0.00       0.03       ----

> <Gold.PLP.Fitness>
24.8138

> <Gold.PLP.PLP>
-19.4694

> <Gold.PLP.part.hbond>
-2.0000

> <Gold.PLP.part.metal>
0.0000

> <Gold.PLP.part.buried>
-2.2917

> <Gold.PLP.part.nonpolar>
-16.5276

> <Gold.PLP.part.repulsive>
1.0043

> <Gold.PLP.ligand.clash>
0.0000

> <Gold.PLP.ligand.torsion>
0.0308

> <Gold.PLP.Chemscore.Hbond>
1.8020

> <Gold.PLP.Chemscore.CHOScore>
0.0000

> <Gold.PLP.Chemscore.Metal>
0.0000

> <Gold.Chemscore.Hbonds>
donor molecule, donor type, donor heavy atom, donor atom, acceptor molecule, acceptor atom, score
      P1  H  1922  1925       L1    11  1.00

> <Gold.PLP.Chemscore.Internal.Correction>
   9.000000E+99

