#       Name:                CT1002167954
#       Creating user name   hitesit
#       Creation time:       Sun Apr 16 22:51:09 2023


#       File generated by GOLD software.
#

@<TRIPOS>MOLECULE
CT1002167954|ligand_prepared|mol2|1|dock2
    29    30     1
SMALL
NO_CHARGES


@<TRIPOS>ATOM
      1 C1          15.1597  -1.6646  -8.2816 C.3            1 RES1               0.0000
      2 C2          15.1987  -2.5923  -9.5131 C.ar           1 RES1               0.0000
      3 C3          15.7624  -0.3355  -8.7272 C.2            1 RES1               0.0000
      4 C4          13.6968  -1.5746  -7.8614 C.2            1 RES1               0.0000
      5 C5          15.9715  -2.1924  -7.0758 C.3            1 RES1               0.0000
      6 C6          14.7977  -3.9212  -9.4122 C.ar           1 RES1               0.0000
      7 C7          15.6299  -2.1339 -10.7550 C.ar           1 RES1               0.0000
      8 N8          14.9107   0.7129  -8.9156 N.am           1 RES1               0.0000
      9 O9          16.9616  -0.2197  -8.9480 O.2            1 RES1               0.0000
     10 N10         13.0706  -0.3608  -7.9717 N.am           1 RES1               0.0000
     11 O11         13.0761  -2.5477  -7.4516 O.2            1 RES1               0.0000
     12 C12         16.2340  -1.1431  -6.0069 C.3            1 RES1               0.0000
     13 C13         14.8240  -4.7605 -10.5136 C.ar           1 RES1               0.0000
     14 C14         15.6556  -2.9750 -11.8552 C.ar           1 RES1               0.0000
     15 C15         13.6025   0.7799  -8.5086 C.2            1 RES1               0.0000
     16 C16         15.2525  -4.2880 -11.7358 C.ar           1 RES1               0.0000
     17 O17         12.9586   1.8188  -8.6237 O.2            1 RES1               0.0000
     18 H18         15.4265  -3.0295  -6.6224 H              1 RES1               0.0000
     19 H19         16.9334  -2.5755  -7.4382 H              1 RES1               0.0000
     20 H20         14.4598  -4.3115  -8.4580 H              1 RES1               0.0000
     21 H21         15.9527  -1.1049 -10.8722 H              1 RES1               0.0000
     22 H22         15.2807   1.5218  -9.4045 H              1 RES1               0.0000
     23 H23         12.1199  -0.3020  -7.6208 H              1 RES1               0.0000
     24 H24         16.8068  -1.5657  -5.1841 H              1 RES1               0.0000
     25 H25         16.7965  -0.3070  -6.4171 H              1 RES1               0.0000
     26 H26         15.2985  -0.7583  -5.6062 H              1 RES1               0.0000
     27 H27         14.5070  -5.7934 -10.4140 H              1 RES1               0.0000
     28 H28         15.9942  -2.5990 -12.8150 H              1 RES1               0.0000
     29 H29         15.2726  -4.9456 -12.5985 H              1 RES1               0.0000
@<TRIPOS>BOND
    1    1    2 1     
    2    1    3 1     
    3    1    4 1     
    4    1    5 1     
    5    2    6 ar    
    6    2    7 ar    
    7    3    8 1     
    8    3    9 2     
    9    4   10 1     
   10    4   11 2     
   11    5   12 1     
   12    5   18 1     
   13    5   19 1     
   14    6   13 ar    
   15    6   20 1     
   16    7   14 ar    
   17    7   21 1     
   18    8   15 1     
   19    8   22 1     
   20   10   15 1     
   21   10   23 1     
   22   12   24 1     
   23   12   25 1     
   24   12   26 1     
   25   13   16 ar    
   26   13   27 1     
   27   14   16 ar    
   28   14   28 1     
   29   15   17 2     
   30   16   29 1     
@<TRIPOS>SUBSTRUCTURE
      1 RES1           1
@<TRIPOS>SET
DONOR_HYDROGENS      STATIC     ATOMS    <user>   **** ""
2 22 23
ATOM$RED        STATIC     ATOMS    COLORGROUP SYSTEM
2 22 23
@<TRIPOS>COMMENT
> <Gold.Version>
2022.3.0

> <Gold.Id.Protein>
unknown|3nx8_clean|pdb

> <Gold.Protein.RotatedTorsions>
[ 3590 3581 3580 3578 ] final  -76.74 input   60.00 | X-H torsion
[ 3510 3501 3500 3498 ] final -164.39 input   59.99 | X-H torsion
[ 3778 3769 3768 3766 ] final  154.20 input   60.02 | X-H torsion
[ 2535 2524 2523 2522 ] final   46.42 input   60.02 | X-H torsion
[ 3063 3056 3054 3051 ] final   -1.89 input   59.97 | X-H torsion
[ 5056 5047 5046 5044 ] final   68.30 input   59.99 | X-H torsion
[  549  544  542  539 ] final -121.96 input   60.01 | X-H torsion
[ 1860 1855 1854 1851 ] final   38.52 input   60.02 | X-H torsion
[ 3113 3104 3103 3101 ] final    8.58 input   60.01 | X-H torsion
[  567  564  563  560 ] final   18.56 input   60.03 | X-H torsion

> <Gold.Protein.ActiveResidues>
 LEU49   GLY50   THR51   GLY52   SER53   PHE54   VAL57   LEU82   GLN84   HIS87  
 GLU127  MET128  PHE129  SER130  LEU132  ARG133  ARG134  ILE135  GLY136  ARG137 
 ARG165  ASP166  LEU167  LYS168  PRO169  GLU170  ASN171  LEU172  LEU173  THR183 
 ASP184  GLY186  PHE187  TPO197  LEU198  CYS199  GLY200  THR201  PRO202  GLU203 
 TYR204  LEU205  ILE209  ILE210  VAL226  LEU227  TYR229  GLU230  ALA233  GLY234 
 TYR235  PRO236  PRO237  PHE238  PHE239  ALA240  ASP241  GLN242  PRO243  ILE244 
 GLN245  ILE246  TYR247  ARG256  PHE257  PRO258  SER259  PHE327  ASP328  TYR330 

> <Gold.Protein.RotatedAtoms>
   19.9502   12.0837   -6.1793 H   0  0  0  0  0  0  0  0  0  0  0  0  # atno 549  bound_to 544 
   21.9383   10.1014    2.8772 H   0  0  0  0  0  0  0  0  0  0  0  0  # atno 567  bound_to 564 
   25.8906    4.2251  -11.3379 H   0  0  0  0  0  0  0  0  0  0  0  0  # atno 1860 bound_to 1855
   18.7721    3.4929   -0.3858 H   0  0  0  0  0  0  0  0  0  0  0  0  # atno 2535 bound_to 2524
   19.3788    4.9678   -0.8373 H   0  0  0  0  0  0  0  0  0  0  0  0  # atno 2536 bound_to 2524
   18.7339    3.9521   -1.9780 H   0  0  0  0  0  0  0  0  0  0  0  0  # atno 2537 bound_to 2524
   17.3174    2.7172    1.0356 H   0  0  0  0  0  0  0  0  0  0  0  0  # atno 3063 bound_to 3056
   20.6664   -4.0080   -4.3675 H   0  0  0  0  0  0  0  0  0  0  0  0  # atno 3113 bound_to 3104
   15.6273  -14.9992   -6.8774 H   0  0  0  0  0  0  0  0  0  0  0  0  # atno 3510 bound_to 3501
   16.6559  -14.1845  -11.6996 H   0  0  0  0  0  0  0  0  0  0  0  0  # atno 3590 bound_to 3581
    8.6687    0.9236    2.6281 H   0  0  0  0  0  0  0  0  0  0  0  0  # atno 3778 bound_to 3769
   23.5449   10.1275   -8.7576 H   0  0  0  0  0  0  0  0  0  0  0  0  # atno 5056 bound_to 5047
   15.9898  -13.7671  -13.1243 LP  0  0  0  0  0  0  0  0  0  0  0  0  # atno 5350 bound_to 3581
   15.0454  -13.9791  -11.8090 LP  0  0  0  0  0  0  0  0  0  0  0  0  # atno 5351 bound_to 3581
   16.3813  -14.5412   -8.2451 LP  0  0  0  0  0  0  0  0  0  0  0  0  # atno 5358 bound_to 3501
   15.3599  -13.5151   -7.4898 LP  0  0  0  0  0  0  0  0  0  0  0  0  # atno 5359 bound_to 3501
   10.0283    0.2875    1.9990 LP  0  0  0  0  0  0  0  0  0  0  0  0  # atno 5412 bound_to 3769
    9.8618    0.4270    3.6175 LP  0  0  0  0  0  0  0  0  0  0  0  0  # atno 5413 bound_to 3769
   17.6374    2.6621   -0.5590 LP  0  0  0  0  0  0  0  0  0  0  0  0  # atno 5416 bound_to 3056
   18.6700    1.9823    0.5079 LP  0  0  0  0  0  0  0  0  0  0  0  0  # atno 5417 bound_to 3056
   23.1235    9.7984  -10.2946 LP  0  0  0  0  0  0  0  0  0  0  0  0  # atno 5426 bound_to 5047
   21.9759    9.9270   -9.1400 LP  0  0  0  0  0  0  0  0  0  0  0  0  # atno 5427 bound_to 5047
   19.3754   11.3693   -4.8349 LP  0  0  0  0  0  0  0  0  0  0  0  0  # atno 5430 bound_to 544 
   20.7982   10.8868   -5.4746 LP  0  0  0  0  0  0  0  0  0  0  0  0  # atno 5431 bound_to 544 
   25.3259    4.9995  -12.6532 LP  0  0  0  0  0  0  0  0  0  0  0  0  # atno 5436 bound_to 1855
   26.8836    5.1844  -12.1994 LP  0  0  0  0  0  0  0  0  0  0  0  0  # atno 5437 bound_to 1855
   20.8822   -5.5320   -3.8378 LP  0  0  0  0  0  0  0  0  0  0  0  0  # atno 5458 bound_to 3104
   22.0060   -4.3892   -3.5251 LP  0  0  0  0  0  0  0  0  0  0  0  0  # atno 5459 bound_to 3104
   22.4416    8.6125    3.3003 LP  0  0  0  0  0  0  0  0  0  0  0  0  # atno 5468 bound_to 564 
   21.8158    9.6164    4.4260 LP  0  0  0  0  0  0  0  0  0  0  0  0  # atno 5469 bound_to 564 

> <Gold.Score>
     Fitness  S(hb_ext) S(vdw_ext)  S(hb_int)    S(int)      intcor
     25.57       6.00      16.45       0.00      -3.04      -0.77

> <Gold.Goldscore.Fitness>
25.5727

> <Gold.Goldscore.Internal.Vdw>
-3.0980

> <Gold.Goldscore.Internal.Torsion>
-0.7133

> <Gold.Goldscore.External.Vdw>
16.4475

> <Gold.Goldscore.Internal.HBond>
0.0000

> <Gold.Goldscore.External.HBond>
6.0000

> <Gold.Goldscore.Internal.Correction>
-0.7686

> <Gold.Goldscore.Hbonds>
donor molecule, donor type, donor heavy atom, donor atom, acceptor molecule, acceptor atom, score
      P1  H  1922  1925       L1     9  1.00

> <Gold.Goldscore.Internal.Vdw.Weighted>
-3.0980

> <Gold.Goldscore.Internal.Torsion.Weighted>
-0.7133

> <Gold.Goldscore.External.Vdw.Weighted>
22.6153

> <Gold.Goldscore.Internal.HBond.Weighted>
0.0000

> <Gold.Goldscore.External.HBond.Weighted>
6.0000

> <Gold.Goldscore.Internal.Correction.Weighted>
-0.7686

> <Gold.Rescore>
     Score     S(PLP)   S(hbond)     S(cho)   S(metal)  DE(clash)   DE(tors)     intcor
     28.13     -27.10       1.06       0.00       0.00       1.24       0.45       ----

> <Gold.PLP.Fitness>
28.1302

> <Gold.PLP.PLP>
-27.0994

> <Gold.PLP.part.hbond>
-1.9630

> <Gold.PLP.part.metal>
0.0000

> <Gold.PLP.part.buried>
-2.6508

> <Gold.PLP.part.nonpolar>
-23.8608

> <Gold.PLP.part.repulsive>
0.1275

> <Gold.PLP.ligand.clash>
1.2413

> <Gold.PLP.ligand.torsion>
0.4540

> <Gold.PLP.Chemscore.Hbond>
1.0600

> <Gold.PLP.Chemscore.CHOScore>
0.0000

> <Gold.PLP.Chemscore.Metal>
0.0000

> <Gold.Chemscore.Hbonds>
donor molecule, donor type, donor heavy atom, donor atom, acceptor molecule, acceptor atom, score
      P1  H  1922  1925       L1     9  1.00

> <Gold.PLP.Chemscore.Internal.Correction>
   9.000000E+99

