#       Name:                CT1002167954
#       Creating user name   hitesit
#       Creation time:       Sun Apr 16 22:51:16 2023


#       File generated by GOLD software.
#

@<TRIPOS>MOLECULE
CT1002167954|ligand_prepared|mol2|1|dock10
    29    30     1
SMALL
NO_CHARGES


@<TRIPOS>ATOM
      1 C1          14.7473  -1.3053  -8.3892 C.3            1 RES1               0.0000
      2 C2          15.6137  -1.0602  -7.1370 C.ar           1 RES1               0.0000
      3 C3          15.7007  -1.2859  -9.5804 C.2            1 RES1               0.0000
      4 C4          14.0514  -2.6443  -8.1711 C.2            1 RES1               0.0000
      5 C5          13.6574  -0.2316  -8.6149 C.3            1 RES1               0.0000
      6 C6          15.6514   0.1944  -6.5360 C.ar           1 RES1               0.0000
      7 C7          16.3771  -2.0777  -6.5709 C.ar           1 RES1               0.0000
      8 N8          15.9984  -2.4787 -10.1709 N.am           1 RES1               0.0000
      9 O9          16.2144  -0.2448  -9.9708 O.2            1 RES1               0.0000
     10 N10         14.3786  -3.6813  -9.0049 N.am           1 RES1               0.0000
     11 O11         13.2349  -2.8152  -7.2742 O.2            1 RES1               0.0000
     12 C12         12.6111  -0.6271  -9.6449 C.3            1 RES1               0.0000
     13 C13         16.4221   0.4229  -5.4081 C.ar           1 RES1               0.0000
     14 C14         17.1474  -1.8470  -5.4431 C.ar           1 RES1               0.0000
     15 C15         15.3431  -3.6678  -9.9753 C.2            1 RES1               0.0000
     16 C16         17.1702  -0.5976  -4.8607 C.ar           1 RES1               0.0000
     17 O17         15.6177  -4.6572 -10.6482 O.2            1 RES1               0.0000
     18 H18         13.1553  -0.0321  -7.6602 H              1 RES1               0.0000
     19 H19         14.1398   0.6982  -8.9408 H              1 RES1               0.0000
     20 H20         15.0713   1.0103  -6.9540 H              1 RES1               0.0000
     21 H21         16.3754  -3.0683  -7.0128 H              1 RES1               0.0000
     22 H22         16.7808  -2.4873 -10.8175 H              1 RES1               0.0000
     23 H23         13.8545  -4.5432  -8.8918 H              1 RES1               0.0000
     24 H24         11.8707   0.1610  -9.7648 H              1 RES1               0.0000
     25 H25         13.0725  -0.8086 -10.6134 H              1 RES1               0.0000
     26 H26         12.0938  -1.5346  -9.3405 H              1 RES1               0.0000
     27 H27         16.4377   1.4083  -4.9543 H              1 RES1               0.0000
     28 H28         17.7350  -2.6529  -5.0160 H              1 RES1               0.0000
     29 H29         17.7735  -0.4184  -3.9769 H              1 RES1               0.0000
@<TRIPOS>BOND
    1    1    2 1     
    2    1    3 1     
    3    1    4 1     
    4    1    5 1     
    5    2    6 ar    
    6    2    7 ar    
    7    3    8 1     
    8    3    9 2     
    9    4   10 1     
   10    4   11 2     
   11    5   12 1     
   12    5   18 1     
   13    5   19 1     
   14    6   13 ar    
   15    6   20 1     
   16    7   14 ar    
   17    7   21 1     
   18    8   15 1     
   19    8   22 1     
   20   10   15 1     
   21   10   23 1     
   22   12   24 1     
   23   12   25 1     
   24   12   26 1     
   25   13   16 ar    
   26   13   27 1     
   27   14   16 ar    
   28   14   28 1     
   29   15   17 2     
   30   16   29 1     
@<TRIPOS>SUBSTRUCTURE
      1 RES1           1
@<TRIPOS>SET
DONOR_HYDROGENS      STATIC     ATOMS    <user>   **** ""
2 22 23
ATOM$RED        STATIC     ATOMS    COLORGROUP SYSTEM
2 22 23
@<TRIPOS>COMMENT
> <Gold.Version>
2022.3.0

> <Gold.Id.Protein>
unknown|3nx8_clean|pdb

> <Gold.Protein.RotatedTorsions>
[ 3590 3581 3580 3578 ] final -120.91 input   60.00 | X-H torsion
[ 3510 3501 3500 3498 ] final  149.18 input   59.99 | X-H torsion
[ 3778 3769 3768 3766 ] final  126.69 input   60.02 | X-H torsion
[ 2535 2524 2523 2522 ] final -178.42 input   60.02 | X-H torsion
[ 3063 3056 3054 3051 ] final   -4.25 input   59.97 | X-H torsion
[ 5056 5047 5046 5044 ] final   84.30 input   59.99 | X-H torsion
[  549  544  542  539 ] final  -85.24 input   60.01 | X-H torsion
[ 1860 1855 1854 1851 ] final -142.59 input   60.02 | X-H torsion
[ 3113 3104 3103 3101 ] final  -10.38 input   60.01 | X-H torsion
[  567  564  563  560 ] final  -10.31 input   60.03 | X-H torsion

> <Gold.Protein.ActiveResidues>
 LEU49   GLY50   THR51   GLY52   SER53   PHE54   VAL57   LEU82   GLN84   HIS87  
 GLU127  MET128  PHE129  SER130  LEU132  ARG133  ARG134  ILE135  GLY136  ARG137 
 ARG165  ASP166  LEU167  LYS168  PRO169  GLU170  ASN171  LEU172  LEU173  THR183 
 ASP184  GLY186  PHE187  TPO197  LEU198  CYS199  GLY200  THR201  PRO202  GLU203 
 TYR204  LEU205  ILE209  ILE210  VAL226  LEU227  TYR229  GLU230  ALA233  GLY234 
 TYR235  PRO236  PRO237  PHE238  PHE239  ALA240  ASP241  GLN242  PRO243  ILE244 
 GLN245  ILE246  TYR247  ARG256  PHE257  PRO258  SER259  PHE327  ASP328  TYR330 

> <Gold.Protein.RotatedAtoms>
   20.4561   11.7923   -6.2633 H   0  0  0  0  0  0  0  0  0  0  0  0  # atno 549  bound_to 544 
   22.1272    9.7417    2.6469 H   0  0  0  0  0  0  0  0  0  0  0  0  # atno 567  bound_to 564 
   26.1936    5.3776  -12.7826 H   0  0  0  0  0  0  0  0  0  0  0  0  # atno 1860 bound_to 1855
   19.3582    5.0087   -1.0864 H   0  0  0  0  0  0  0  0  0  0  0  0  # atno 2535 bound_to 2524
   18.6506    3.7364   -1.8787 H   0  0  0  0  0  0  0  0  0  0  0  0  # atno 2536 bound_to 2524
   18.8763    3.6690   -0.2376 H   0  0  0  0  0  0  0  0  0  0  0  0  # atno 2537 bound_to 2524
   17.2936    2.7330    1.0099 H   0  0  0  0  0  0  0  0  0  0  0  0  # atno 3063 bound_to 3056
   20.4850   -4.2554   -4.4010 H   0  0  0  0  0  0  0  0  0  0  0  0  # atno 3113 bound_to 3104
   16.1024  -15.2246   -7.3956 H   0  0  0  0  0  0  0  0  0  0  0  0  # atno 3510 bound_to 3501
   16.8190  -14.0409  -12.3690 H   0  0  0  0  0  0  0  0  0  0  0  0  # atno 3590 bound_to 3581
    8.8087    0.8439    2.2130 H   0  0  0  0  0  0  0  0  0  0  0  0  # atno 3778 bound_to 3769
   23.3379   10.1410   -8.5999 H   0  0  0  0  0  0  0  0  0  0  0  0  # atno 5056 bound_to 5047
   15.3140  -13.7429  -12.9110 LP  0  0  0  0  0  0  0  0  0  0  0  0  # atno 5350 bound_to 3581
   15.5568  -14.1480  -11.3478 LP  0  0  0  0  0  0  0  0  0  0  0  0  # atno 5351 bound_to 3581
   16.0866  -13.8599   -8.2823 LP  0  0  0  0  0  0  0  0  0  0  0  0  # atno 5358 bound_to 3501
   15.1763  -13.9695   -6.9310 LP  0  0  0  0  0  0  0  0  0  0  0  0  # atno 5359 bound_to 3501
   10.2900    0.1832    2.3477 LP  0  0  0  0  0  0  0  0  0  0  0  0  # atno 5412 bound_to 3769
    9.4592    0.6116    3.6867 LP  0  0  0  0  0  0  0  0  0  0  0  0  # atno 5413 bound_to 3769
   17.6698    2.6444   -0.5709 LP  0  0  0  0  0  0  0  0  0  0  0  0  # atno 5416 bound_to 3056
   18.6617    1.9841    0.5457 LP  0  0  0  0  0  0  0  0  0  0  0  0  # atno 5417 bound_to 3056
   23.3646    9.8360  -10.1982 LP  0  0  0  0  0  0  0  0  0  0  0  0  # atno 5426 bound_to 5047
   21.9432    9.8758   -9.3953 LP  0  0  0  0  0  0  0  0  0  0  0  0  # atno 5427 bound_to 5047
   19.2141   11.7991   -5.2118 LP  0  0  0  0  0  0  0  0  0  0  0  0  # atno 5430 bound_to 544 
   20.4500   10.7504   -5.0132 LP  0  0  0  0  0  0  0  0  0  0  0  0  # atno 5431 bound_to 544 
   26.7286    4.5945  -11.4600 LP  0  0  0  0  0  0  0  0  0  0  0  0  # atno 5436 bound_to 1855
   25.1759    4.4290  -11.9381 LP  0  0  0  0  0  0  0  0  0  0  0  0  # atno 5437 bound_to 1855
   21.1504   -5.5558   -3.6829 LP  0  0  0  0  0  0  0  0  0  0  0  0  # atno 5458 bound_to 3104
   21.9205   -4.1163   -3.6464 LP  0  0  0  0  0  0  0  0  0  0  0  0  # atno 5459 bound_to 3104
   22.3604    8.5794    3.7622 LP  0  0  0  0  0  0  0  0  0  0  0  0  # atno 5468 bound_to 564 
   21.7069   10.0116    4.1960 LP  0  0  0  0  0  0  0  0  0  0  0  0  # atno 5469 bound_to 564 

> <Gold.Score>
     Fitness  S(hb_ext) S(vdw_ext)  S(hb_int)    S(int)      intcor
     25.64       1.92      17.75       0.00      -0.68      -0.76

> <Gold.Goldscore.Fitness>
25.6443

> <Gold.Goldscore.Internal.Vdw>
-0.8159

> <Gold.Goldscore.Internal.Torsion>
-0.6317

> <Gold.Goldscore.External.Vdw>
17.7537

> <Gold.Goldscore.Internal.HBond>
0.0000

> <Gold.Goldscore.External.HBond>
1.9155

> <Gold.Goldscore.Internal.Correction>
-0.7650

> <Gold.Goldscore.Hbonds>
donor molecule, donor type, donor heavy atom, donor atom, acceptor molecule, acceptor atom, score
      P1  H  1920  1936       L1     9  0.03
      P1  H  1922  1925       L1     9  0.29

> <Gold.Goldscore.Internal.Vdw.Weighted>
-0.8159

> <Gold.Goldscore.Internal.Torsion.Weighted>
-0.6317

> <Gold.Goldscore.External.Vdw.Weighted>
24.4114

> <Gold.Goldscore.Internal.HBond.Weighted>
0.0000

> <Gold.Goldscore.External.HBond.Weighted>
1.9155

> <Gold.Goldscore.Internal.Correction.Weighted>
-0.7650

> <Gold.Rescore>
     Score     S(PLP)   S(hbond)     S(cho)   S(metal)  DE(clash)   DE(tors)     intcor
     25.45     -25.80       0.30       0.00       0.00       0.00       0.63       ----

> <Gold.PLP.Fitness>
25.4465

> <Gold.PLP.PLP>
-25.8007

> <Gold.PLP.part.hbond>
-1.4833

> <Gold.PLP.part.metal>
0.0000

> <Gold.PLP.part.buried>
-6.7989

> <Gold.PLP.part.nonpolar>
-18.7530

> <Gold.PLP.part.repulsive>
0.6003

> <Gold.PLP.ligand.clash>
0.0000

> <Gold.PLP.ligand.torsion>
0.6295

> <Gold.PLP.Chemscore.Hbond>
0.3016

> <Gold.PLP.Chemscore.CHOScore>
0.0000

> <Gold.PLP.Chemscore.Metal>
0.0000

> <Gold.PLP.Chemscore.Internal.Correction>
   9.000000E+99

