#       Name:                CT1002167954
#       Creating user name   hitesit
#       Creation time:       Sun Apr 16 22:51:12 2023


#       File generated by GOLD software.
#

@<TRIPOS>MOLECULE
CT1002167954|ligand_prepared|mol2|1|dock5
    29    30     1
SMALL
NO_CHARGES


@<TRIPOS>ATOM
      1 C1          15.9622  -0.4079  -6.8835 C.3            1 RES1               0.0000
      2 C2          14.6752  -1.1551  -7.2887 C.ar           1 RES1               0.0000
      3 C3          16.5054   0.2319  -8.1578 C.2            1 RES1               0.0000
      4 C4          15.5535   0.5943  -5.8096 C.2            1 RES1               0.0000
      5 C5          17.0564  -1.3251  -6.2894 C.3            1 RES1               0.0000
      6 C6          13.4624  -0.4788  -7.3811 C.ar           1 RES1               0.0000
      7 C7          14.6854  -2.5176  -7.5751 C.ar           1 RES1               0.0000
      8 N8          16.3665   1.5815  -8.2960 N.am           1 RES1               0.0000
      9 O9          17.0123  -0.4428  -9.0456 O.2            1 RES1               0.0000
     10 N10         15.6596   1.9287  -6.1029 N.am           1 RES1               0.0000
     11 O11         15.1248   0.2405  -4.7182 O.2            1 RES1               0.0000
     12 C12         18.2154  -0.5684  -5.6599 C.3            1 RES1               0.0000
     13 C13         12.3025  -1.1399  -7.7494 C.ar           1 RES1               0.0000
     14 C14         13.5242  -3.1769  -7.9430 C.ar           1 RES1               0.0000
     15 C15         16.0186   2.4676  -7.3083 C.2            1 RES1               0.0000
     16 C16         12.3326  -2.4891  -8.0310 C.ar           1 RES1               0.0000
     17 O17         16.0380   3.6781  -7.5116 O.2            1 RES1               0.0000
     18 H18         16.6011  -1.9705  -5.5282 H              1 RES1               0.0000
     19 H19         17.4472  -1.9702  -7.0859 H              1 RES1               0.0000
     20 H20         13.4188   0.5827  -7.1609 H              1 RES1               0.0000
     21 H21         15.6113  -3.0792  -7.5113 H              1 RES1               0.0000
     22 H22         16.5370   1.9677  -9.2191 H              1 RES1               0.0000
     23 H23         15.4520   2.5806  -5.3531 H              1 RES1               0.0000
     24 H24         18.9544  -1.2588  -5.2587 H              1 RES1               0.0000
     25 H25         18.7074   0.0649  -6.3952 H              1 RES1               0.0000
     26 H26         17.8664   0.0647  -4.8466 H              1 RES1               0.0000
     27 H27         11.3669  -0.5944  -7.8159 H              1 RES1               0.0000
     28 H28         13.5525  -4.2390  -8.1631 H              1 RES1               0.0000
     29 H29         11.4238  -3.0067  -8.3199 H              1 RES1               0.0000
@<TRIPOS>BOND
    1    1    2 1     
    2    1    3 1     
    3    1    4 1     
    4    1    5 1     
    5    2    6 ar    
    6    2    7 ar    
    7    3    8 1     
    8    3    9 2     
    9    4   10 1     
   10    4   11 2     
   11    5   12 1     
   12    5   18 1     
   13    5   19 1     
   14    6   13 ar    
   15    6   20 1     
   16    7   14 ar    
   17    7   21 1     
   18    8   15 1     
   19    8   22 1     
   20   10   15 1     
   21   10   23 1     
   22   12   24 1     
   23   12   25 1     
   24   12   26 1     
   25   13   16 ar    
   26   13   27 1     
   27   14   16 ar    
   28   14   28 1     
   29   15   17 2     
   30   16   29 1     
@<TRIPOS>SUBSTRUCTURE
      1 RES1           1
@<TRIPOS>SET
DONOR_HYDROGENS      STATIC     ATOMS    <user>   **** ""
2 22 23
ATOM$RED        STATIC     ATOMS    COLORGROUP SYSTEM
2 22 23
@<TRIPOS>COMMENT
> <Gold.Version>
2022.3.0

> <Gold.Id.Protein>
unknown|3nx8_clean|pdb

> <Gold.Protein.RotatedTorsions>
[ 3590 3581 3580 3578 ] final   44.17 input   60.00 | X-H torsion
[ 3510 3501 3500 3498 ] final  -16.47 input   59.99 | X-H torsion
[ 3778 3769 3768 3766 ] final -163.16 input   60.02 | X-H torsion
[ 2535 2524 2523 2522 ] final -112.10 input   60.02 | X-H torsion
[ 3063 3056 3054 3051 ] final -167.66 input   59.97 | X-H torsion
[ 5056 5047 5046 5044 ] final -146.48 input   59.99 | X-H torsion
[  549  544  542  539 ] final  150.54 input   60.01 | X-H torsion
[ 1860 1855 1854 1851 ] final  -23.37 input   60.02 | X-H torsion
[ 3113 3104 3103 3101 ] final    6.56 input   60.01 | X-H torsion
[  567  564  563  560 ] final   39.77 input   60.03 | X-H torsion

> <Gold.Protein.ActiveResidues>
 LEU49   GLY50   THR51   GLY52   SER53   PHE54   VAL57   LEU82   GLN84   HIS87  
 GLU127  MET128  PHE129  SER130  LEU132  ARG133  ARG134  ILE135  GLY136  ARG137 
 ARG165  ASP166  LEU167  LYS168  PRO169  GLU170  ASN171  LEU172  LEU173  THR183 
 ASP184  GLY186  PHE187  TPO197  LEU198  CYS199  GLY200  THR201  PRO202  GLU203 
 TYR204  LEU205  ILE209  ILE210  VAL226  LEU227  TYR229  GLU230  ALA233  GLY234 
 TYR235  PRO236  PRO237  PHE238  PHE239  ALA240  ASP241  GLN242  PRO243  ILE244 
 GLN245  ILE246  TYR247  ARG256  PHE257  PRO258  SER259  PHE327  ASP328  TYR330 

> <Gold.Protein.RotatedAtoms>
   19.2226   11.7529   -5.1606 H   0  0  0  0  0  0  0  0  0  0  0  0  # atno 549  bound_to 544 
   21.8169   10.2652    3.1551 H   0  0  0  0  0  0  0  0  0  0  0  0  # atno 567  bound_to 564 
   25.1783    4.4357  -11.9508 H   0  0  0  0  0  0  0  0  0  0  0  0  # atno 1860 bound_to 1855
   19.0013    4.5229   -1.9428 H   0  0  0  0  0  0  0  0  0  0  0  0  # atno 2535 bound_to 2524
   18.5817    3.2678   -0.9448 H   0  0  0  0  0  0  0  0  0  0  0  0  # atno 2536 bound_to 2524
   19.3017    4.6223   -0.3157 H   0  0  0  0  0  0  0  0  0  0  0  0  # atno 2537 bound_to 2524
   18.2657    2.2931   -0.5049 H   0  0  0  0  0  0  0  0  0  0  0  0  # atno 3063 bound_to 3056
   20.6441   -4.0315   -4.3736 H   0  0  0  0  0  0  0  0  0  0  0  0  # atno 3113 bound_to 3104
   15.6178  -13.4921   -7.8621 H   0  0  0  0  0  0  0  0  0  0  0  0  # atno 3510 bound_to 3501
   15.0459  -13.9736  -11.8246 H   0  0  0  0  0  0  0  0  0  0  0  0  # atno 3590 bound_to 3581
    8.8284    0.8777    3.2887 H   0  0  0  0  0  0  0  0  0  0  0  0  # atno 3778 bound_to 3769
   21.9636    9.8520   -9.5432 H   0  0  0  0  0  0  0  0  0  0  0  0  # atno 5056 bound_to 5047
   16.6525  -14.1896  -11.6843 LP  0  0  0  0  0  0  0  0  0  0  0  0  # atno 5350 bound_to 3581
   16.0048  -13.7691  -13.1231 LP  0  0  0  0  0  0  0  0  0  0  0  0  # atno 5351 bound_to 3581
   15.3670  -14.6512   -6.7474 LP  0  0  0  0  0  0  0  0  0  0  0  0  # atno 5358 bound_to 3501
   16.3836  -14.9219   -7.9963 LP  0  0  0  0  0  0  0  0  0  0  0  0  # atno 5359 bound_to 3501
    9.4249    0.5524    1.8098 LP  0  0  0  0  0  0  0  0  0  0  0  0  # atno 5412 bound_to 3769
   10.3045    0.2083    3.1419 LP  0  0  0  0  0  0  0  0  0  0  0  0  # atno 5413 bound_to 3769
   18.2958    2.1496    1.1158 LP  0  0  0  0  0  0  0  0  0  0  0  0  # atno 5416 bound_to 3056
   17.0566    2.9218    0.3845 LP  0  0  0  0  0  0  0  0  0  0  0  0  # atno 5417 bound_to 3056
   23.2039   10.1409   -8.5300 LP  0  0  0  0  0  0  0  0  0  0  0  0  # atno 5426 bound_to 5047
   23.4876    9.8619  -10.1137 LP  0  0  0  0  0  0  0  0  0  0  0  0  # atno 5427 bound_to 5047
   20.5018   10.7521   -5.0596 LP  0  0  0  0  0  0  0  0  0  0  0  0  # atno 5430 bound_to 544 
   20.4046   11.8372   -6.2760 LP  0  0  0  0  0  0  0  0  0  0  0  0  # atno 5431 bound_to 544 
   26.2062    5.3847  -12.7822 LP  0  0  0  0  0  0  0  0  0  0  0  0  # atno 5436 bound_to 1855
   26.7205    4.5870  -11.4534 LP  0  0  0  0  0  0  0  0  0  0  0  0  # atno 5437 bound_to 1855
   20.9097   -5.5392   -3.8206 LP  0  0  0  0  0  0  0  0  0  0  0  0  # atno 5458 bound_to 3104
   22.0011   -4.3583   -3.5362 LP  0  0  0  0  0  0  0  0  0  0  0  0  # atno 5459 bound_to 3104
   22.4420    8.7712    2.9918 LP  0  0  0  0  0  0  0  0  0  0  0  0  # atno 5468 bound_to 564 
   21.9376    9.2929    4.4548 LP  0  0  0  0  0  0  0  0  0  0  0  0  # atno 5469 bound_to 564 

> <Gold.Score>
     Fitness  S(hb_ext) S(vdw_ext)  S(hb_int)    S(int)      intcor
     27.17       3.57      17.29       0.00      -0.17      -0.77

> <Gold.Goldscore.Fitness>
27.1654

> <Gold.Goldscore.Internal.Vdw>
-0.3972

> <Gold.Goldscore.Internal.Torsion>
-0.5392

> <Gold.Goldscore.External.Vdw>
17.2852

> <Gold.Goldscore.Internal.HBond>
0.0000

> <Gold.Goldscore.External.HBond>
3.5694

> <Gold.Goldscore.Internal.Correction>
-0.7653

> <Gold.Goldscore.Hbonds>
donor molecule, donor type, donor heavy atom, donor atom, acceptor molecule, acceptor atom, score
      P1  H  1922  1925       L1     9  0.59

> <Gold.Goldscore.Internal.Vdw.Weighted>
-0.3972

> <Gold.Goldscore.Internal.Torsion.Weighted>
-0.5392

> <Gold.Goldscore.External.Vdw.Weighted>
23.7671

> <Gold.Goldscore.Internal.HBond.Weighted>
0.0000

> <Gold.Goldscore.External.HBond.Weighted>
3.5694

> <Gold.Goldscore.Internal.Correction.Weighted>
-0.7653

> <Gold.Rescore>
     Score     S(PLP)   S(hbond)     S(cho)   S(metal)  DE(clash)   DE(tors)     intcor
     16.45     -15.16       1.23       0.00       0.00       0.00       1.20       ----

> <Gold.PLP.Fitness>
16.4503

> <Gold.PLP.PLP>
-15.1601

> <Gold.PLP.part.hbond>
-1.6547

> <Gold.PLP.part.metal>
0.0000

> <Gold.PLP.part.buried>
-2.0309

> <Gold.PLP.part.nonpolar>
-12.8462

> <Gold.PLP.part.repulsive>
1.0641

> <Gold.PLP.ligand.clash>
0.0000

> <Gold.PLP.ligand.torsion>
1.2032

> <Gold.PLP.Chemscore.Hbond>
1.2322

> <Gold.PLP.Chemscore.CHOScore>
0.0000

> <Gold.PLP.Chemscore.Metal>
0.0000

> <Gold.Chemscore.Hbonds>
donor molecule, donor type, donor heavy atom, donor atom, acceptor molecule, acceptor atom, score
      P1  H  1922  1925       L1     9  0.52

> <Gold.PLP.Chemscore.Internal.Correction>
   9.000000E+99

