#       Name:                CT1002167954
#       Creating user name   hitesit
#       Creation time:       Sun Apr 16 22:51:10 2023


#       File generated by GOLD software.
#

@<TRIPOS>MOLECULE
CT1002167954|ligand_prepared|mol2|1|dock3
    29    30     1
SMALL
NO_CHARGES


@<TRIPOS>ATOM
      1 C1          16.2656   1.9699  -6.0479 C.3            1 RES1               0.0000
      2 C2          16.7037   0.4942  -5.9527 C.ar           1 RES1               0.0000
      3 C3          15.8883   2.3970  -4.6324 C.2            1 RES1               0.0000
      4 C4          17.4513   2.7301  -6.6318 C.2            1 RES1               0.0000
      5 C5          15.0476   2.2017  -6.9721 C.3            1 RES1               0.0000
      6 C6          17.5749   0.0769  -4.9509 C.ar           1 RES1               0.0000
      7 C7          16.2437  -0.4602  -6.8561 C.ar           1 RES1               0.0000
      8 N8          16.7505   3.2200  -3.9698 N.am           1 RES1               0.0000
      9 O9          14.8691   1.9862  -4.0913 O.2            1 RES1               0.0000
     10 N10         18.0761   3.6545  -5.8363 N.am           1 RES1               0.0000
     11 O11         17.8606   2.5249  -7.7679 O.2            1 RES1               0.0000
     12 C12         14.4695   3.6054  -6.8841 C.3            1 RES1               0.0000
     13 C13         17.9698  -1.2471  -4.8539 C.ar           1 RES1               0.0000
     14 C14         16.6400  -1.7837  -6.7574 C.ar           1 RES1               0.0000
     15 C15         17.7987   3.9120  -4.5214 C.2            1 RES1               0.0000
     16 C16         17.5023  -2.1783  -5.7567 C.ar           1 RES1               0.0000
     17 O17         18.4409   4.7196  -3.8562 O.2            1 RES1               0.0000
     18 H18         15.3491   2.0083  -8.0089 H              1 RES1               0.0000
     19 H19         14.2637   1.4801  -6.7107 H              1 RES1               0.0000
     20 H20         17.9551   0.7959  -4.2329 H              1 RES1               0.0000
     21 H21         15.5655  -0.1724  -7.6521 H              1 RES1               0.0000
     22 H22         16.6023   3.3313  -2.9718 H              1 RES1               0.0000
     23 H23         18.8164   4.2016  -6.2640 H              1 RES1               0.0000
     24 H24         13.6177   3.7143  -7.5521 H              1 RES1               0.0000
     25 H25         14.1360   3.8225  -5.8715 H              1 RES1               0.0000
     26 H26         15.2151   4.3476  -7.1619 H              1 RES1               0.0000
     27 H27         18.6497  -1.5523  -4.0653 H              1 RES1               0.0000
     28 H28         16.2701  -2.5131  -7.4705 H              1 RES1               0.0000
     29 H29         17.8115  -3.2155  -5.6802 H              1 RES1               0.0000
@<TRIPOS>BOND
    1    1    2 1     
    2    1    3 1     
    3    1    4 1     
    4    1    5 1     
    5    2    6 ar    
    6    2    7 ar    
    7    3    8 1     
    8    3    9 2     
    9    4   10 1     
   10    4   11 2     
   11    5   12 1     
   12    5   18 1     
   13    5   19 1     
   14    6   13 ar    
   15    6   20 1     
   16    7   14 ar    
   17    7   21 1     
   18    8   15 1     
   19    8   22 1     
   20   10   15 1     
   21   10   23 1     
   22   12   24 1     
   23   12   25 1     
   24   12   26 1     
   25   13   16 ar    
   26   13   27 1     
   27   14   16 ar    
   28   14   28 1     
   29   15   17 2     
   30   16   29 1     
@<TRIPOS>SUBSTRUCTURE
      1 RES1           1
@<TRIPOS>SET
DONOR_HYDROGENS      STATIC     ATOMS    <user>   **** ""
2 22 23
ATOM$RED        STATIC     ATOMS    COLORGROUP SYSTEM
2 22 23
@<TRIPOS>COMMENT
> <Gold.Version>
2022.3.0

> <Gold.Id.Protein>
unknown|3nx8_clean|pdb

> <Gold.Protein.RotatedTorsions>
[ 3590 3581 3580 3578 ] final   -4.23 input   60.00 | X-H torsion
[ 3510 3501 3500 3498 ] final -118.14 input   59.99 | X-H torsion
[ 3778 3769 3768 3766 ] final  -86.14 input   60.02 | X-H torsion
[ 2535 2524 2523 2522 ] final   24.00 input   60.02 | X-H torsion
[ 3063 3056 3054 3051 ] final  -83.98 input   59.97 | X-H torsion
[ 5056 5047 5046 5044 ] final -108.58 input   59.99 | X-H torsion
[  549  544  542  539 ] final  148.31 input   60.01 | X-H torsion
[ 1860 1855 1854 1851 ] final -121.58 input   60.02 | X-H torsion
[ 3113 3104 3103 3101 ] final   -5.12 input   60.01 | X-H torsion
[  567  564  563  560 ] final  116.09 input   60.03 | X-H torsion

> <Gold.Protein.ActiveResidues>
 LEU49   GLY50   THR51   GLY52   SER53   PHE54   VAL57   LEU82   GLN84   HIS87  
 GLU127  MET128  PHE129  SER130  LEU132  ARG133  ARG134  ILE135  GLY136  ARG137 
 ARG165  ASP166  LEU167  LYS168  PRO169  GLU170  ASN171  LEU172  LEU173  THR183 
 ASP184  GLY186  PHE187  TPO197  LEU198  CYS199  GLY200  THR201  PRO202  GLU203 
 TYR204  LEU205  ILE209  ILE210  VAL226  LEU227  TYR229  GLU230  ALA233  GLY234 
 TYR235  PRO236  PRO237  PHE238  PHE239  ALA240  ASP241  GLN242  PRO243  ILE244 
 GLN245  ILE246  TYR247  ARG256  PHE257  PRO258  SER259  PHE327  ASP328  TYR330 

> <Gold.Protein.RotatedAtoms>
   19.2254   11.7285   -5.1337 H   0  0  0  0  0  0  0  0  0  0  0  0  # atno 549  bound_to 544 
   21.7242    9.9292    4.2587 H   0  0  0  0  0  0  0  0  0  0  0  0  # atno 567  bound_to 564 
   25.8637    5.3051  -12.8330 H   0  0  0  0  0  0  0  0  0  0  0  0  # atno 1860 bound_to 1855
   18.6444    3.3179   -0.6884 H   0  0  0  0  0  0  0  0  0  0  0  0  # atno 2535 bound_to 2524
   19.3557    4.8037   -0.5042 H   0  0  0  0  0  0  0  0  0  0  0  0  # atno 2536 bound_to 2524
   18.8846    4.2908   -2.0087 H   0  0  0  0  0  0  0  0  0  0  0  0  # atno 2537 bound_to 2524
   17.2101    2.8756   -0.1789 H   0  0  0  0  0  0  0  0  0  0  0  0  # atno 3063 bound_to 3056
   20.5284   -4.1813   -4.3970 H   0  0  0  0  0  0  0  0  0  0  0  0  # atno 3113 bound_to 3104
   15.2545  -14.3746   -6.7673 H   0  0  0  0  0  0  0  0  0  0  0  0  # atno 3510 bound_to 3501
   15.6104  -14.1548  -11.3372 H   0  0  0  0  0  0  0  0  0  0  0  0  # atno 3590 bound_to 3581
    9.8538    0.4277    3.6139 H   0  0  0  0  0  0  0  0  0  0  0  0  # atno 3778 bound_to 3769
   22.2574    9.7750  -10.0700 H   0  0  0  0  0  0  0  0  0  0  0  0  # atno 5056 bound_to 5047
   16.8159  -14.0294  -12.4228 LP  0  0  0  0  0  0  0  0  0  0  0  0  # atno 5350 bound_to 3581
   15.2727  -13.7468  -12.8757 LP  0  0  0  0  0  0  0  0  0  0  0  0  # atno 5351 bound_to 3581
   16.3085  -15.1044   -7.7700 LP  0  0  0  0  0  0  0  0  0  0  0  0  # atno 5358 bound_to 3501
   15.8078  -13.5805   -8.0758 LP  0  0  0  0  0  0  0  0  0  0  0  0  # atno 5359 bound_to 3501
    8.6647    0.9280    2.6217 LP  0  0  0  0  0  0  0  0  0  0  0  0  # atno 5412 bound_to 3769
   10.0325    0.2858    2.0025 LP  0  0  0  0  0  0  0  0  0  0  0  0  # atno 5413 bound_to 3769
   18.6166    2.0612   -0.0971 LP  0  0  0  0  0  0  0  0  0  0  0  0  # atno 5416 bound_to 3056
   17.7990    2.4237    1.2692 LP  0  0  0  0  0  0  0  0  0  0  0  0  # atno 5417 bound_to 3056
   22.5935   10.0961   -8.5105 LP  0  0  0  0  0  0  0  0  0  0  0  0  # atno 5426 bound_to 5047
   23.8021    9.9842   -9.6028 LP  0  0  0  0  0  0  0  0  0  0  0  0  # atno 5427 bound_to 5047
   20.5282   10.7545   -5.0851 LP  0  0  0  0  0  0  0  0  0  0  0  0  # atno 5430 bound_to 544 
   20.3754   11.8594   -6.2777 LP  0  0  0  0  0  0  0  0  0  0  0  0  # atno 5431 bound_to 544 
   26.8931    4.8059  -11.6755 LP  0  0  0  0  0  0  0  0  0  0  0  0  # atno 5436 bound_to 1855
   25.3436    4.2905  -11.6718 LP  0  0  0  0  0  0  0  0  0  0  0  0  # atno 5437 bound_to 1855
   21.0743   -5.5593   -3.7241 LP  0  0  0  0  0  0  0  0  0  0  0  0  # atno 5458 bound_to 3104
   21.9528   -4.1875   -3.6092 LP  0  0  0  0  0  0  0  0  0  0  0  0  # atno 5459 bound_to 3104
   22.0872    9.8347    2.6749 LP  0  0  0  0  0  0  0  0  0  0  0  0  # atno 5468 bound_to 564 
   22.3858    8.5676    3.6607 LP  0  0  0  0  0  0  0  0  0  0  0  0  # atno 5469 bound_to 564 

> <Gold.Score>
     Fitness  S(hb_ext) S(vdw_ext)  S(hb_int)    S(int)      intcor
     28.59       4.18      17.85       0.00      -0.14      -0.77

> <Gold.Goldscore.Fitness>
28.5875

> <Gold.Goldscore.Internal.Vdw>
-0.3787

> <Gold.Goldscore.Internal.Torsion>
-0.5237

> <Gold.Goldscore.External.Vdw>
17.8529

> <Gold.Goldscore.Internal.HBond>
0.0000

> <Gold.Goldscore.External.HBond>
4.1768

> <Gold.Goldscore.Internal.Correction>
-0.7653

> <Gold.Goldscore.Hbonds>
donor molecule, donor type, donor heavy atom, donor atom, acceptor molecule, acceptor atom, score
      P1  H  2524  2537       L1    17  0.69
      L1  H     8    22       P1  3056  0.03

> <Gold.Goldscore.Internal.Vdw.Weighted>
-0.3787

> <Gold.Goldscore.Internal.Torsion.Weighted>
-0.5237

> <Gold.Goldscore.External.Vdw.Weighted>
24.5478

> <Gold.Goldscore.Internal.HBond.Weighted>
0.0000

> <Gold.Goldscore.External.HBond.Weighted>
4.1768

> <Gold.Goldscore.Internal.Correction.Weighted>
-0.7653

> <Gold.Rescore>
     Score     S(PLP)   S(hbond)     S(cho)   S(metal)  DE(clash)   DE(tors)     intcor
     23.24     -22.36       0.99       0.00       0.00       0.00       1.04       ----

> <Gold.PLP.Fitness>
23.2402

> <Gold.PLP.PLP>
-22.3554

> <Gold.PLP.part.hbond>
-2.0000

> <Gold.PLP.part.metal>
0.0000

> <Gold.PLP.part.buried>
-3.8478

> <Gold.PLP.part.nonpolar>
-18.0041

> <Gold.PLP.part.repulsive>
0.3470

> <Gold.PLP.ligand.clash>
0.0000

> <Gold.PLP.ligand.torsion>
1.0445

> <Gold.PLP.Chemscore.Hbond>
0.9913

> <Gold.PLP.Chemscore.CHOScore>
0.0000

> <Gold.PLP.Chemscore.Metal>
0.0000

> <Gold.Chemscore.Hbonds>
donor molecule, donor type, donor heavy atom, donor atom, acceptor molecule, acceptor atom, score
      P1  H  2524  2537       L1    17  1.00

> <Gold.PLP.Chemscore.Internal.Correction>
   9.000000E+99

