#       Name:                CT1002167954
#       Creating user name   hitesit
#       Creation time:       Sun Apr 16 22:51:14 2023


#       File generated by GOLD software.
#

@<TRIPOS>MOLECULE
CT1002167954|ligand_prepared|mol2|1|dock8
    29    30     1
SMALL
NO_CHARGES


@<TRIPOS>ATOM
      1 C1          14.9966  -1.3880  -8.6492 C.3            1 RES1               0.0000
      2 C2          15.0941  -2.4934  -9.7203 C.ar           1 RES1               0.0000
      3 C3          15.8568  -0.2307  -9.1483 C.2            1 RES1               0.0000
      4 C4          13.5155  -1.0508  -8.5178 C.2            1 RES1               0.0000
      5 C5          15.5136  -1.8196  -7.2571 C.3            1 RES1               0.0000
      6 C6          14.6182  -3.7753  -9.4611 C.ar           1 RES1               0.0000
      7 C7          15.6540  -2.2463 -10.9710 C.ar           1 RES1               0.0000
      8 N8          15.2147   0.8741  -9.6247 N.am           1 RES1               0.0000
      9 O9          17.0795  -0.3023  -9.1605 O.2            1 RES1               0.0000
     10 N10         13.1056   0.2001  -8.8987 N.am           1 RES1               0.0000
     11 O11         12.6971  -1.8626  -8.1036 O.2            1 RES1               0.0000
     12 C12         15.6259  -0.6746  -6.2628 C.3            1 RES1               0.0000
     13 C13         14.6964  -4.7731 -10.4185 C.ar           1 RES1               0.0000
     14 C14         15.7314  -3.2457 -11.9269 C.ar           1 RES1               0.0000
     15 C15         13.8830   1.1674  -9.4749 C.2            1 RES1               0.0000
     16 C16         15.2526  -4.5089 -11.6520 C.ar           1 RES1               0.0000
     17 O17         13.4303   2.2483  -9.8407 O.2            1 RES1               0.0000
     18 H18         14.8346  -2.5776  -6.8476 H              1 RES1               0.0000
     19 H19         16.5011  -2.2827  -7.3751 H              1 RES1               0.0000
     20 H20         14.1795  -4.0025  -8.4953 H              1 RES1               0.0000
     21 H21         16.0381  -1.2601 -11.2090 H              1 RES1               0.0000
     22 H22         15.7766   1.5443 -10.1399 H              1 RES1               0.0000
     23 H23         12.1305   0.4316  -8.7375 H              1 RES1               0.0000
     24 H24         15.9930  -1.0320  -5.3029 H              1 RES1               0.0000
     25 H25         16.3134   0.0862  -6.6266 H              1 RES1               0.0000
     26 H26         14.6568  -0.2069  -6.1022 H              1 RES1               0.0000
     27 H27         14.3194  -5.7660 -10.1967 H              1 RES1               0.0000
     28 H28         16.1704  -3.0334 -12.8961 H              1 RES1               0.0000
     29 H29         15.3133  -5.2907 -12.4019 H              1 RES1               0.0000
@<TRIPOS>BOND
    1    1    2 1     
    2    1    3 1     
    3    1    4 1     
    4    1    5 1     
    5    2    6 ar    
    6    2    7 ar    
    7    3    8 1     
    8    3    9 2     
    9    4   10 1     
   10    4   11 2     
   11    5   12 1     
   12    5   18 1     
   13    5   19 1     
   14    6   13 ar    
   15    6   20 1     
   16    7   14 ar    
   17    7   21 1     
   18    8   15 1     
   19    8   22 1     
   20   10   15 1     
   21   10   23 1     
   22   12   24 1     
   23   12   25 1     
   24   12   26 1     
   25   13   16 ar    
   26   13   27 1     
   27   14   16 ar    
   28   14   28 1     
   29   15   17 2     
   30   16   29 1     
@<TRIPOS>SUBSTRUCTURE
      1 RES1           1
@<TRIPOS>SET
DONOR_HYDROGENS      STATIC     ATOMS    <user>   **** ""
2 22 23
ATOM$RED        STATIC     ATOMS    COLORGROUP SYSTEM
2 22 23
@<TRIPOS>COMMENT
> <Gold.Version>
2022.3.0

> <Gold.Id.Protein>
unknown|3nx8_clean|pdb

> <Gold.Protein.RotatedTorsions>
[ 3590 3581 3580 3578 ] final  139.52 input   60.00 | X-H torsion
[ 3510 3501 3500 3498 ] final  -28.66 input   59.99 | X-H torsion
[ 3778 3769 3768 3766 ] final  104.82 input   60.02 | X-H torsion
[ 2535 2524 2523 2522 ] final -105.08 input   60.02 | X-H torsion
[ 3063 3056 3054 3051 ] final   80.34 input   59.97 | X-H torsion
[ 5056 5047 5046 5044 ] final  100.44 input   59.99 | X-H torsion
[  549  544  542  539 ] final -132.36 input   60.01 | X-H torsion
[ 1860 1855 1854 1851 ] final  162.88 input   60.02 | X-H torsion
[ 3113 3104 3103 3101 ] final   87.74 input   60.01 | X-H torsion
[  567  564  563  560 ] final  137.38 input   60.03 | X-H torsion

> <Gold.Protein.ActiveResidues>
 LEU49   GLY50   THR51   GLY52   SER53   PHE54   VAL57   LEU82   GLN84   HIS87  
 GLU127  MET128  PHE129  SER130  LEU132  ARG133  ARG134  ILE135  GLY136  ARG137 
 ARG165  ASP166  LEU167  LYS168  PRO169  GLU170  ASN171  LEU172  LEU173  THR183 
 ASP184  GLY186  PHE187  TPO197  LEU198  CYS199  GLY200  THR201  PRO202  GLU203 
 TYR204  LEU205  ILE209  ILE210  VAL226  LEU227  TYR229  GLU230  ALA233  GLY234 
 TYR235  PRO236  PRO237  PHE238  PHE239  ALA240  ASP241  GLN242  PRO243  ILE244 
 GLN245  ILE246  TYR247  ARG256  PHE257  PRO258  SER259  PHE327  ASP328  TYR330 

> <Gold.Protein.RotatedAtoms>
   19.8044   12.1232   -6.1019 H   0  0  0  0  0  0  0  0  0  0  0  0  # atno 549  bound_to 544 
   21.8095    9.6321    4.4145 H   0  0  0  0  0  0  0  0  0  0  0  0  # atno 567  bound_to 564 
   26.8515    5.2126  -12.2572 H   0  0  0  0  0  0  0  0  0  0  0  0  # atno 1860 bound_to 1855
   18.9502    4.4245   -1.9805 H   0  0  0  0  0  0  0  0  0  0  0  0  # atno 2535 bound_to 2524
   18.6057    3.2813   -0.8309 H   0  0  0  0  0  0  0  0  0  0  0  0  # atno 2536 bound_to 2524
   19.3288    4.7072   -0.3918 H   0  0  0  0  0  0  0  0  0  0  0  0  # atno 2537 bound_to 2524
   18.3844    2.1027    1.0312 H   0  0  0  0  0  0  0  0  0  0  0  0  # atno 3063 bound_to 3056
   21.7191   -3.8785   -3.8198 H   0  0  0  0  0  0  0  0  0  0  0  0  # atno 3113 bound_to 3104
   15.4986  -13.4787   -7.7034 H   0  0  0  0  0  0  0  0  0  0  0  0  # atno 3510 bound_to 3501
   15.6090  -13.7366  -13.0664 H   0  0  0  0  0  0  0  0  0  0  0  0  # atno 3590 bound_to 3581
    9.0372    0.7309    1.9655 H   0  0  0  0  0  0  0  0  0  0  0  0  # atno 3778 bound_to 3769
   23.0933   10.1400   -8.5033 H   0  0  0  0  0  0  0  0  0  0  0  0  # atno 5056 bound_to 5047
   15.2738  -14.0768  -11.5109 LP  0  0  0  0  0  0  0  0  0  0  0  0  # atno 5350 bound_to 3581
   16.8162  -14.1207  -12.0453 LP  0  0  0  0  0  0  0  0  0  0  0  0  # atno 5351 bound_to 3581
   15.4703  -14.8194   -6.7812 LP  0  0  0  0  0  0  0  0  0  0  0  0  # atno 5358 bound_to 3501
   16.4004  -14.7672   -8.1224 LP  0  0  0  0  0  0  0  0  0  0  0  0  # atno 5359 bound_to 3501
   10.3752    0.1586    2.6942 LP  0  0  0  0  0  0  0  0  0  0  0  0  # atno 5412 bound_to 3769
    9.1441    0.7500    3.5894 LP  0  0  0  0  0  0  0  0  0  0  0  0  # atno 5413 bound_to 3769
   17.0667    2.9057    0.5145 LP  0  0  0  0  0  0  0  0  0  0  0  0  # atno 5416 bound_to 3056
   18.1663    2.3575   -0.5612 LP  0  0  0  0  0  0  0  0  0  0  0  0  # atno 5417 bound_to 3056
   23.5700    9.8829  -10.0379 LP  0  0  0  0  0  0  0  0  0  0  0  0  # atno 5426 bound_to 5047
   21.9840    9.8299   -9.6528 LP  0  0  0  0  0  0  0  0  0  0  0  0  # atno 5427 bound_to 5047
   19.4749   11.2454   -4.7718 LP  0  0  0  0  0  0  0  0  0  0  0  0  # atno 5430 bound_to 544 
   20.8456   10.9708   -5.6158 LP  0  0  0  0  0  0  0  0  0  0  0  0  # atno 5431 bound_to 544 
   25.9579    4.2329  -11.3137 LP  0  0  0  0  0  0  0  0  0  0  0  0  # atno 5436 bound_to 1855
   25.2843    4.9567  -12.6134 LP  0  0  0  0  0  0  0  0  0  0  0  0  # atno 5437 bound_to 1855
   20.3664   -4.5910   -4.3783 LP  0  0  0  0  0  0  0  0  0  0  0  0  # atno 5458 bound_to 3104
   21.4623   -5.4606   -3.5360 LP  0  0  0  0  0  0  0  0  0  0  0  0  # atno 5459 bound_to 3104
   21.9469   10.0945    2.8600 LP  0  0  0  0  0  0  0  0  0  0  0  0  # atno 5468 bound_to 564 
   22.4401    8.6069    3.3188 LP  0  0  0  0  0  0  0  0  0  0  0  0  # atno 5469 bound_to 564 

> <Gold.Score>
     Fitness  S(hb_ext) S(vdw_ext)  S(hb_int)    S(int)      intcor
     24.88       6.00      14.83       0.00      -1.52      -0.76

> <Gold.Goldscore.Fitness>
24.8751

> <Gold.Goldscore.Internal.Vdw>
-1.7777

> <Gold.Goldscore.Internal.Torsion>
-0.5071

> <Gold.Goldscore.External.Vdw>
14.8328

> <Gold.Goldscore.Internal.HBond>
0.0000

> <Gold.Goldscore.External.HBond>
6.0000

> <Gold.Goldscore.Internal.Correction>
-0.7650

> <Gold.Goldscore.Hbonds>
donor molecule, donor type, donor heavy atom, donor atom, acceptor molecule, acceptor atom, score
      P1  H  1922  1925       L1     9  1.00

> <Gold.Goldscore.Internal.Vdw.Weighted>
-1.7777

> <Gold.Goldscore.Internal.Torsion.Weighted>
-0.5071

> <Gold.Goldscore.External.Vdw.Weighted>
20.3951

> <Gold.Goldscore.Internal.HBond.Weighted>
0.0000

> <Gold.Goldscore.External.HBond.Weighted>
6.0000

> <Gold.Goldscore.Internal.Correction.Weighted>
-0.7650

> <Gold.Rescore>
     Score     S(PLP)   S(hbond)     S(cho)   S(metal)  DE(clash)   DE(tors)     intcor
     27.08     -24.50       1.44       0.00       0.00       1.29       0.22       ----

> <Gold.PLP.Fitness>
27.0771

> <Gold.PLP.PLP>
-24.4967

> <Gold.PLP.part.hbond>
-2.0000

> <Gold.PLP.part.metal>
0.0000

> <Gold.PLP.part.buried>
-1.6628

> <Gold.PLP.part.nonpolar>
-21.6829

> <Gold.PLP.part.repulsive>
0.1241

> <Gold.PLP.ligand.clash>
1.2899

> <Gold.PLP.ligand.torsion>
0.2248

> <Gold.PLP.Chemscore.Hbond>
1.4400

> <Gold.PLP.Chemscore.CHOScore>
0.0000

> <Gold.PLP.Chemscore.Metal>
0.0000

> <Gold.Chemscore.Hbonds>
donor molecule, donor type, donor heavy atom, donor atom, acceptor molecule, acceptor atom, score
      P1  H  1922  1925       L1     9  0.62

> <Gold.PLP.Chemscore.Internal.Correction>
   9.000000E+99

