#       Name:                CT1002167954
#       Creating user name   hitesit
#       Creation time:       Sun Apr 16 23:06:31 2023


#       File generated by GOLD software.
#

@<TRIPOS>MOLECULE
CT1002167954|ligand_prepared|mol2|1|dock8
    29    30     1
SMALL
NO_CHARGES


@<TRIPOS>ATOM
      1 C1         247.0374  -9.9607  39.0225 C.3            1 RES1               0.0000
      2 C2         247.6377  -8.5522  38.8370 C.ar           1 RES1               0.0000
      3 C3         247.8454 -10.6283  40.1314 C.2            1 RES1               0.0000
      4 C4         245.5653  -9.7557  39.3625 C.2            1 RES1               0.0000
      5 C5         247.1166 -10.8453  37.7565 C.3            1 RES1               0.0000
      6 C6         247.3957  -7.8262  37.6747 C.ar           1 RES1               0.0000
      7 C7         248.4318  -7.9656  39.8188 C.ar           1 RES1               0.0000
      8 N8         247.2518 -10.7639  41.3517 N.am           1 RES1               0.0000
      9 O9         249.0000 -10.9943  39.9490 O.2            1 RES1               0.0000
     10 N10        245.1362 -10.1292  40.6092 N.am           1 RES1               0.0000
     11 O11        244.7766  -9.2588  38.5680 O.2            1 RES1               0.0000
     12 C12        246.7549 -12.3016  38.0024 C.3            1 RES1               0.0000
     13 C13        247.9258  -6.5584  37.5012 C.ar           1 RES1               0.0000
     14 C14        248.9612  -6.6977  39.6432 C.ar           1 RES1               0.0000
     15 C15        245.9191 -10.5956  41.6299 C.2            1 RES1               0.0000
     16 C16        248.7085  -5.9932  38.4854 C.ar           1 RES1               0.0000
     17 O17        245.4687 -10.8588  42.7412 O.2            1 RES1               0.0000
     18 H18        246.4386 -10.4365  36.9971 H              1 RES1               0.0000
     19 H19        248.1366 -10.7978  37.3557 H              1 RES1               0.0000
     20 H20        246.7842  -8.2557  36.8881 H              1 RES1               0.0000
     21 H21        248.6448  -8.5017  40.7374 H              1 RES1               0.0000
     22 H22        247.8545 -11.0136  42.1294 H              1 RES1               0.0000
     23 H23        244.1410 -10.0526  40.7933 H              1 RES1               0.0000
     24 H24        246.8267 -12.8776  37.0822 H              1 RES1               0.0000
     25 H25        247.4253 -12.7473  38.7343 H              1 RES1               0.0000
     26 H26        245.7373 -12.3882  38.3779 H              1 RES1               0.0000
     27 H27        247.7251  -6.0087  36.5876 H              1 RES1               0.0000
     28 H28        249.5771  -6.2570  40.4202 H              1 RES1               0.0000
     29 H29        249.1234  -4.9999  38.3495 H              1 RES1               0.0000
@<TRIPOS>BOND
    1    1    2 1     
    2    1    3 1     
    3    1    4 1     
    4    1    5 1     
    5    2    6 ar    
    6    2    7 ar    
    7    3    8 1     
    8    3    9 2     
    9    4   10 1     
   10    4   11 2     
   11    5   12 1     
   12    5   18 1     
   13    5   19 1     
   14    6   13 ar    
   15    6   20 1     
   16    7   14 ar    
   17    7   21 1     
   18    8   15 1     
   19    8   22 1     
   20   10   15 1     
   21   10   23 1     
   22   12   24 1     
   23   12   25 1     
   24   12   26 1     
   25   13   16 ar    
   26   13   27 1     
   27   14   16 ar    
   28   14   28 1     
   29   15   17 2     
   30   16   29 1     
@<TRIPOS>SUBSTRUCTURE
      1 RES1           1
@<TRIPOS>SET
DONOR_HYDROGENS      STATIC     ATOMS    <user>   **** ""
2 22 23
ATOM$RED        STATIC     ATOMS    COLORGROUP SYSTEM
2 22 23
@<TRIPOS>COMMENT
> <Gold.Version>
2022.3.0

> <Gold.Id.Protein>
unknown|4v3u_clean|pdb

> <Gold.Protein.RotatedTorsions>
[ 6612 6571 6572 6573 ] final  -10.53 input  122.18 | X-H torsion
[ 6698 6659 6660 6661 ] final -119.29 input  126.07 | X-H torsion
[ 8064 8023 8024 8025 ] final -138.14 input   40.84 | X-H torsion
[ 8135 8102 8103 8104 ] final   24.16 input  100.47 | X-H torsion
[ 8198 8164 8165 8166 ] final   35.70 input   73.50 | X-H torsion
[ 8278 8240 8241 8242 ] final  106.23 input   88.79 | X-H torsion
[ 9578 9542 9541 9539 ] final -106.86 input   60.02 | X-H torsion
[ 8331 8311 8312 8313 ] final   25.16 input   92.25 | X-H torsion
[ 7986 7938 7939 7940 ] final -104.56 input   70.73 | X-H torsion
[ 7906 7885 7886 7887 ] final  -39.72 input  102.20 | X-H torsion
[ 6850 6802 6803 6804 ] final   -9.09 input  120.36 | X-H torsion
[ 10224 10183 10184 10185 ] final  122.93 input   40.62 | X-H torsion
[ 7910 7890 7889 7886 ] final -134.51 input   60.02 | X-H torsion
[ 27200 6334 6333 6332 ] final  -25.14 input    0.00 | X-H torsion
[ 27202 6498 6497 6496 ] final  -60.01 input   -0.00 | X-H torsion
[ 27205 6574 6573 6572 ] final  -75.69 input   -0.00 | X-H torsion
[ 27208 7888 7887 7886 ] final   77.47 input    0.00 | X-H torsion
[ 27211 8026 8025 8024 ] final  109.76 input   -0.00 | X-H torsion
[ 27214 8105 8104 8103 ] final  135.37 input    0.00 | X-H torsion
[ 27217 8167 8166 8165 ] final -133.56 input    0.00 | X-H torsion
[ 27222 10096 10095 10094 ] final   44.60 input   -0.00 | X-H torsion
[ 27225 10186 10185 10184 ] final   -9.97 input    0.00 | X-H torsion
[ 27228 7941 7940 7939 ] final  -18.52 input    0.00 | X-H torsion
[ 27230 7733 7732 7731 ] final  135.77 input   -0.00 | X-H torsion
[ 27232 7816 7815 7814 ] final  174.04 input   -0.00 | X-H torsion

> <Gold.Protein.ActiveResidues>
 ASP403  THR404  LEU406  ILE407  TYR408  ALA410  LYS411  TRP414  GLN425  TRP426 
 SER427  LYS428  LEU429  GLN430  VAL431  PHE432  ASP433  TYR453  SER462  ALA463 
 ILE464 

> <Gold.Protein.RotatedAtoms>
  241.1319   -7.1077   50.1477 H   0  0  0  0  0  0  0  0  0  0  0  0  # atno 6612 bound_to 6571
  240.3552   -8.5709   47.5010 H   0  0  0  0  0  0  0  0  0  0  0  0  # atno 6698 bound_to 6659
  240.3690   -3.6375   45.2523 H   0  0  0  0  0  0  0  0  0  0  0  0  # atno 6850 bound_to 6802
  241.2101   -6.6226   37.8525 H   0  0  0  0  0  0  0  0  0  0  0  0  # atno 7906 bound_to 7885
  238.4191   -9.4489   36.2346 H   0  0  0  0  0  0  0  0  0  0  0  0  # atno 7910 bound_to 7890
  242.0827   -8.9932   38.5460 H   0  0  0  0  0  0  0  0  0  0  0  0  # atno 7986 bound_to 7938
  245.1195   -8.1873   38.9200 H   0  0  0  0  0  0  0  0  0  0  0  0  # atno 8064 bound_to 8023
  247.7530   -6.9368   41.8903 H   0  0  0  0  0  0  0  0  0  0  0  0  # atno 8135 bound_to 8102
  248.3522   -8.9972   45.4638 H   0  0  0  0  0  0  0  0  0  0  0  0  # atno 8198 bound_to 8164
  249.8475   -5.8973   47.0929 H   0  0  0  0  0  0  0  0  0  0  0  0  # atno 8278 bound_to 8240
  250.9992   -7.4899   51.0521 H   0  0  0  0  0  0  0  0  0  0  0  0  # atno 8331 bound_to 8311
  251.8094  -10.8022   39.4767 H   0  0  0  0  0  0  0  0  0  0  0  0  # atno 9578 bound_to 9542
  248.7102   -3.8579   43.5610 H   0  0  0  0  0  0  0  0  0  0  0  0  # atno 10224 bound_to 10183
  242.5808   -9.0596   52.0756 LP  0  0  0  0  0  0  0  0  0  0  0  0  # atno 27200 bound_to 6334
  241.8687  -10.1513   50.9350 LP  0  0  0  0  0  0  0  0  0  0  0  0  # atno 27201 bound_to 6334
  240.8289   -4.9207   49.5054 LP  0  0  0  0  0  0  0  0  0  0  0  0  # atno 27202 bound_to 6498
  242.4776   -5.2154   49.0641 LP  0  0  0  0  0  0  0  0  0  0  0  0  # atno 27203 bound_to 6498
  242.5495   -8.0515   50.5514 LP  0  0  0  0  0  0  0  0  0  0  0  0  # atno 27204 bound_to 6571
  241.2212   -5.8950   46.6953 LP  0  0  0  0  0  0  0  0  0  0  0  0  # atno 27205 bound_to 6574
  240.9818   -7.2812   45.6848 LP  0  0  0  0  0  0  0  0  0  0  0  0  # atno 27206 bound_to 6574
  239.8572   -7.7108   48.9410 LP  0  0  0  0  0  0  0  0  0  0  0  0  # atno 27207 bound_to 6659
  241.7265  -10.9912   39.2590 LP  0  0  0  0  0  0  0  0  0  0  0  0  # atno 27208 bound_to 7888
  242.4689   -9.8692   40.3500 LP  0  0  0  0  0  0  0  0  0  0  0  0  # atno 27209 bound_to 7888
  244.5509   -8.9663   40.3801 LP  0  0  0  0  0  0  0  0  0  0  0  0  # atno 27210 bound_to 8023
  246.0200   -9.7028   42.7095 LP  0  0  0  0  0  0  0  0  0  0  0  0  # atno 27211 bound_to 8026
  245.3653   -8.2372   43.3602 LP  0  0  0  0  0  0  0  0  0  0  0  0  # atno 27212 bound_to 8026
  247.5606   -8.5335   41.2090 LP  0  0  0  0  0  0  0  0  0  0  0  0  # atno 27213 bound_to 8102
  248.3449   -5.6451   44.5116 LP  0  0  0  0  0  0  0  0  0  0  0  0  # atno 27214 bound_to 8105
  249.7880   -6.1545   43.7005 LP  0  0  0  0  0  0  0  0  0  0  0  0  # atno 27215 bound_to 8105
  247.8743   -7.6891   44.4080 LP  0  0  0  0  0  0  0  0  0  0  0  0  # atno 27216 bound_to 8164
  248.8732   -8.6802   49.1099 LP  0  0  0  0  0  0  0  0  0  0  0  0  # atno 27217 bound_to 8167
  248.6903   -9.4701   47.5793 LP  0  0  0  0  0  0  0  0  0  0  0  0  # atno 27218 bound_to 8167
  248.8752   -7.1726   47.7835 LP  0  0  0  0  0  0  0  0  0  0  0  0  # atno 27219 bound_to 8240
  251.0704  -10.5136   40.8972 LP  0  0  0  0  0  0  0  0  0  0  0  0  # atno 27220 bound_to 9542
  251.9647  -11.8654   40.6985 LP  0  0  0  0  0  0  0  0  0  0  0  0  # atno 27221 bound_to 9542
  250.0274   -7.0758   39.4531 LP  0  0  0  0  0  0  0  0  0  0  0  0  # atno 27222 bound_to 10096
  249.0528   -6.5565   40.7875 LP  0  0  0  0  0  0  0  0  0  0  0  0  # atno 27223 bound_to 10096
  249.4421   -7.0854   50.3709 LP  0  0  0  0  0  0  0  0  0  0  0  0  # atno 27224 bound_to 8311
  249.5869   -4.8316   46.0606 LP  0  0  0  0  0  0  0  0  0  0  0  0  # atno 27225 bound_to 10186
  250.6663   -4.4787   47.3684 LP  0  0  0  0  0  0  0  0  0  0  0  0  # atno 27226 bound_to 10186
  242.5579   -7.9307   37.2438 LP  0  0  0  0  0  0  0  0  0  0  0  0  # atno 27227 bound_to 7938
  245.8406   -7.5345   36.9663 LP  0  0  0  0  0  0  0  0  0  0  0  0  # atno 27228 bound_to 7941
  246.0838   -6.5798   38.3908 LP  0  0  0  0  0  0  0  0  0  0  0  0  # atno 27229 bound_to 7941
  243.1495   -6.0248   37.1332 LP  0  0  0  0  0  0  0  0  0  0  0  0  # atno 27230 bound_to 7733
  243.2139   -7.2594   35.9202 LP  0  0  0  0  0  0  0  0  0  0  0  0  # atno 27231 bound_to 7733
  241.1886   -6.8678   40.0289 LP  0  0  0  0  0  0  0  0  0  0  0  0  # atno 27232 bound_to 7816
  241.6328   -5.2120   39.7817 LP  0  0  0  0  0  0  0  0  0  0  0  0  # atno 27233 bound_to 7816
  239.7160   -7.0899   37.0773 LP  0  0  0  0  0  0  0  0  0  0  0  0  # atno 27234 bound_to 7885

> <Gold.Score>
     Fitness  S(hb_ext) S(vdw_ext)  S(hb_int)    S(int)      intcor
     34.16       6.00      21.27       0.00      -1.09      -0.78

> <Gold.Goldscore.Fitness>
34.1561

> <Gold.Goldscore.Internal.Vdw>
-1.3319

> <Gold.Goldscore.Internal.Torsion>
-0.5375

> <Gold.Goldscore.External.Vdw>
21.2736

> <Gold.Goldscore.Internal.HBond>
0.0000

> <Gold.Goldscore.External.HBond>
5.9991

> <Gold.Goldscore.Internal.Correction>
-0.7752

> <Gold.Goldscore.Hbonds>
donor molecule, donor type, donor heavy atom, donor atom, acceptor molecule, acceptor atom, score
      L1  H     8    22       P1  8110  1.00

> <Gold.Goldscore.Internal.Vdw.Weighted>
-1.3319

> <Gold.Goldscore.Internal.Torsion.Weighted>
-0.5375

> <Gold.Goldscore.External.Vdw.Weighted>
29.2511

> <Gold.Goldscore.Internal.HBond.Weighted>
0.0000

> <Gold.Goldscore.External.HBond.Weighted>
5.9991

> <Gold.Goldscore.Internal.Correction.Weighted>
-0.7752

> <Gold.Rescore>
     Score     S(PLP)   S(hbond)     S(cho)   S(metal)  DE(clash)   DE(tors)     intcor
     29.89     -31.29       0.00       0.00       0.00       1.36       0.02       ----

> <Gold.PLP.Fitness>
29.8929

> <Gold.PLP.PLP>
-31.2900

> <Gold.PLP.part.hbond>
-0.8303

> <Gold.PLP.part.metal>
0.0000

> <Gold.PLP.part.buried>
-5.5765

> <Gold.PLP.part.nonpolar>
-26.4288

> <Gold.PLP.part.repulsive>
0.6899

> <Gold.PLP.ligand.clash>
1.3551

> <Gold.PLP.ligand.torsion>
0.0210

> <Gold.PLP.Chemscore.Hbond>
0.0000

> <Gold.PLP.Chemscore.CHOScore>
0.0000

> <Gold.PLP.Chemscore.Metal>
0.0000

> <Gold.Chemscore.Hbonds>
donor molecule, donor type, donor heavy atom, donor atom, acceptor molecule, acceptor atom, score
      L1  H     8    22       P1  8110  0.19

> <Gold.PLP.Chemscore.Internal.Correction>
   9.000000E+99

#       Name:                CT1002167954
#       Creating user name   hitesit
#       Creation time:       Sun Apr 16 23:06:27 2023


#       File generated by GOLD software.
#

@<TRIPOS>MOLECULE
CT1002167954|ligand_prepared|mol2|1|dock1
    29    30     1
SMALL
NO_CHARGES


@<TRIPOS>ATOM
      1 C1         247.2831 -12.5477  41.0973 C.3            1 RES1               0.0000
      2 C2         247.0553 -12.5331  42.6226 C.ar           1 RES1               0.0000
      3 C3         246.4008 -11.4438  40.5218 C.2            1 RES1               0.0000
      4 C4         248.7765 -12.3238  40.8868 C.2            1 RES1               0.0000
      5 C5         246.9005 -13.8849  40.4212 C.3            1 RES1               0.0000
      6 C6         247.5573 -13.5544  43.4238 C.ar           1 RES1               0.0000
      7 C7         246.3488 -11.5057  43.2422 C.ar           1 RES1               0.0000
      8 N8         247.0140 -10.3027  40.0952 N.am           1 RES1               0.0000
      9 O9         245.1819 -11.5567  40.4795 O.2            1 RES1               0.0000
     10 N10        249.1714 -11.1660  40.2694 N.am           1 RES1               0.0000
     11 O11        249.6157 -13.1319  41.2649 O.2            1 RES1               0.0000
     12 C12        247.2000 -13.9261  38.9309 C.3            1 RES1               0.0000
     13 C13        247.3626 -13.5473  44.7951 C.ar           1 RES1               0.0000
     14 C14        246.1551 -11.5007  44.6137 C.ar           1 RES1               0.0000
     15 C15        248.3597 -10.1312  39.8917 C.2            1 RES1               0.0000
     16 C16        246.6619 -12.5204  45.3910 C.ar           1 RES1               0.0000
     17 O17        248.7952  -9.0981  39.3915 O.2            1 RES1               0.0000
     18 H18        247.4468 -14.6986  40.9138 H              1 RES1               0.0000
     19 H19        245.8282 -14.0621  40.5708 H              1 RES1               0.0000
     20 H20        248.1092 -14.3721  42.9724 H              1 RES1               0.0000
     21 H21        245.9401 -10.6937  42.6505 H              1 RES1               0.0000
     22 H22        246.4168  -9.5030  39.9106 H              1 RES1               0.0000
     23 H23        250.1623 -11.0662  40.0731 H              1 RES1               0.0000
     24 H24        246.9126 -14.8857  38.5062 H              1 RES1               0.0000
     25 H25        246.6532 -13.1457  38.4058 H              1 RES1               0.0000
     26 H26        248.2621 -13.7784  38.7468 H              1 RES1               0.0000
     27 H27        247.7623 -14.3528  45.4022 H              1 RES1               0.0000
     28 H28        245.6025 -10.6908  45.0784 H              1 RES1               0.0000
     29 H29        246.5099 -12.5149  46.4653 H              1 RES1               0.0000
@<TRIPOS>BOND
    1    1    2 1     
    2    1    3 1     
    3    1    4 1     
    4    1    5 1     
    5    2    6 ar    
    6    2    7 ar    
    7    3    8 1     
    8    3    9 2     
    9    4   10 1     
   10    4   11 2     
   11    5   12 1     
   12    5   18 1     
   13    5   19 1     
   14    6   13 ar    
   15    6   20 1     
   16    7   14 ar    
   17    7   21 1     
   18    8   15 1     
   19    8   22 1     
   20   10   15 1     
   21   10   23 1     
   22   12   24 1     
   23   12   25 1     
   24   12   26 1     
   25   13   16 ar    
   26   13   27 1     
   27   14   16 ar    
   28   14   28 1     
   29   15   17 2     
   30   16   29 1     
@<TRIPOS>SUBSTRUCTURE
      1 RES1           1
@<TRIPOS>SET
DONOR_HYDROGENS      STATIC     ATOMS    <user>   **** ""
2 22 23
ATOM$RED        STATIC     ATOMS    COLORGROUP SYSTEM
2 22 23
@<TRIPOS>COMMENT
> <Gold.Version>
2022.3.0

> <Gold.Id.Protein>
unknown|4v3u_clean|pdb

> <Gold.Protein.RotatedTorsions>
[ 6612 6571 6572 6573 ] final   85.15 input  122.18 | X-H torsion
[ 6698 6659 6660 6661 ] final  -72.39 input  126.07 | X-H torsion
[ 8064 8023 8024 8025 ] final  157.31 input   40.84 | X-H torsion
[ 8135 8102 8103 8104 ] final  121.14 input  100.47 | X-H torsion
[ 8198 8164 8165 8166 ] final  114.51 input   73.50 | X-H torsion
[ 8278 8240 8241 8242 ] final   29.45 input   88.79 | X-H torsion
[ 9578 9542 9541 9539 ] final  -33.61 input   60.02 | X-H torsion
[ 8331 8311 8312 8313 ] final  -20.60 input   92.25 | X-H torsion
[ 7986 7938 7939 7940 ] final -124.45 input   70.73 | X-H torsion
[ 7906 7885 7886 7887 ] final -179.62 input  102.20 | X-H torsion
[ 6850 6802 6803 6804 ] final -172.22 input  120.36 | X-H torsion
[ 10224 10183 10184 10185 ] final  -81.01 input   40.62 | X-H torsion
[ 7910 7890 7889 7886 ] final  144.66 input   60.02 | X-H torsion
[ 27200 6334 6333 6332 ] final -137.41 input    0.00 | X-H torsion
[ 27202 6498 6497 6496 ] final  176.11 input   -0.00 | X-H torsion
[ 27205 6574 6573 6572 ] final  164.91 input   -0.00 | X-H torsion
[ 27208 7888 7887 7886 ] final   36.63 input    0.00 | X-H torsion
[ 27211 8026 8025 8024 ] final   33.70 input   -0.00 | X-H torsion
[ 27214 8105 8104 8103 ] final -106.95 input    0.00 | X-H torsion
[ 27217 8167 8166 8165 ] final  -40.43 input    0.00 | X-H torsion
[ 27222 10096 10095 10094 ] final -165.27 input   -0.00 | X-H torsion
[ 27225 10186 10185 10184 ] final -101.77 input    0.00 | X-H torsion
[ 27228 7941 7940 7939 ] final  -26.53 input    0.00 | X-H torsion
[ 27230 7733 7732 7731 ] final -174.95 input   -0.00 | X-H torsion
[ 27232 7816 7815 7814 ] final  141.37 input   -0.00 | X-H torsion

> <Gold.Protein.ActiveResidues>
 ASP403  THR404  LEU406  ILE407  TYR408  ALA410  LYS411  TRP414  GLN425  TRP426 
 SER427  LYS428  LEU429  GLN430  VAL431  PHE432  ASP433  TYR453  SER462  ALA463 
 ILE464 

> <Gold.Protein.RotatedAtoms>
  241.4193   -8.3581   50.4536 H   0  0  0  0  0  0  0  0  0  0  0  0  # atno 6612 bound_to 6571
  240.5681   -7.8971   47.5139 H   0  0  0  0  0  0  0  0  0  0  0  0  # atno 6698 bound_to 6659
  241.6783   -4.7792   45.0813 H   0  0  0  0  0  0  0  0  0  0  0  0  # atno 6850 bound_to 6802
  239.5832   -6.7756   37.5696 H   0  0  0  0  0  0  0  0  0  0  0  0  # atno 7906 bound_to 7885
  239.2412  -10.3364   36.1292 H   0  0  0  0  0  0  0  0  0  0  0  0  # atno 7910 bound_to 7890
  242.0151   -9.1695   38.3068 H   0  0  0  0  0  0  0  0  0  0  0  0  # atno 7986 bound_to 7938
  244.3368   -7.9022   39.3744 H   0  0  0  0  0  0  0  0  0  0  0  0  # atno 8064 bound_to 8023
  248.3880   -7.7387   41.0543 H   0  0  0  0  0  0  0  0  0  0  0  0  # atno 8135 bound_to 8102
  247.3367   -8.7440   45.0574 H   0  0  0  0  0  0  0  0  0  0  0  0  # atno 8198 bound_to 8164
  249.0663   -5.8193   47.8558 H   0  0  0  0  0  0  0  0  0  0  0  0  # atno 8278 bound_to 8240
  250.9631   -6.8392   50.8365 H   0  0  0  0  0  0  0  0  0  0  0  0  # atno 8331 bound_to 8311
  252.1629  -11.7268   39.9933 H   0  0  0  0  0  0  0  0  0  0  0  0  # atno 9578 bound_to 9542
  250.4275   -3.5052   43.5108 H   0  0  0  0  0  0  0  0  0  0  0  0  # atno 10224 bound_to 10183
  241.3726   -9.4785   51.4174 LP  0  0  0  0  0  0  0  0  0  0  0  0  # atno 27200 bound_to 6334
  243.0769   -9.7324   51.5933 LP  0  0  0  0  0  0  0  0  0  0  0  0  # atno 27201 bound_to 6334
  241.8927   -5.5600   48.6134 LP  0  0  0  0  0  0  0  0  0  0  0  0  # atno 27202 bound_to 6498
  241.4138   -4.5761   49.9560 LP  0  0  0  0  0  0  0  0  0  0  0  0  # atno 27203 bound_to 6498
  242.2715   -6.8423   50.2556 LP  0  0  0  0  0  0  0  0  0  0  0  0  # atno 27204 bound_to 6571
  240.3017   -6.7877   45.9248 LP  0  0  0  0  0  0  0  0  0  0  0  0  # atno 27205 bound_to 6574
  241.9014   -6.3885   46.4554 LP  0  0  0  0  0  0  0  0  0  0  0  0  # atno 27206 bound_to 6574
  239.6507   -8.3644   48.9285 LP  0  0  0  0  0  0  0  0  0  0  0  0  # atno 27207 bound_to 6659
  241.3132  -10.7530   39.6300 LP  0  0  0  0  0  0  0  0  0  0  0  0  # atno 27208 bound_to 7888
  242.8822  -10.1074   39.9790 LP  0  0  0  0  0  0  0  0  0  0  0  0  # atno 27209 bound_to 7888
  245.3094   -9.2426   39.9396 LP  0  0  0  0  0  0  0  0  0  0  0  0  # atno 27210 bound_to 8023
  245.1293   -9.1937   42.4163 LP  0  0  0  0  0  0  0  0  0  0  0  0  # atno 27211 bound_to 8026
  246.2560   -8.7463   43.6534 LP  0  0  0  0  0  0  0  0  0  0  0  0  # atno 27212 bound_to 8026
  246.9382   -7.7475   42.0284 LP  0  0  0  0  0  0  0  0  0  0  0  0  # atno 27213 bound_to 8102
  249.7594   -6.0801   44.5931 LP  0  0  0  0  0  0  0  0  0  0  0  0  # atno 27214 bound_to 8105
  248.3734   -5.7196   43.6189 LP  0  0  0  0  0  0  0  0  0  0  0  0  # atno 27215 bound_to 8105
  248.8657   -7.9362   44.8047 LP  0  0  0  0  0  0  0  0  0  0  0  0  # atno 27216 bound_to 8164
  247.9169   -9.0498   48.3813 LP  0  0  0  0  0  0  0  0  0  0  0  0  # atno 27217 bound_to 8167
  249.6466   -9.1005   48.3079 LP  0  0  0  0  0  0  0  0  0  0  0  0  # atno 27218 bound_to 8167
  249.6415   -7.2491   47.0350 LP  0  0  0  0  0  0  0  0  0  0  0  0  # atno 27219 bound_to 8240
  251.3717  -10.3143   39.8319 LP  0  0  0  0  0  0  0  0  0  0  0  0  # atno 27220 bound_to 9542
  251.3073  -11.1330   41.2433 LP  0  0  0  0  0  0  0  0  0  0  0  0  # atno 27221 bound_to 9542
  249.4711   -6.5552   40.9431 LP  0  0  0  0  0  0  0  0  0  0  0  0  # atno 27222 bound_to 10096
  249.6091   -7.0772   39.2974 LP  0  0  0  0  0  0  0  0  0  0  0  0  # atno 27223 bound_to 10096
  249.4775   -7.7225   50.5820 LP  0  0  0  0  0  0  0  0  0  0  0  0  # atno 27224 bound_to 8311
  249.4681   -4.5662   47.2699 LP  0  0  0  0  0  0  0  0  0  0  0  0  # atno 27225 bound_to 10186
  250.7851   -4.7441   46.1591 LP  0  0  0  0  0  0  0  0  0  0  0  0  # atno 27226 bound_to 10186
  242.6241   -7.7579   37.4781 LP  0  0  0  0  0  0  0  0  0  0  0  0  # atno 27227 bound_to 7938
  245.9434   -7.5906   36.9965 LP  0  0  0  0  0  0  0  0  0  0  0  0  # atno 27228 bound_to 7941
  245.9809   -6.5238   38.3605 LP  0  0  0  0  0  0  0  0  0  0  0  0  # atno 27229 bound_to 7941
  242.6330   -6.5265   37.1867 LP  0  0  0  0  0  0  0  0  0  0  0  0  # atno 27230 bound_to 7733
  243.7304   -6.7577   35.8667 LP  0  0  0  0  0  0  0  0  0  0  0  0  # atno 27231 bound_to 7733
  240.7970   -6.6022   40.1445 LP  0  0  0  0  0  0  0  0  0  0  0  0  # atno 27232 bound_to 7816
  242.0244   -5.4776   39.6662 LP  0  0  0  0  0  0  0  0  0  0  0  0  # atno 27233 bound_to 7816
  241.3090   -6.9402   37.3543 LP  0  0  0  0  0  0  0  0  0  0  0  0  # atno 27234 bound_to 7885

> <Gold.Score>
     Fitness  S(hb_ext) S(vdw_ext)  S(hb_int)    S(int)      intcor
     29.86       6.62      18.36       0.00      -1.99      -0.81

> <Gold.Goldscore.Fitness>
29.8643

> <Gold.Goldscore.Internal.Vdw>
-2.4143

> <Gold.Goldscore.Internal.Torsion>
-0.3842

> <Gold.Goldscore.External.Vdw>
18.3555

> <Gold.Goldscore.Internal.HBond>
0.0000

> <Gold.Goldscore.External.HBond>
6.6180

> <Gold.Goldscore.Internal.Correction>
-0.8059

> <Gold.Goldscore.Hbonds>
donor molecule, donor type, donor heavy atom, donor atom, acceptor molecule, acceptor atom, score
      P1  H  8102  8135       L1    17  0.01
      L1  H     8    22       P1  8023  0.87
      L1  H    10    23       P1  9542  0.68

> <Gold.Goldscore.Internal.Vdw.Weighted>
-2.4143

> <Gold.Goldscore.Internal.Torsion.Weighted>
-0.3842

> <Gold.Goldscore.External.Vdw.Weighted>
25.2388

> <Gold.Goldscore.Internal.HBond.Weighted>
0.0000

> <Gold.Goldscore.External.HBond.Weighted>
6.6180

> <Gold.Goldscore.Internal.Correction.Weighted>
-0.8059

> <Gold.Rescore>
     Score     S(PLP)   S(hbond)     S(cho)   S(metal)  DE(clash)   DE(tors)     intcor
     22.91     -18.62       1.96       0.00       0.00       0.95       0.32       ----

> <Gold.PLP.Fitness>
22.9051

> <Gold.PLP.PLP>
-18.6180

> <Gold.PLP.part.hbond>
-3.8851

> <Gold.PLP.part.metal>
0.0000

> <Gold.PLP.part.buried>
-1.8606

> <Gold.PLP.part.nonpolar>
-14.9343

> <Gold.PLP.part.repulsive>
2.2263

> <Gold.PLP.ligand.clash>
0.9524

> <Gold.PLP.ligand.torsion>
0.3225

> <Gold.PLP.Chemscore.Hbond>
1.9615

> <Gold.PLP.Chemscore.CHOScore>
0.0000

> <Gold.PLP.Chemscore.Metal>
0.0000

> <Gold.Chemscore.Hbonds>
donor molecule, donor type, donor heavy atom, donor atom, acceptor molecule, acceptor atom, score
      L1  H     8    22       P1  8023  0.65
      L1  H    10    23       P1  9542  0.75
      P1  H  8102  8135       L1    17  0.39

> <Gold.PLP.Chemscore.Internal.Correction>
   9.000000E+99

#       Name:                CT1002167954
#       Creating user name   hitesit
#       Creation time:       Sun Apr 16 23:06:28 2023


#       File generated by GOLD software.
#

@<TRIPOS>MOLECULE
CT1002167954|ligand_prepared|mol2|1|dock2
    29    30     1
SMALL
NO_CHARGES


@<TRIPOS>ATOM
      1 C1         247.3474 -12.5008  40.7806 C.3            1 RES1               0.0000
      2 C2         246.7865 -12.2898  42.2017 C.ar           1 RES1               0.0000
      3 C3         246.5777 -11.5482  39.8703 C.2            1 RES1               0.0000
      4 C4         248.8418 -12.2099  40.8643 C.2            1 RES1               0.0000
      5 C5         247.1703 -13.9412  40.2464 C.3            1 RES1               0.0000
      6 C6         247.1703 -13.1253  43.2463 C.ar           1 RES1               0.0000
      7 C7         245.8880 -11.2641  42.4835 C.ar           1 RES1               0.0000
      8 N8         247.2310 -10.4394  39.4191 N.am           1 RES1               0.0000
      9 O9         245.4032 -11.7465  39.5849 O.2            1 RES1               0.0000
     10 N10        249.3241 -11.1254  40.1795 N.am           1 RES1               0.0000
     11 O11        249.6032 -12.9004  41.5304 O.2            1 RES1               0.0000
     12 C12        247.6098 -14.1177  38.8015 C.3            1 RES1               0.0000
     13 C13        246.6763 -12.9404  44.5270 C.ar           1 RES1               0.0000
     14 C14        245.3949 -11.0812  43.7649 C.ar           1 RES1               0.0000
     15 C15        248.5817 -10.2091  39.4857 C.2            1 RES1               0.0000
     16 C16        245.7887 -11.9181  44.7872 C.ar           1 RES1               0.0000
     17 O17        249.0818  -9.2289  38.9414 O.2            1 RES1               0.0000
     18 H18        247.7498 -14.6258  40.8780 H              1 RES1               0.0000
     19 H19        246.1130 -14.2215  40.3305 H              1 RES1               0.0000
     20 H20        247.8660 -13.9367  43.0601 H              1 RES1               0.0000
     21 H21        245.5634 -10.5942  41.6946 H              1 RES1               0.0000
     22 H22        246.6628  -9.7144  38.9928 H              1 RES1               0.0000
     23 H23        250.3299 -10.9885  40.1877 H              1 RES1               0.0000
     24 H24        247.4643 -15.1459  38.4769 H              1 RES1               0.0000
     25 H25        247.0362 -13.4698  38.1419 H              1 RES1               0.0000
     26 H26        248.6634 -13.8717  38.6861 H              1 RES1               0.0000
     27 H27        246.9883 -13.6027  45.3278 H              1 RES1               0.0000
     28 H28        244.6961 -10.2757  43.9650 H              1 RES1               0.0000
     29 H29        245.4021 -11.7733  45.7906 H              1 RES1               0.0000
@<TRIPOS>BOND
    1    1    2 1     
    2    1    3 1     
    3    1    4 1     
    4    1    5 1     
    5    2    6 ar    
    6    2    7 ar    
    7    3    8 1     
    8    3    9 2     
    9    4   10 1     
   10    4   11 2     
   11    5   12 1     
   12    5   18 1     
   13    5   19 1     
   14    6   13 ar    
   15    6   20 1     
   16    7   14 ar    
   17    7   21 1     
   18    8   15 1     
   19    8   22 1     
   20   10   15 1     
   21   10   23 1     
   22   12   24 1     
   23   12   25 1     
   24   12   26 1     
   25   13   16 ar    
   26   13   27 1     
   27   14   16 ar    
   28   14   28 1     
   29   15   17 2     
   30   16   29 1     
@<TRIPOS>SUBSTRUCTURE
      1 RES1           1
@<TRIPOS>SET
DONOR_HYDROGENS      STATIC     ATOMS    <user>   **** ""
2 22 23
ATOM$RED        STATIC     ATOMS    COLORGROUP SYSTEM
2 22 23
@<TRIPOS>COMMENT
> <Gold.Version>
2022.3.0

> <Gold.Id.Protein>
unknown|4v3u_clean|pdb

> <Gold.Protein.RotatedTorsions>
[ 6612 6571 6572 6573 ] final  154.05 input  122.18 | X-H torsion
[ 6698 6659 6660 6661 ] final   45.67 input  126.07 | X-H torsion
[ 8064 8023 8024 8025 ] final   47.44 input   40.84 | X-H torsion
[ 8135 8102 8103 8104 ] final  122.73 input  100.47 | X-H torsion
[ 8198 8164 8165 8166 ] final  -22.19 input   73.50 | X-H torsion
[ 8278 8240 8241 8242 ] final  -50.40 input   88.79 | X-H torsion
[ 9578 9542 9541 9539 ] final  -30.02 input   60.02 | X-H torsion
[ 8331 8311 8312 8313 ] final   -4.62 input   92.25 | X-H torsion
[ 7986 7938 7939 7940 ] final  -36.05 input   70.73 | X-H torsion
[ 7906 7885 7886 7887 ] final -119.79 input  102.20 | X-H torsion
[ 6850 6802 6803 6804 ] final   81.74 input  120.36 | X-H torsion
[ 10224 10183 10184 10185 ] final -139.27 input   40.62 | X-H torsion
[ 7910 7890 7889 7886 ] final   45.86 input   60.02 | X-H torsion
[ 27200 6334 6333 6332 ] final   37.89 input    0.00 | X-H torsion
[ 27202 6498 6497 6496 ] final  108.54 input   -0.00 | X-H torsion
[ 27205 6574 6573 6572 ] final   78.77 input   -0.00 | X-H torsion
[ 27208 7888 7887 7886 ] final  -78.66 input    0.00 | X-H torsion
[ 27211 8026 8025 8024 ] final -179.06 input   -0.00 | X-H torsion
[ 27214 8105 8104 8103 ] final   97.77 input    0.00 | X-H torsion
[ 27217 8167 8166 8165 ] final  -96.18 input    0.00 | X-H torsion
[ 27222 10096 10095 10094 ] final  151.50 input   -0.00 | X-H torsion
[ 27225 10186 10185 10184 ] final -130.29 input    0.00 | X-H torsion
[ 27228 7941 7940 7939 ] final  -90.31 input    0.00 | X-H torsion
[ 27230 7733 7732 7731 ] final  140.31 input   -0.00 | X-H torsion
[ 27232 7816 7815 7814 ] final  -89.45 input   -0.00 | X-H torsion

> <Gold.Protein.ActiveResidues>
 ASP403  THR404  LEU406  ILE407  TYR408  ALA410  LYS411  TRP414  GLN425  TRP426 
 SER427  LYS428  LEU429  GLN430  VAL431  PHE432  ASP433  TYR453  SER462  ALA463 
 ILE464 

> <Gold.Protein.RotatedAtoms>
  242.4147   -8.2473   50.5540 H   0  0  0  0  0  0  0  0  0  0  0  0  # atno 6612 bound_to 6571
  239.9499   -7.5181   48.8531 H   0  0  0  0  0  0  0  0  0  0  0  0  # atno 6698 bound_to 6659
  240.3299   -4.8726   45.4818 H   0  0  0  0  0  0  0  0  0  0  0  0  # atno 6850 bound_to 6802
  240.1350   -6.4131   38.1522 H   0  0  0  0  0  0  0  0  0  0  0  0  # atno 7906 bound_to 7885
  240.2889   -9.3747   36.1488 H   0  0  0  0  0  0  0  0  0  0  0  0  # atno 7910 bound_to 7890
  242.4593   -8.0836   38.6759 H   0  0  0  0  0  0  0  0  0  0  0  0  # atno 7986 bound_to 7938
  244.4862   -8.9105   40.4123 H   0  0  0  0  0  0  0  0  0  0  0  0  # atno 8064 bound_to 8023
  248.3825   -7.7612   41.0465 H   0  0  0  0  0  0  0  0  0  0  0  0  # atno 8135 bound_to 8102
  248.9468   -8.4427   45.1959 H   0  0  0  0  0  0  0  0  0  0  0  0  # atno 8198 bound_to 8164
  248.7419   -6.8980   47.9628 H   0  0  0  0  0  0  0  0  0  0  0  0  # atno 8278 bound_to 8240
  251.0352   -7.0546   50.9293 H   0  0  0  0  0  0  0  0  0  0  0  0  # atno 8331 bound_to 8311
  252.1595  -11.7550   40.0448 H   0  0  0  0  0  0  0  0  0  0  0  0  # atno 9578 bound_to 9542
  249.7589   -3.1661   43.0640 H   0  0  0  0  0  0  0  0  0  0  0  0  # atno 10224 bound_to 10183
  243.0770   -9.6794   51.6405 LP  0  0  0  0  0  0  0  0  0  0  0  0  # atno 27200 bound_to 6334
  241.3725   -9.5315   51.3701 LP  0  0  0  0  0  0  0  0  0  0  0  0  # atno 27201 bound_to 6334
  242.5138   -5.1145   49.1996 LP  0  0  0  0  0  0  0  0  0  0  0  0  # atno 27202 bound_to 6498
  240.7927   -5.0216   49.3699 LP  0  0  0  0  0  0  0  0  0  0  0  0  # atno 27203 bound_to 6498
  241.3090   -6.9495   50.1585 LP  0  0  0  0  0  0  0  0  0  0  0  0  # atno 27204 bound_to 6571
  241.3602   -7.2831   45.7427 LP  0  0  0  0  0  0  0  0  0  0  0  0  # atno 27205 bound_to 6574
  240.8429   -5.8931   46.6374 LP  0  0  0  0  0  0  0  0  0  0  0  0  # atno 27206 bound_to 6574
  240.2504   -8.7321   47.6294 LP  0  0  0  0  0  0  0  0  0  0  0  0  # atno 27207 bound_to 6659
  242.1255   -9.8543   40.4507 LP  0  0  0  0  0  0  0  0  0  0  0  0  # atno 27208 bound_to 7888
  242.0699  -11.0061   39.1583 LP  0  0  0  0  0  0  0  0  0  0  0  0  # atno 27209 bound_to 7888
  245.1646   -8.2654   38.9338 LP  0  0  0  0  0  0  0  0  0  0  0  0  # atno 27210 bound_to 8023
  246.4246   -9.1604   43.4567 LP  0  0  0  0  0  0  0  0  0  0  0  0  # atno 27211 bound_to 8026
  244.9607   -8.7795   42.6131 LP  0  0  0  0  0  0  0  0  0  0  0  0  # atno 27212 bound_to 8026
  246.9436   -7.7255   42.0360 LP  0  0  0  0  0  0  0  0  0  0  0  0  # atno 27213 bound_to 8102
  248.2482   -5.6554   43.9620 LP  0  0  0  0  0  0  0  0  0  0  0  0  # atno 27214 bound_to 8105
  249.8847   -6.1443   44.2501 LP  0  0  0  0  0  0  0  0  0  0  0  0  # atno 27215 bound_to 8105
  247.2939   -8.2304   44.6695 LP  0  0  0  0  0  0  0  0  0  0  0  0  # atno 27216 bound_to 8164
  248.3317   -8.7328   49.0005 LP  0  0  0  0  0  0  0  0  0  0  0  0  # atno 27217 bound_to 8167
  249.2318   -9.4175   47.6887 LP  0  0  0  0  0  0  0  0  0  0  0  0  # atno 27218 bound_to 8167
  249.9596   -6.1910   46.9302 LP  0  0  0  0  0  0  0  0  0  0  0  0  # atno 27219 bound_to 8240
  251.4033  -10.3375   39.7875 LP  0  0  0  0  0  0  0  0  0  0  0  0  # atno 27220 bound_to 9542
  251.2791  -11.0815   41.2359 LP  0  0  0  0  0  0  0  0  0  0  0  0  # atno 27221 bound_to 9542
  250.0777   -6.6719   40.7837 LP  0  0  0  0  0  0  0  0  0  0  0  0  # atno 27222 bound_to 10096
  249.0024   -6.9605   39.4569 LP  0  0  0  0  0  0  0  0  0  0  0  0  # atno 27223 bound_to 10096
  249.4069   -7.5116   50.4912 LP  0  0  0  0  0  0  0  0  0  0  0  0  # atno 27224 bound_to 8311
  249.8158   -4.4940   47.5066 LP  0  0  0  0  0  0  0  0  0  0  0  0  # atno 27225 bound_to 10186
  250.4374   -4.8162   45.9224 LP  0  0  0  0  0  0  0  0  0  0  0  0  # atno 27226 bound_to 10186
  242.1889   -8.8220   37.1165 LP  0  0  0  0  0  0  0  0  0  0  0  0  # atno 27227 bound_to 7938
  246.6171   -7.6202   37.6150 LP  0  0  0  0  0  0  0  0  0  0  0  0  # atno 27228 bound_to 7941
  245.3072   -6.4942   37.7420 LP  0  0  0  0  0  0  0  0  0  0  0  0  # atno 27229 bound_to 7941
  243.0945   -6.0567   37.1589 LP  0  0  0  0  0  0  0  0  0  0  0  0  # atno 27230 bound_to 7733
  243.2689   -7.2275   35.8945 LP  0  0  0  0  0  0  0  0  0  0  0  0  # atno 27231 bound_to 7733
  242.2214   -6.1938   39.6426 LP  0  0  0  0  0  0  0  0  0  0  0  0  # atno 27232 bound_to 7816
  240.6000   -5.8860   40.1680 LP  0  0  0  0  0  0  0  0  0  0  0  0  # atno 27233 bound_to 7816
  240.7687   -7.2951   36.7839 LP  0  0  0  0  0  0  0  0  0  0  0  0  # atno 27234 bound_to 7885

> <Gold.Score>
     Fitness  S(hb_ext) S(vdw_ext)  S(hb_int)    S(int)      intcor
     26.60       2.52      18.81       0.00      -1.79      -0.78

> <Gold.Goldscore.Fitness>
26.6023

> <Gold.Goldscore.Internal.Vdw>
-2.1596

> <Gold.Goldscore.Internal.Torsion>
-0.4129

> <Gold.Goldscore.External.Vdw>
18.8131

> <Gold.Goldscore.Internal.HBond>
0.0000

> <Gold.Goldscore.External.HBond>
2.5230

> <Gold.Goldscore.Internal.Correction>
-0.7838

> <Gold.Goldscore.Hbonds>
donor molecule, donor type, donor heavy atom, donor atom, acceptor molecule, acceptor atom, score
      L1  H     8    22       P1  7941  0.43
      L1  H    10    23       P1  9542  0.84

> <Gold.Goldscore.Internal.Vdw.Weighted>
-2.1596

> <Gold.Goldscore.Internal.Torsion.Weighted>
-0.4129

> <Gold.Goldscore.External.Vdw.Weighted>
25.8680

> <Gold.Goldscore.Internal.HBond.Weighted>
0.0000

> <Gold.Goldscore.External.HBond.Weighted>
2.5230

> <Gold.Goldscore.Internal.Correction.Weighted>
-0.7838

> <Gold.Rescore>
     Score     S(PLP)   S(hbond)     S(cho)   S(metal)  DE(clash)   DE(tors)     intcor
     23.21     -18.21       2.16       0.00       0.00       1.14       0.17       ----

> <Gold.PLP.Fitness>
23.2055

> <Gold.PLP.PLP>
-18.2053

> <Gold.PLP.part.hbond>
-3.8857

> <Gold.PLP.part.metal>
0.0000

> <Gold.PLP.part.buried>
-1.2492

> <Gold.PLP.part.nonpolar>
-15.1397

> <Gold.PLP.part.repulsive>
2.6780

> <Gold.PLP.ligand.clash>
1.1414

> <Gold.PLP.ligand.torsion>
0.1691

> <Gold.PLP.Chemscore.Hbond>
2.1599

> <Gold.PLP.Chemscore.CHOScore>
0.0000

> <Gold.PLP.Chemscore.Metal>
0.0000

> <Gold.Chemscore.Hbonds>
donor molecule, donor type, donor heavy atom, donor atom, acceptor molecule, acceptor atom, score
      L1  H     8    22       P1  8023  0.27
      L1  H    10    23       P1  9542  0.91

> <Gold.PLP.Chemscore.Internal.Correction>
   9.000000E+99

#       Name:                CT1002167954
#       Creating user name   hitesit
#       Creation time:       Sun Apr 16 23:06:28 2023


#       File generated by GOLD software.
#

@<TRIPOS>MOLECULE
CT1002167954|ligand_prepared|mol2|1|dock3
    29    30     1
SMALL
NO_CHARGES


@<TRIPOS>ATOM
      1 C1         245.2729 -13.3421  43.7740 C.3            1 RES1               0.0000
      2 C2         244.7011 -12.8655  42.4232 C.ar           1 RES1               0.0000
      3 C3         246.7915 -13.2628  43.6484 C.2            1 RES1               0.0000
      4 C4         244.6873 -12.4172  44.8353 C.2            1 RES1               0.0000
      5 C5         244.8854 -14.7940  44.1392 C.3            1 RES1               0.0000
      6 C6         243.9739 -13.7346  41.6153 C.ar           1 RES1               0.0000
      7 C7         244.8899 -11.5614  41.9736 C.ar           1 RES1               0.0000
      8 N8         247.4282 -12.2531  44.3079 N.am           1 RES1               0.0000
      9 O9         247.4168 -14.0505  42.9493 O.2            1 RES1               0.0000
     10 N10        245.5466 -11.5931  45.5137 N.am           1 RES1               0.0000
     11 O11        243.4873 -12.3828  45.0786 O.2            1 RES1               0.0000
     12 C12        245.3901 -15.2389  45.5028 C.3            1 RES1               0.0000
     13 C13        243.4518 -13.3143  40.4032 C.ar           1 RES1               0.0000
     14 C14        244.3672 -11.1433  40.7610 C.ar           1 RES1               0.0000
     15 C15        246.8863 -11.4471  45.2766 C.2            1 RES1               0.0000
     16 C16        243.6477 -12.0185  39.9755 C.ar           1 RES1               0.0000
     17 O17        247.5828 -10.6450  45.8919 O.2            1 RES1               0.0000
     18 H18        243.7922 -14.8829  44.1211 H              1 RES1               0.0000
     19 H19        245.2894 -15.4700  43.3755 H              1 RES1               0.0000
     20 H20        243.8116 -14.7588  41.9343 H              1 RES1               0.0000
     21 H21        245.4536 -10.8558  42.5745 H              1 RES1               0.0000
     22 H22        248.3968 -12.0814  44.0577 H              1 RES1               0.0000
     23 H23        245.1509 -11.0370  46.2650 H              1 RES1               0.0000
     24 H24        245.0908 -16.2643  45.7092 H              1 RES1               0.0000
     25 H25        246.4760 -15.1872  45.5479 H              1 RES1               0.0000
     26 H26        244.9877 -14.6036  46.2891 H              1 RES1               0.0000
     27 H27        242.8875 -14.0074  39.7881 H              1 RES1               0.0000
     28 H28        244.5243 -10.1226  40.4280 H              1 RES1               0.0000
     29 H29        243.2383 -11.6894  39.0261 H              1 RES1               0.0000
@<TRIPOS>BOND
    1    1    2 1     
    2    1    3 1     
    3    1    4 1     
    4    1    5 1     
    5    2    6 ar    
    6    2    7 ar    
    7    3    8 1     
    8    3    9 2     
    9    4   10 1     
   10    4   11 2     
   11    5   12 1     
   12    5   18 1     
   13    5   19 1     
   14    6   13 ar    
   15    6   20 1     
   16    7   14 ar    
   17    7   21 1     
   18    8   15 1     
   19    8   22 1     
   20   10   15 1     
   21   10   23 1     
   22   12   24 1     
   23   12   25 1     
   24   12   26 1     
   25   13   16 ar    
   26   13   27 1     
   27   14   16 ar    
   28   14   28 1     
   29   15   17 2     
   30   16   29 1     
@<TRIPOS>SUBSTRUCTURE
      1 RES1           1
@<TRIPOS>SET
DONOR_HYDROGENS      STATIC     ATOMS    <user>   **** ""
2 22 23
ATOM$RED        STATIC     ATOMS    COLORGROUP SYSTEM
2 22 23
@<TRIPOS>COMMENT
> <Gold.Version>
2022.3.0

> <Gold.Id.Protein>
unknown|4v3u_clean|pdb

> <Gold.Protein.RotatedTorsions>
[ 6612 6571 6572 6573 ] final  -15.82 input  122.18 | X-H torsion
[ 6698 6659 6660 6661 ] final -165.72 input  126.07 | X-H torsion
[ 8064 8023 8024 8025 ] final  -70.63 input   40.84 | X-H torsion
[ 8135 8102 8103 8104 ] final   69.36 input  100.47 | X-H torsion
[ 8198 8164 8165 8166 ] final  111.16 input   73.50 | X-H torsion
[ 8278 8240 8241 8242 ] final -157.41 input   88.79 | X-H torsion
[ 9578 9542 9541 9539 ] final  123.76 input   60.02 | X-H torsion
[ 8331 8311 8312 8313 ] final  119.91 input   92.25 | X-H torsion
[ 7986 7938 7939 7940 ] final  -68.07 input   70.73 | X-H torsion
[ 7906 7885 7886 7887 ] final -144.03 input  102.20 | X-H torsion
[ 6850 6802 6803 6804 ] final -157.93 input  120.36 | X-H torsion
[ 10224 10183 10184 10185 ] final  -91.76 input   40.62 | X-H torsion
[ 7910 7890 7889 7886 ] final  102.32 input   60.02 | X-H torsion
[ 27200 6334 6333 6332 ] final   71.94 input    0.00 | X-H torsion
[ 27202 6498 6497 6496 ] final -139.26 input   -0.00 | X-H torsion
[ 27205 6574 6573 6572 ] final  -55.23 input   -0.00 | X-H torsion
[ 27208 7888 7887 7886 ] final  -91.16 input    0.00 | X-H torsion
[ 27211 8026 8025 8024 ] final  150.36 input   -0.00 | X-H torsion
[ 27214 8105 8104 8103 ] final  105.37 input    0.00 | X-H torsion
[ 27217 8167 8166 8165 ] final -173.00 input    0.00 | X-H torsion
[ 27222 10096 10095 10094 ] final  -12.17 input   -0.00 | X-H torsion
[ 27225 10186 10185 10184 ] final -152.42 input    0.00 | X-H torsion
[ 27228 7941 7940 7939 ] final   94.68 input    0.00 | X-H torsion
[ 27230 7733 7732 7731 ] final  171.65 input   -0.00 | X-H torsion
[ 27232 7816 7815 7814 ] final   52.82 input   -0.00 | X-H torsion

> <Gold.Protein.ActiveResidues>
 ASP403  THR404  LEU406  ILE407  TYR408  ALA410  LYS411  TRP414  GLN425  TRP426 
 SER427  LYS428  LEU429  GLN430  VAL431  PHE432  ASP433  TYR453  SER462  ALA463 
 ILE464 

> <Gold.Protein.RotatedAtoms>
  241.1819   -7.0429   50.1399 H   0  0  0  0  0  0  0  0  0  0  0  0  # atno 6612 bound_to 6571
  239.9816   -8.9653   47.9427 H   0  0  0  0  0  0  0  0  0  0  0  0  # atno 6698 bound_to 6659
  241.7617   -4.5847   45.0231 H   0  0  0  0  0  0  0  0  0  0  0  0  # atno 6850 bound_to 6802
  239.8256   -6.5191   37.9779 H   0  0  0  0  0  0  0  0  0  0  0  0  # atno 7906 bound_to 7885
  239.8961  -10.1679   36.1097 H   0  0  0  0  0  0  0  0  0  0  0  0  # atno 7910 bound_to 7890
  242.2731   -8.5239   38.7664 H   0  0  0  0  0  0  0  0  0  0  0  0  # atno 7986 bound_to 7938
  245.5796   -8.9473   39.3512 H   0  0  0  0  0  0  0  0  0  0  0  0  # atno 8064 bound_to 8023
  248.2560   -7.1017   41.4668 H   0  0  0  0  0  0  0  0  0  0  0  0  # atno 8135 bound_to 8102
  247.3614   -8.7781   45.0874 H   0  0  0  0  0  0  0  0  0  0  0  0  # atno 8198 bound_to 8164
  249.7133   -7.1989   46.9756 H   0  0  0  0  0  0  0  0  0  0  0  0  # atno 8278 bound_to 8240
  249.8663   -8.0874   50.8356 H   0  0  0  0  0  0  0  0  0  0  0  0  # atno 8331 bound_to 8311
  251.0980  -10.6231   41.0015 H   0  0  0  0  0  0  0  0  0  0  0  0  # atno 9578 bound_to 9542
  250.3525   -3.4045   43.3993 H   0  0  0  0  0  0  0  0  0  0  0  0  # atno 10224 bound_to 10183
  242.9500  -10.0308   51.2975 LP  0  0  0  0  0  0  0  0  0  0  0  0  # atno 27200 bound_to 6334
  241.4995   -9.1801   51.7131 LP  0  0  0  0  0  0  0  0  0  0  0  0  # atno 27201 bound_to 6334
  241.2391   -5.5255   48.6771 LP  0  0  0  0  0  0  0  0  0  0  0  0  # atno 27202 bound_to 6498
  242.0674   -4.6106   49.8924 LP  0  0  0  0  0  0  0  0  0  0  0  0  # atno 27203 bound_to 6498
  242.5011   -8.1141   50.5589 LP  0  0  0  0  0  0  0  0  0  0  0  0  # atno 27204 bound_to 6571
  241.5111   -5.9951   46.6704 LP  0  0  0  0  0  0  0  0  0  0  0  0  # atno 27205 bound_to 6574
  240.6920   -7.1810   45.7098 LP  0  0  0  0  0  0  0  0  0  0  0  0  # atno 27206 bound_to 6574
  240.2196   -7.3282   48.5125 LP  0  0  0  0  0  0  0  0  0  0  0  0  # atno 27207 bound_to 6659
  242.3098   -9.8496   40.4110 LP  0  0  0  0  0  0  0  0  0  0  0  0  # atno 27208 bound_to 7888
  241.8856  -11.0108   39.1980 LP  0  0  0  0  0  0  0  0  0  0  0  0  # atno 27209 bound_to 7888
  244.1050   -8.2298   39.9622 LP  0  0  0  0  0  0  0  0  0  0  0  0  # atno 27210 bound_to 8023
  246.3719   -9.4948   43.1500 LP  0  0  0  0  0  0  0  0  0  0  0  0  # atno 27211 bound_to 8026
  245.0134   -8.4452   42.9197 LP  0  0  0  0  0  0  0  0  0  0  0  0  # atno 27212 bound_to 8026
  247.0676   -8.3719   41.6241 LP  0  0  0  0  0  0  0  0  0  0  0  0  # atno 27213 bound_to 8102
  248.2395   -5.6443   44.0758 LP  0  0  0  0  0  0  0  0  0  0  0  0  # atno 27214 bound_to 8105
  249.8933   -6.1554   44.1362 LP  0  0  0  0  0  0  0  0  0  0  0  0  # atno 27215 bound_to 8105
  248.8416   -7.9030   44.7754 LP  0  0  0  0  0  0  0  0  0  0  0  0  # atno 27216 bound_to 8164
  249.3995   -8.8000   48.8856 LP  0  0  0  0  0  0  0  0  0  0  0  0  # atno 27217 bound_to 8167
  248.1640   -9.3503   47.8036 LP  0  0  0  0  0  0  0  0  0  0  0  0  # atno 27218 bound_to 8167
  249.0068   -5.8958   47.8985 LP  0  0  0  0  0  0  0  0  0  0  0  0  # atno 27219 bound_to 8240
  252.0296  -11.8817   40.5595 LP  0  0  0  0  0  0  0  0  0  0  0  0  # atno 27220 bound_to 9542
  251.7223  -10.6776   39.5000 LP  0  0  0  0  0  0  0  0  0  0  0  0  # atno 27221 bound_to 9542
  249.2132   -7.0186   39.3443 LP  0  0  0  0  0  0  0  0  0  0  0  0  # atno 27222 bound_to 10096
  249.8670   -6.6137   40.8963 LP  0  0  0  0  0  0  0  0  0  0  0  0  # atno 27223 bound_to 10096
  250.5513   -6.5003   50.5829 LP  0  0  0  0  0  0  0  0  0  0  0  0  # atno 27224 bound_to 8311
  250.1426   -4.4644   47.5591 LP  0  0  0  0  0  0  0  0  0  0  0  0  # atno 27225 bound_to 10186
  250.1105   -4.8459   45.8699 LP  0  0  0  0  0  0  0  0  0  0  0  0  # atno 27226 bound_to 10186
  242.3713   -8.3906   37.0278 LP  0  0  0  0  0  0  0  0  0  0  0  0  # atno 27227 bound_to 7938
  245.3396   -6.4687   37.8052 LP  0  0  0  0  0  0  0  0  0  0  0  0  # atno 27228 bound_to 7941
  246.5848   -7.6457   37.5519 LP  0  0  0  0  0  0  0  0  0  0  0  0  # atno 27229 bound_to 7941
  242.7475   -6.3640   37.2225 LP  0  0  0  0  0  0  0  0  0  0  0  0  # atno 27230 bound_to 7733
  243.6159   -6.9202   35.8309 LP  0  0  0  0  0  0  0  0  0  0  0  0  # atno 27231 bound_to 7733
  240.8497   -5.3974   40.0553 LP  0  0  0  0  0  0  0  0  0  0  0  0  # atno 27232 bound_to 7816
  241.9717   -6.6824   39.7553 LP  0  0  0  0  0  0  0  0  0  0  0  0  # atno 27233 bound_to 7816
  241.0716   -7.1913   36.9546 LP  0  0  0  0  0  0  0  0  0  0  0  0  # atno 27234 bound_to 7885

> <Gold.Score>
     Fitness  S(hb_ext) S(vdw_ext)  S(hb_int)    S(int)      intcor
     26.59       6.07      15.48       0.00      -0.76      -0.78

> <Gold.Goldscore.Fitness>
26.5915

> <Gold.Goldscore.Internal.Vdw>
-1.1655

> <Gold.Goldscore.Internal.Torsion>
-0.3797

> <Gold.Goldscore.External.Vdw>
15.4810

> <Gold.Goldscore.Internal.HBond>
0.0000

> <Gold.Goldscore.External.HBond>
6.0665

> <Gold.Goldscore.Internal.Correction>
-0.7838

> <Gold.Goldscore.Hbonds>
donor molecule, donor type, donor heavy atom, donor atom, acceptor molecule, acceptor atom, score
      P1  H  8164  8198       L1    17  0.03
      L1  H     8    22       P1  8110  1.00

> <Gold.Goldscore.Internal.Vdw.Weighted>
-1.1655

> <Gold.Goldscore.Internal.Torsion.Weighted>
-0.3797

> <Gold.Goldscore.External.Vdw.Weighted>
21.2864

> <Gold.Goldscore.Internal.HBond.Weighted>
0.0000

> <Gold.Goldscore.External.HBond.Weighted>
6.0665

> <Gold.Goldscore.Internal.Correction.Weighted>
-0.7838

> <Gold.Rescore>
     Score     S(PLP)   S(hbond)     S(cho)   S(metal)  DE(clash)   DE(tors)     intcor
     30.62     -21.82       2.98       0.00       0.00       0.00       0.07       ----

> <Gold.PLP.Fitness>
30.6192

> <Gold.PLP.PLP>
-21.8230

> <Gold.PLP.part.hbond>
-2.9920

> <Gold.PLP.part.metal>
0.0000

> <Gold.PLP.part.buried>
-4.9283

> <Gold.PLP.part.nonpolar>
-14.5451

> <Gold.PLP.part.repulsive>
0.4440

> <Gold.PLP.ligand.clash>
0.0000

> <Gold.PLP.ligand.torsion>
0.0659

> <Gold.PLP.Chemscore.Hbond>
2.9760

> <Gold.PLP.Chemscore.CHOScore>
0.0000

> <Gold.PLP.Chemscore.Metal>
0.0000

> <Gold.Chemscore.Hbonds>
donor molecule, donor type, donor heavy atom, donor atom, acceptor molecule, acceptor atom, score
      L1  H     8    22       P1  8110  1.00
      P1  H  8164  8198       L1    17  0.38

> <Gold.PLP.Chemscore.Internal.Correction>
   9.000000E+99

#       Name:                CT1002167954
#       Creating user name   hitesit
#       Creation time:       Sun Apr 16 23:06:29 2023


#       File generated by GOLD software.
#

@<TRIPOS>MOLECULE
CT1002167954|ligand_prepared|mol2|1|dock4
    29    30     1
SMALL
NO_CHARGES


@<TRIPOS>ATOM
      1 C1         245.1684 -13.4598  43.7980 C.3            1 RES1               0.0000
      2 C2         244.6970 -13.2380  42.3464 C.ar           1 RES1               0.0000
      3 C3         246.6875 -13.3173  43.7817 C.2            1 RES1               0.0000
      4 C4         244.4542 -12.4111  44.6435 C.2            1 RES1               0.0000
      5 C5         244.8118 -14.8539  44.3646 C.3            1 RES1               0.0000
      6 C6         244.3272 -14.3167  41.5487 C.ar           1 RES1               0.0000
      7 C7         244.6243 -11.9625  41.7927 C.ar           1 RES1               0.0000
      8 N8         247.2213 -12.1813  44.3150 N.am           1 RES1               0.0000
      9 O9         247.4039 -14.1707  43.2731 O.2            1 RES1               0.0000
     10 N10        245.2157 -11.4425  45.2433 N.am           1 RES1               0.0000
     11 O11        243.2372 -12.4049  44.7820 O.2            1 RES1               0.0000
     12 C12        245.0768 -14.9961  45.8551 C.3            1 RES1               0.0000
     13 C13        243.8974 -14.1271  40.2458 C.ar           1 RES1               0.0000
     14 C14        244.1944 -11.7751  40.4894 C.ar           1 RES1               0.0000
     15 C15        246.5636 -11.2621  45.0923 C.2            1 RES1               0.0000
     16 C16        243.8303 -12.8564  39.7154 C.ar           1 RES1               0.0000
     17 O17        247.1696 -10.3345  45.6209 O.2            1 RES1               0.0000
     18 H18        243.7497 -15.0512  44.1743 H              1 RES1               0.0000
     19 H19        245.3951 -15.6127  43.8284 H              1 RES1               0.0000
     20 H20        244.3758 -15.3243  41.9481 H              1 RES1               0.0000
     21 H21        244.9068 -11.0972  42.3827 H              1 RES1               0.0000
     22 H22        248.2000 -11.9983  44.1176 H              1 RES1               0.0000
     23 H23        244.7331 -10.7963  45.8595 H              1 RES1               0.0000
     24 H24        244.8096 -15.9924  46.2011 H              1 RES1               0.0000
     25 H25        246.1290 -14.8310  46.0773 H              1 RES1               0.0000
     26 H26        244.4933 -14.2729  46.4213 H              1 RES1               0.0000
     27 H27        243.6133 -14.9815  39.6403 H              1 RES1               0.0000
     28 H28        244.1438 -10.7733  40.0759 H              1 RES1               0.0000
     29 H29        243.4932 -12.7081  38.6948 H              1 RES1               0.0000
@<TRIPOS>BOND
    1    1    2 1     
    2    1    3 1     
    3    1    4 1     
    4    1    5 1     
    5    2    6 ar    
    6    2    7 ar    
    7    3    8 1     
    8    3    9 2     
    9    4   10 1     
   10    4   11 2     
   11    5   12 1     
   12    5   18 1     
   13    5   19 1     
   14    6   13 ar    
   15    6   20 1     
   16    7   14 ar    
   17    7   21 1     
   18    8   15 1     
   19    8   22 1     
   20   10   15 1     
   21   10   23 1     
   22   12   24 1     
   23   12   25 1     
   24   12   26 1     
   25   13   16 ar    
   26   13   27 1     
   27   14   16 ar    
   28   14   28 1     
   29   15   17 2     
   30   16   29 1     
@<TRIPOS>SUBSTRUCTURE
      1 RES1           1
@<TRIPOS>SET
DONOR_HYDROGENS      STATIC     ATOMS    <user>   **** ""
2 22 23
ATOM$RED        STATIC     ATOMS    COLORGROUP SYSTEM
2 22 23
@<TRIPOS>COMMENT
> <Gold.Version>
2022.3.0

> <Gold.Id.Protein>
unknown|4v3u_clean|pdb

> <Gold.Protein.RotatedTorsions>
[ 6612 6571 6572 6573 ] final -147.47 input  122.18 | X-H torsion
[ 6698 6659 6660 6661 ] final   82.78 input  126.07 | X-H torsion
[ 8064 8023 8024 8025 ] final -100.40 input   40.84 | X-H torsion
[ 8135 8102 8103 8104 ] final  -16.18 input  100.47 | X-H torsion
[ 8198 8164 8165 8166 ] final   91.10 input   73.50 | X-H torsion
[ 8278 8240 8241 8242 ] final  -82.54 input   88.79 | X-H torsion
[ 9578 9542 9541 9539 ] final -151.42 input   60.02 | X-H torsion
[ 8331 8311 8312 8313 ] final -136.65 input   92.25 | X-H torsion
[ 7986 7938 7939 7940 ] final  154.42 input   70.73 | X-H torsion
[ 7906 7885 7886 7887 ] final -169.48 input  102.20 | X-H torsion
[ 6850 6802 6803 6804 ] final  155.66 input  120.36 | X-H torsion
[ 10224 10183 10184 10185 ] final  126.11 input   40.62 | X-H torsion
[ 7910 7890 7889 7886 ] final    3.25 input   60.02 | X-H torsion
[ 27200 6334 6333 6332 ] final  -15.50 input    0.00 | X-H torsion
[ 27202 6498 6497 6496 ] final  -12.85 input   -0.00 | X-H torsion
[ 27205 6574 6573 6572 ] final   64.29 input   -0.00 | X-H torsion
[ 27208 7888 7887 7886 ] final  120.83 input    0.00 | X-H torsion
[ 27211 8026 8025 8024 ] final  176.08 input   -0.00 | X-H torsion
[ 27214 8105 8104 8103 ] final   69.19 input    0.00 | X-H torsion
[ 27217 8167 8166 8165 ] final  -53.97 input    0.00 | X-H torsion
[ 27222 10096 10095 10094 ] final -168.82 input   -0.00 | X-H torsion
[ 27225 10186 10185 10184 ] final -129.98 input    0.00 | X-H torsion
[ 27228 7941 7940 7939 ] final   19.96 input    0.00 | X-H torsion
[ 27230 7733 7732 7731 ] final   60.09 input   -0.00 | X-H torsion
[ 27232 7816 7815 7814 ] final -177.02 input   -0.00 | X-H torsion

> <Gold.Protein.ActiveResidues>
 ASP403  THR404  LEU406  ILE407  TYR408  ALA410  LYS411  TRP414  GLN425  TRP426 
 SER427  LYS428  LEU429  GLN430  VAL431  PHE432  ASP433  TYR453  SER462  ALA463 
 ILE464 

> <Gold.Protein.RotatedAtoms>
  242.7287   -7.4478   50.4206 H   0  0  0  0  0  0  0  0  0  0  0  0  # atno 6612 bound_to 6571
  239.7032   -8.0007   49.0139 H   0  0  0  0  0  0  0  0  0  0  0  0  # atno 6698 bound_to 6659
  241.3377   -5.0938   45.2339 H   0  0  0  0  0  0  0  0  0  0  0  0  # atno 6850 bound_to 6802
  239.6209   -6.6945   37.6976 H   0  0  0  0  0  0  0  0  0  0  0  0  # atno 7906 bound_to 7885
  240.0212   -8.7517   36.2077 H   0  0  0  0  0  0  0  0  0  0  0  0  # atno 7910 bound_to 7890
  242.1330   -8.9554   37.1859 H   0  0  0  0  0  0  0  0  0  0  0  0  # atno 7986 bound_to 7938
  245.4810   -8.6129   39.0565 H   0  0  0  0  0  0  0  0  0  0  0  0  # atno 8064 bound_to 8023
  247.2448   -7.1954   42.1022 H   0  0  0  0  0  0  0  0  0  0  0  0  # atno 8135 bound_to 8102
  247.5593   -8.9468   45.2525 H   0  0  0  0  0  0  0  0  0  0  0  0  # atno 8198 bound_to 8164
  248.9346   -7.2674   47.7085 H   0  0  0  0  0  0  0  0  0  0  0  0  # atno 8278 bound_to 8240
  249.5525   -6.8344   50.3335 H   0  0  0  0  0  0  0  0  0  0  0  0  # atno 8331 bound_to 8311
  251.3943  -10.3324   39.8094 H   0  0  0  0  0  0  0  0  0  0  0  0  # atno 9578 bound_to 9542
  248.7138   -3.8221   43.5266 H   0  0  0  0  0  0  0  0  0  0  0  0  # atno 10224 bound_to 10183
  242.7056   -9.1277   52.0444 LP  0  0  0  0  0  0  0  0  0  0  0  0  # atno 27200 bound_to 6334
  241.7439  -10.0832   50.9663 LP  0  0  0  0  0  0  0  0  0  0  0  0  # atno 27201 bound_to 6334
  241.2871   -4.6059   49.9190 LP  0  0  0  0  0  0  0  0  0  0  0  0  # atno 27202 bound_to 6498
  242.0194   -5.5302   48.6504 LP  0  0  0  0  0  0  0  0  0  0  0  0  # atno 27203 bound_to 6498
  241.0053   -7.7226   50.2875 LP  0  0  0  0  0  0  0  0  0  0  0  0  # atno 27204 bound_to 6571
  241.5568   -7.2227   45.8159 LP  0  0  0  0  0  0  0  0  0  0  0  0  # atno 27205 bound_to 6574
  240.6463   -5.9534   46.5643 LP  0  0  0  0  0  0  0  0  0  0  0  0  # atno 27206 bound_to 6574
  240.4897   -8.2640   47.4733 LP  0  0  0  0  0  0  0  0  0  0  0  0  # atno 27207 bound_to 6659
  242.3567  -10.9448   39.1579 LP  0  0  0  0  0  0  0  0  0  0  0  0  # atno 27208 bound_to 7888
  241.8387   -9.9156   40.4512 LP  0  0  0  0  0  0  0  0  0  0  0  0  # atno 27209 bound_to 7888
  244.2005   -8.5539   40.2477 LP  0  0  0  0  0  0  0  0  0  0  0  0  # atno 27210 bound_to 8023
  246.4302   -9.2199   43.4139 LP  0  0  0  0  0  0  0  0  0  0  0  0  # atno 27211 bound_to 8026
  244.9551   -8.7201   42.6559 LP  0  0  0  0  0  0  0  0  0  0  0  0  # atno 27212 bound_to 8026
  248.0587   -8.2800   41.0013 LP  0  0  0  0  0  0  0  0  0  0  0  0  # atno 27213 bound_to 8102
  248.4054   -5.7330   43.5720 LP  0  0  0  0  0  0  0  0  0  0  0  0  # atno 27214 bound_to 8105
  249.7275   -6.0667   44.6400 LP  0  0  0  0  0  0  0  0  0  0  0  0  # atno 27215 bound_to 8105
  248.6484   -7.7383   44.6142 LP  0  0  0  0  0  0  0  0  0  0  0  0  # atno 27216 bound_to 8164
  247.9513   -8.9576   48.5603 LP  0  0  0  0  0  0  0  0  0  0  0  0  # atno 27217 bound_to 8167
  249.6122   -9.1927   48.1289 LP  0  0  0  0  0  0  0  0  0  0  0  0  # atno 27218 bound_to 8167
  249.7707   -5.8287   47.1796 LP  0  0  0  0  0  0  0  0  0  0  0  0  # atno 27219 bound_to 8240
  251.2900  -11.1018   41.2392 LP  0  0  0  0  0  0  0  0  0  0  0  0  # atno 27220 bound_to 9542
  252.1633  -11.7504   40.0214 LP  0  0  0  0  0  0  0  0  0  0  0  0  # atno 27221 bound_to 9542
  249.5244   -6.5598   40.9473 LP  0  0  0  0  0  0  0  0  0  0  0  0  # atno 27222 bound_to 10096
  249.5558   -7.0725   39.2932 LP  0  0  0  0  0  0  0  0  0  0  0  0  # atno 27223 bound_to 10096
  250.8586   -7.7272   51.0745 LP  0  0  0  0  0  0  0  0  0  0  0  0  # atno 27224 bound_to 8311
  249.8113   -4.4946   47.5050 LP  0  0  0  0  0  0  0  0  0  0  0  0  # atno 27225 bound_to 10186
  250.4418   -4.8156   45.9240 LP  0  0  0  0  0  0  0  0  0  0  0  0  # atno 27226 bound_to 10186
  242.5086   -7.9677   38.5765 LP  0  0  0  0  0  0  0  0  0  0  0  0  # atno 27227 bound_to 7938
  245.4131   -7.1598   37.0167 LP  0  0  0  0  0  0  0  0  0  0  0  0  # atno 27228 bound_to 7941
  246.5113   -6.9546   38.3403 LP  0  0  0  0  0  0  0  0  0  0  0  0  # atno 27229 bound_to 7941
  243.8484   -6.1223   36.3388 LP  0  0  0  0  0  0  0  0  0  0  0  0  # atno 27230 bound_to 7733
  242.5150   -7.1618   36.7146 LP  0  0  0  0  0  0  0  0  0  0  0  0  # atno 27231 bound_to 7733
  241.3142   -6.8965   39.9885 LP  0  0  0  0  0  0  0  0  0  0  0  0  # atno 27232 bound_to 7816
  241.5073   -5.1833   39.8221 LP  0  0  0  0  0  0  0  0  0  0  0  0  # atno 27233 bound_to 7816
  241.2721   -7.0195   37.2290 LP  0  0  0  0  0  0  0  0  0  0  0  0  # atno 27234 bound_to 7885

> <Gold.Score>
     Fitness  S(hb_ext) S(vdw_ext)  S(hb_int)    S(int)      intcor
     25.47       7.71      13.32       0.00      -0.56      -0.78

> <Gold.Goldscore.Fitness>
25.4652

> <Gold.Goldscore.Internal.Vdw>
-0.8493

> <Gold.Goldscore.Internal.Torsion>
-0.4952

> <Gold.Goldscore.External.Vdw>
13.3176

> <Gold.Goldscore.Internal.HBond>
0.0000

> <Gold.Goldscore.External.HBond>
7.7142

> <Gold.Goldscore.Internal.Correction>
-0.7838

> <Gold.Goldscore.Hbonds>
donor molecule, donor type, donor heavy atom, donor atom, acceptor molecule, acceptor atom, score
      P1  H  8164  8198       L1    17  0.86
      L1  H     8    22       P1  8110  1.00

> <Gold.Goldscore.Internal.Vdw.Weighted>
-0.8493

> <Gold.Goldscore.Internal.Torsion.Weighted>
-0.4952

> <Gold.Goldscore.External.Vdw.Weighted>
18.3117

> <Gold.Goldscore.Internal.HBond.Weighted>
0.0000

> <Gold.Goldscore.External.HBond.Weighted>
7.7142

> <Gold.Goldscore.Internal.Correction.Weighted>
-0.7838

> <Gold.Rescore>
     Score     S(PLP)   S(hbond)     S(cho)   S(metal)  DE(clash)   DE(tors)     intcor
     29.86     -20.88       3.00       0.00       0.00       0.00       0.01       ----

> <Gold.PLP.Fitness>
29.8617

> <Gold.PLP.PLP>
-20.8780

> <Gold.PLP.part.hbond>
-3.0000

> <Gold.PLP.part.metal>
0.0000

> <Gold.PLP.part.buried>
-4.9617

> <Gold.PLP.part.nonpolar>
-13.5183

> <Gold.PLP.part.repulsive>
0.4504

> <Gold.PLP.ligand.clash>
0.0000

> <Gold.PLP.ligand.torsion>
0.0082

> <Gold.PLP.Chemscore.Hbond>
3.0000

> <Gold.PLP.Chemscore.CHOScore>
0.0000

> <Gold.PLP.Chemscore.Metal>
0.0000

> <Gold.Chemscore.Hbonds>
donor molecule, donor type, donor heavy atom, donor atom, acceptor molecule, acceptor atom, score
      L1  H     8    22       P1  8110  1.00
      P1  H  6810  6861       L1    11  0.48
      P1  H  8164  8198       L1    17  0.71

> <Gold.PLP.Chemscore.Internal.Correction>
   9.000000E+99

#       Name:                CT1002167954
#       Creating user name   hitesit
#       Creation time:       Sun Apr 16 23:06:31 2023


#       File generated by GOLD software.
#

@<TRIPOS>MOLECULE
CT1002167954|ligand_prepared|mol2|1|dock9
    29    30     1
SMALL
NO_CHARGES


@<TRIPOS>ATOM
      1 C1         246.8956 -13.1780  44.7212 C.3            1 RES1               0.0000
      2 C2         247.7773 -13.0825  43.4593 C.ar           1 RES1               0.0000
      3 C3         247.5162 -12.2371  45.7497 C.2            1 RES1               0.0000
      4 C4         245.4875 -12.7851  44.2884 C.2            1 RES1               0.0000
      5 C5         246.8294 -14.5976  45.3311 C.3            1 RES1               0.0000
      6 C6         247.5323 -12.1088  42.4957 C.ar           1 RES1               0.0000
      7 C7         248.8390 -13.9578  43.2466 C.ar           1 RES1               0.0000
      8 N8         246.8712 -11.0620  46.0012 N.am           1 RES1               0.0000
      9 O9         248.5761 -12.5041  46.3025 O.2            1 RES1               0.0000
     10 N10        244.9539 -11.6344  44.8069 N.am           1 RES1               0.0000
     11 O11        244.8415 -13.4529  43.4902 O.2            1 RES1               0.0000
     12 C12        245.7423 -14.7636  46.3813 C.3            1 RES1               0.0000
     13 C13        248.3219 -12.0116  41.3619 C.ar           1 RES1               0.0000
     14 C14        249.6273 -13.8590  42.1119 C.ar           1 RES1               0.0000
     15 C15        245.5938 -10.7389  45.6199 C.2            1 RES1               0.0000
     16 C16        249.3700 -12.8862  41.1695 C.ar           1 RES1               0.0000
     17 O17        245.0660  -9.6982  46.0014 O.2            1 RES1               0.0000
     18 H18        246.6548 -15.3206  44.5248 H              1 RES1               0.0000
     19 H19        247.7993 -14.8316  45.7871 H              1 RES1               0.0000
     20 H20        246.7104 -11.4132  42.6288 H              1 RES1               0.0000
     21 H21        249.0593 -14.7317  43.9741 H              1 RES1               0.0000
     22 H22        247.3865 -10.3585  46.5206 H              1 RES1               0.0000
     23 H23        243.9905 -11.4261  44.5645 H              1 RES1               0.0000
     24 H24        245.7394 -15.7772  46.7766 H              1 RES1               0.0000
     25 H25        245.8989 -14.0769  47.2105 H              1 RES1               0.0000
     26 H26        244.7612 -14.5630  45.9557 H              1 RES1               0.0000
     27 H27        248.1144 -11.2451  40.6226 H              1 RES1               0.0000
     28 H28        250.4507 -14.5499  41.9643 H              1 RES1               0.0000
     29 H29        249.9886 -12.8096  40.2814 H              1 RES1               0.0000
@<TRIPOS>BOND
    1    1    2 1     
    2    1    3 1     
    3    1    4 1     
    4    1    5 1     
    5    2    6 ar    
    6    2    7 ar    
    7    3    8 1     
    8    3    9 2     
    9    4   10 1     
   10    4   11 2     
   11    5   12 1     
   12    5   18 1     
   13    5   19 1     
   14    6   13 ar    
   15    6   20 1     
   16    7   14 ar    
   17    7   21 1     
   18    8   15 1     
   19    8   22 1     
   20   10   15 1     
   21   10   23 1     
   22   12   24 1     
   23   12   25 1     
   24   12   26 1     
   25   13   16 ar    
   26   13   27 1     
   27   14   16 ar    
   28   14   28 1     
   29   15   17 2     
   30   16   29 1     
@<TRIPOS>SUBSTRUCTURE
      1 RES1           1
@<TRIPOS>SET
DONOR_HYDROGENS      STATIC     ATOMS    <user>   **** ""
2 22 23
ATOM$RED        STATIC     ATOMS    COLORGROUP SYSTEM
2 22 23
@<TRIPOS>COMMENT
> <Gold.Version>
2022.3.0

> <Gold.Id.Protein>
unknown|4v3u_clean|pdb

> <Gold.Protein.RotatedTorsions>
[ 6612 6571 6572 6573 ] final  130.96 input  122.18 | X-H torsion
[ 6698 6659 6660 6661 ] final   59.30 input  126.07 | X-H torsion
[ 8064 8023 8024 8025 ] final  163.11 input   40.84 | X-H torsion
[ 8135 8102 8103 8104 ] final -142.32 input  100.47 | X-H torsion
[ 8198 8164 8165 8166 ] final  109.62 input   73.50 | X-H torsion
[ 8278 8240 8241 8242 ] final -106.25 input   88.79 | X-H torsion
[ 9578 9542 9541 9539 ] final   57.98 input   60.02 | X-H torsion
[ 8331 8311 8312 8313 ] final  -34.48 input   92.25 | X-H torsion
[ 7986 7938 7939 7940 ] final  -37.08 input   70.73 | X-H torsion
[ 7906 7885 7886 7887 ] final   36.68 input  102.20 | X-H torsion
[ 6850 6802 6803 6804 ] final  -55.71 input  120.36 | X-H torsion
[ 10224 10183 10184 10185 ] final   10.09 input   40.62 | X-H torsion
[ 7910 7890 7889 7886 ] final  -72.59 input   60.02 | X-H torsion
[ 27200 6334 6333 6332 ] final  -57.66 input    0.00 | X-H torsion
[ 27202 6498 6497 6496 ] final  157.04 input   -0.00 | X-H torsion
[ 27205 6574 6573 6572 ] final  143.67 input   -0.00 | X-H torsion
[ 27208 7888 7887 7886 ] final -159.00 input    0.00 | X-H torsion
[ 27211 8026 8025 8024 ] final -171.37 input   -0.00 | X-H torsion
[ 27214 8105 8104 8103 ] final  -15.30 input    0.00 | X-H torsion
[ 27217 8167 8166 8165 ] final  178.91 input    0.00 | X-H torsion
[ 27222 10096 10095 10094 ] final  131.96 input   -0.00 | X-H torsion
[ 27225 10186 10185 10184 ] final   -9.68 input    0.00 | X-H torsion
[ 27228 7941 7940 7939 ] final   60.20 input    0.00 | X-H torsion
[ 27230 7733 7732 7731 ] final -153.66 input   -0.00 | X-H torsion
[ 27232 7816 7815 7814 ] final  175.76 input   -0.00 | X-H torsion

> <Gold.Protein.ActiveResidues>
 ASP403  THR404  LEU406  ILE407  TYR408  ALA410  LYS411  TRP414  GLN425  TRP426 
 SER427  LYS428  LEU429  GLN430  VAL431  PHE432  ASP433  TYR453  SER462  ALA463 
 ILE464 

> <Gold.Protein.RotatedAtoms>
  242.1022   -8.4181   50.5518 H   0  0  0  0  0  0  0  0  0  0  0  0  # atno 6612 bound_to 6571
  239.8461   -7.6754   48.9478 H   0  0  0  0  0  0  0  0  0  0  0  0  # atno 6698 bound_to 6659
  241.0030   -3.4398   45.0367 H   0  0  0  0  0  0  0  0  0  0  0  0  # atno 6850 bound_to 6802
  241.0771   -7.2040   36.9382 H   0  0  0  0  0  0  0  0  0  0  0  0  # atno 7906 bound_to 7885
  238.8815   -8.6042   36.2742 H   0  0  0  0  0  0  0  0  0  0  0  0  # atno 7910 bound_to 7890
  242.4536   -8.0967   38.6829 H   0  0  0  0  0  0  0  0  0  0  0  0  # atno 7986 bound_to 7938
  244.3951   -7.8945   39.3065 H   0  0  0  0  0  0  0  0  0  0  0  0  # atno 8064 bound_to 8023
  247.3864   -8.5516   41.3181 H   0  0  0  0  0  0  0  0  0  0  0  0  # atno 8135 bound_to 8102
  247.3736   -8.7933   45.1011 H   0  0  0  0  0  0  0  0  0  0  0  0  # atno 8198 bound_to 8164
  249.1646   -7.4011   47.4629 H   0  0  0  0  0  0  0  0  0  0  0  0  # atno 8278 bound_to 8240
  250.8531   -6.6795   50.7477 H   0  0  0  0  0  0  0  0  0  0  0  0  # atno 8331 bound_to 8311
  251.5644  -11.5095   41.1744 H   0  0  0  0  0  0  0  0  0  0  0  0  # atno 9578 bound_to 9542
  249.9077   -4.3843   44.2820 H   0  0  0  0  0  0  0  0  0  0  0  0  # atno 10224 bound_to 10183
  242.1084   -8.9512   52.0607 LP  0  0  0  0  0  0  0  0  0  0  0  0  # atno 27200 bound_to 6334
  242.3411  -10.2597   50.9500 LP  0  0  0  0  0  0  0  0  0  0  0  0  # atno 27201 bound_to 6334
  242.1515   -5.4830   48.7107 LP  0  0  0  0  0  0  0  0  0  0  0  0  # atno 27202 bound_to 6498
  241.1550   -4.6531   49.8587 LP  0  0  0  0  0  0  0  0  0  0  0  0  # atno 27203 bound_to 6498
  241.6111   -6.7843   50.1606 LP  0  0  0  0  0  0  0  0  0  0  0  0  # atno 27204 bound_to 6571
  240.4694   -7.0215   45.7869 LP  0  0  0  0  0  0  0  0  0  0  0  0  # atno 27205 bound_to 6574
  241.7336   -6.1546   46.5933 LP  0  0  0  0  0  0  0  0  0  0  0  0  # atno 27206 bound_to 6574
  240.3511   -8.5795   47.5375 LP  0  0  0  0  0  0  0  0  0  0  0  0  # atno 27207 bound_to 6659
  242.9447  -10.2499   39.8022 LP  0  0  0  0  0  0  0  0  0  0  0  0  # atno 27208 bound_to 7888
  241.2507  -10.6105   39.8068 LP  0  0  0  0  0  0  0  0  0  0  0  0  # atno 27209 bound_to 7888
  245.2529   -9.2501   40.0055 LP  0  0  0  0  0  0  0  0  0  0  0  0  # atno 27210 bound_to 8023
  246.4051   -9.0637   43.5182 LP  0  0  0  0  0  0  0  0  0  0  0  0  # atno 27211 bound_to 8026
  244.9802   -8.8763   42.5516 LP  0  0  0  0  0  0  0  0  0  0  0  0  # atno 27212 bound_to 8026
  247.9199   -6.9509   41.7698 LP  0  0  0  0  0  0  0  0  0  0  0  0  # atno 27213 bound_to 8102
  249.4976   -6.0876   43.3788 LP  0  0  0  0  0  0  0  0  0  0  0  0  # atno 27214 bound_to 8105
  248.6353   -5.7120   44.8333 LP  0  0  0  0  0  0  0  0  0  0  0  0  # atno 27215 bound_to 8105
  248.8296   -7.8881   44.7621 LP  0  0  0  0  0  0  0  0  0  0  0  0  # atno 27216 bound_to 8164
  249.4787   -8.8431   48.8033 LP  0  0  0  0  0  0  0  0  0  0  0  0  # atno 27217 bound_to 8167
  248.0848   -9.3072   47.8859 LP  0  0  0  0  0  0  0  0  0  0  0  0  # atno 27218 bound_to 8167
  249.5450   -5.6975   47.4205 LP  0  0  0  0  0  0  0  0  0  0  0  0  # atno 27219 bound_to 8240
  252.1166  -11.4269   39.6462 LP  0  0  0  0  0  0  0  0  0  0  0  0  # atno 27220 bound_to 9542
  251.1654  -10.2394   40.2391 LP  0  0  0  0  0  0  0  0  0  0  0  0  # atno 27221 bound_to 9542
  250.2718   -6.7563   40.5796 LP  0  0  0  0  0  0  0  0  0  0  0  0  # atno 27222 bound_to 10096
  248.8084   -6.8761   39.6609 LP  0  0  0  0  0  0  0  0  0  0  0  0  # atno 27223 bound_to 10096
  249.5852   -7.8788   50.6690 LP  0  0  0  0  0  0  0  0  0  0  0  0  # atno 27224 bound_to 8311
  249.5903   -4.8320   46.0579 LP  0  0  0  0  0  0  0  0  0  0  0  0  # atno 27225 bound_to 10186
  250.6628   -4.4783   47.3711 LP  0  0  0  0  0  0  0  0  0  0  0  0  # atno 27226 bound_to 10186
  242.1944   -8.8092   37.1096 LP  0  0  0  0  0  0  0  0  0  0  0  0  # atno 27227 bound_to 7938
  245.2230   -6.7233   37.3750 LP  0  0  0  0  0  0  0  0  0  0  0  0  # atno 27228 bound_to 7941
  246.7013   -7.3910   37.9821 LP  0  0  0  0  0  0  0  0  0  0  0  0  # atno 27229 bound_to 7941
  242.5144   -6.7940   37.0573 LP  0  0  0  0  0  0  0  0  0  0  0  0  # atno 27230 bound_to 7733
  243.8490   -6.4902   35.9960 LP  0  0  0  0  0  0  0  0  0  0  0  0  # atno 27231 bound_to 7733
  241.2126   -6.8749   40.0213 LP  0  0  0  0  0  0  0  0  0  0  0  0  # atno 27232 bound_to 7816
  241.6089   -5.2049   39.7893 LP  0  0  0  0  0  0  0  0  0  0  0  0  # atno 27233 bound_to 7816
  239.8463   -6.5207   37.9725 LP  0  0  0  0  0  0  0  0  0  0  0  0  # atno 27234 bound_to 7885

> <Gold.Score>
     Fitness  S(hb_ext) S(vdw_ext)  S(hb_int)    S(int)      intcor
     22.34       1.23      15.58       0.00      -0.31      -0.78

> <Gold.Goldscore.Fitness>
22.3424

> <Gold.Goldscore.Internal.Vdw>
-0.4850

> <Gold.Goldscore.Internal.Torsion>
-0.6030

> <Gold.Goldscore.External.Vdw>
15.5800

> <Gold.Goldscore.Internal.HBond>
0.0000

> <Gold.Goldscore.External.HBond>
1.2326

> <Gold.Goldscore.Internal.Correction>
-0.7752

> <Gold.Goldscore.Hbonds>
donor molecule, donor type, donor heavy atom, donor atom, acceptor molecule, acceptor atom, score
      P1  H  8109  8141       L1     9  0.03
      P1  H  8164  8198       L1    17  0.02
      L1  H     8    22       P1  8167  0.57

> <Gold.Goldscore.Internal.Vdw.Weighted>
-0.4850

> <Gold.Goldscore.Internal.Torsion.Weighted>
-0.6030

> <Gold.Goldscore.External.Vdw.Weighted>
21.4225

> <Gold.Goldscore.Internal.HBond.Weighted>
0.0000

> <Gold.Goldscore.External.HBond.Weighted>
1.2326

> <Gold.Goldscore.Internal.Correction.Weighted>
-0.7752

> <Gold.Rescore>
     Score     S(PLP)   S(hbond)     S(cho)   S(metal)  DE(clash)   DE(tors)     intcor
     13.73     -10.32       2.00       0.00       0.00       0.74       0.93       ----

> <Gold.PLP.Fitness>
13.7333

> <Gold.PLP.PLP>
-10.3237

> <Gold.PLP.part.hbond>
-2.0339

> <Gold.PLP.part.metal>
0.0000

> <Gold.PLP.part.buried>
-2.6891

> <Gold.PLP.part.nonpolar>
-7.0831

> <Gold.PLP.part.repulsive>
0.7932

> <Gold.PLP.ligand.clash>
0.7400

> <Gold.PLP.ligand.torsion>
0.9252

> <Gold.PLP.Chemscore.Hbond>
2.0000

> <Gold.PLP.Chemscore.CHOScore>
0.0000

> <Gold.PLP.Chemscore.Metal>
0.0000

> <Gold.Chemscore.Hbonds>
donor molecule, donor type, donor heavy atom, donor atom, acceptor molecule, acceptor atom, score
      P1  H  8109  8141       L1     9  0.70

> <Gold.PLP.Chemscore.Internal.Correction>
   9.000000E+99

#       Name:                CT1002167954
#       Creating user name   hitesit
#       Creation time:       Sun Apr 16 23:06:30 2023


#       File generated by GOLD software.
#

@<TRIPOS>MOLECULE
CT1002167954|ligand_prepared|mol2|1|dock7
    29    30     1
SMALL
NO_CHARGES


@<TRIPOS>ATOM
      1 C1         247.4708 -12.6454  40.5470 C.3            1 RES1               0.0000
      2 C2         246.0116 -13.1316  40.6622 C.ar           1 RES1               0.0000
      3 C3         247.7769 -12.5584  39.0547 C.2            1 RES1               0.0000
      4 C4         247.5330 -11.3065  41.2738 C.2            1 RES1               0.0000
      5 C5         248.4994 -13.5944  41.2049 C.3            1 RES1               0.0000
      6 C6         244.9708 -12.3844  40.1190 C.ar           1 RES1               0.0000
      7 C7         245.6916 -14.3243  41.3053 C.ar           1 RES1               0.0000
      8 N8         247.8492 -11.3165  38.4958 N.am           1 RES1               0.0000
      9 O9         247.9135 -13.5653  38.3707 O.2            1 RES1               0.0000
     10 N10        247.7961 -10.1848  40.5320 N.am           1 RES1               0.0000
     11 O11        247.3400 -11.2107  42.4796 O.2            1 RES1               0.0000
     12 C12        249.9079 -13.0248  41.2656 C.3            1 RES1               0.0000
     13 C13        243.6578 -12.8154  40.2126 C.ar           1 RES1               0.0000
     14 C14        244.3779 -14.7534  41.3980 C.ar           1 RES1               0.0000
     15 C15        247.9266 -10.1251  39.1713 C.2            1 RES1               0.0000
     16 C16        243.3606 -14.0002  40.8516 C.ar           1 RES1               0.0000
     17 O17        248.1082  -9.0702  38.5703 O.2            1 RES1               0.0000
     18 H18        248.1668 -13.8232  42.2249 H              1 RES1               0.0000
     19 H19        248.5230 -14.5351  40.6410 H              1 RES1               0.0000
     20 H20        245.1852 -11.4482  39.6145 H              1 RES1               0.0000
     21 H21        246.4756 -14.9326  41.7434 H              1 RES1               0.0000
     22 H22        247.8452 -11.2693  37.4819 H              1 RES1               0.0000
     23 H23        247.9049  -9.3136  41.0414 H              1 RES1               0.0000
     24 H24        250.5894 -13.7304  41.7361 H              1 RES1               0.0000
     25 H25        250.2802 -12.8090  40.2663 H              1 RES1               0.0000
     26 H26        249.9261 -12.1013  41.8407 H              1 RES1               0.0000
     27 H27        242.8607 -12.2183  39.7821 H              1 RES1               0.0000
     28 H28        244.1485 -15.6862  41.9024 H              1 RES1               0.0000
     29 H29        242.3320 -14.3379  40.9245 H              1 RES1               0.0000
@<TRIPOS>BOND
    1    1    2 1     
    2    1    3 1     
    3    1    4 1     
    4    1    5 1     
    5    2    6 ar    
    6    2    7 ar    
    7    3    8 1     
    8    3    9 2     
    9    4   10 1     
   10    4   11 2     
   11    5   12 1     
   12    5   18 1     
   13    5   19 1     
   14    6   13 ar    
   15    6   20 1     
   16    7   14 ar    
   17    7   21 1     
   18    8   15 1     
   19    8   22 1     
   20   10   15 1     
   21   10   23 1     
   22   12   24 1     
   23   12   25 1     
   24   12   26 1     
   25   13   16 ar    
   26   13   27 1     
   27   14   16 ar    
   28   14   28 1     
   29   15   17 2     
   30   16   29 1     
@<TRIPOS>SUBSTRUCTURE
      1 RES1           1
@<TRIPOS>SET
DONOR_HYDROGENS      STATIC     ATOMS    <user>   **** ""
2 22 23
ATOM$RED        STATIC     ATOMS    COLORGROUP SYSTEM
2 22 23
@<TRIPOS>COMMENT
> <Gold.Version>
2022.3.0

> <Gold.Id.Protein>
unknown|4v3u_clean|pdb

> <Gold.Protein.RotatedTorsions>
[ 6612 6571 6572 6573 ] final    5.19 input  122.18 | X-H torsion
[ 6698 6659 6660 6661 ] final  -74.49 input  126.07 | X-H torsion
[ 8064 8023 8024 8025 ] final -128.97 input   40.84 | X-H torsion
[ 8135 8102 8103 8104 ] final  -12.91 input  100.47 | X-H torsion
[ 8198 8164 8165 8166 ] final   58.84 input   73.50 | X-H torsion
[ 8278 8240 8241 8242 ] final -131.98 input   88.79 | X-H torsion
[ 9578 9542 9541 9539 ] final -172.35 input   60.02 | X-H torsion
[ 8331 8311 8312 8313 ] final -168.61 input   92.25 | X-H torsion
[ 7986 7938 7939 7940 ] final  -22.45 input   70.73 | X-H torsion
[ 7906 7885 7886 7887 ] final -103.98 input  102.20 | X-H torsion
[ 6850 6802 6803 6804 ] final  158.62 input  120.36 | X-H torsion
[ 10224 10183 10184 10185 ] final  172.66 input   40.62 | X-H torsion
[ 7910 7890 7889 7886 ] final   12.49 input   60.02 | X-H torsion
[ 27200 6334 6333 6332 ] final   22.35 input    0.00 | X-H torsion
[ 27202 6498 6497 6496 ] final   72.42 input   -0.00 | X-H torsion
[ 27205 6574 6573 6572 ] final -130.35 input   -0.00 | X-H torsion
[ 27208 7888 7887 7886 ] final  133.77 input    0.00 | X-H torsion
[ 27211 8026 8025 8024 ] final   82.41 input   -0.00 | X-H torsion
[ 27214 8105 8104 8103 ] final   91.06 input    0.00 | X-H torsion
[ 27217 8167 8166 8165 ] final   -9.09 input    0.00 | X-H torsion
[ 27222 10096 10095 10094 ] final  -64.35 input   -0.00 | X-H torsion
[ 27225 10186 10185 10184 ] final -120.87 input    0.00 | X-H torsion
[ 27228 7941 7940 7939 ] final  101.00 input    0.00 | X-H torsion
[ 27230 7733 7732 7731 ] final   38.81 input   -0.00 | X-H torsion
[ 27232 7816 7815 7814 ] final -135.85 input   -0.00 | X-H torsion

> <Gold.Protein.ActiveResidues>
 ASP403  THR404  LEU406  ILE407  TYR408  ALA410  LYS411  TRP414  GLN425  TRP426 
 SER427  LYS428  LEU429  GLN430  VAL431  PHE432  ASP433  TYR453  SER462  ALA463 
 ILE464 

> <Gold.Protein.RotatedAtoms>
  241.0211   -7.3219   50.1801 H   0  0  0  0  0  0  0  0  0  0  0  0  # atno 6612 bound_to 6571
  240.5646   -7.9273   47.5024 H   0  0  0  0  0  0  0  0  0  0  0  0  # atno 6698 bound_to 6659
  241.3760   -5.0739   45.2195 H   0  0  0  0  0  0  0  0  0  0  0  0  # atno 6850 bound_to 6802
  240.3712   -6.3857   38.2013 H   0  0  0  0  0  0  0  0  0  0  0  0  # atno 7906 bound_to 7885
  240.1178   -8.8668   36.1946 H   0  0  0  0  0  0  0  0  0  0  0  0  # atno 7910 bound_to 7890
  242.5289   -7.9239   38.5606 H   0  0  0  0  0  0  0  0  0  0  0  0  # atno 7986 bound_to 7938
  245.2255   -8.2818   38.9244 H   0  0  0  0  0  0  0  0  0  0  0  0  # atno 8064 bound_to 8023
  247.2816   -7.1621   42.0943 H   0  0  0  0  0  0  0  0  0  0  0  0  # atno 8135 bound_to 8102
  248.0042   -9.0567   45.4298 H   0  0  0  0  0  0  0  0  0  0  0  0  # atno 8198 bound_to 8164
  249.4495   -7.3819   47.1936 H   0  0  0  0  0  0  0  0  0  0  0  0  # atno 8278 bound_to 8240
  249.3808   -7.2823   50.4121 H   0  0  0  0  0  0  0  0  0  0  0  0  # atno 8331 bound_to 8311
  251.2301  -10.2475   40.0947 H   0  0  0  0  0  0  0  0  0  0  0  0  # atno 9578 bound_to 9542
  249.0547   -3.3500   43.1231 H   0  0  0  0  0  0  0  0  0  0  0  0  # atno 10224 bound_to 10183
  243.0367   -9.5025   51.7886 LP  0  0  0  0  0  0  0  0  0  0  0  0  # atno 27200 bound_to 6334
  241.4128   -9.7084   51.2221 LP  0  0  0  0  0  0  0  0  0  0  0  0  # atno 27201 bound_to 6334
  242.4050   -4.8032   49.6233 LP  0  0  0  0  0  0  0  0  0  0  0  0  # atno 27202 bound_to 6498
  240.9015   -5.3330   48.9461 LP  0  0  0  0  0  0  0  0  0  0  0  0  # atno 27203 bound_to 6498
  242.6566   -7.8444   50.5201 LP  0  0  0  0  0  0  0  0  0  0  0  0  # atno 27204 bound_to 6571
  240.4769   -6.0555   46.4661 LP  0  0  0  0  0  0  0  0  0  0  0  0  # atno 27205 bound_to 6574
  241.7262   -7.1207   45.9140 LP  0  0  0  0  0  0  0  0  0  0  0  0  # atno 27206 bound_to 6574
  239.6540   -8.3351   48.9397 LP  0  0  0  0  0  0  0  0  0  0  0  0  # atno 27207 bound_to 6659
  242.5326  -10.8707   39.1988 LP  0  0  0  0  0  0  0  0  0  0  0  0  # atno 27208 bound_to 7888
  241.6628   -9.9897   40.4102 LP  0  0  0  0  0  0  0  0  0  0  0  0  # atno 27209 bound_to 7888
  244.4482   -8.8747   40.3758 LP  0  0  0  0  0  0  0  0  0  0  0  0  # atno 27210 bound_to 8023
  245.6795   -9.6432   42.4902 LP  0  0  0  0  0  0  0  0  0  0  0  0  # atno 27211 bound_to 8026
  245.7058   -8.2968   43.5795 LP  0  0  0  0  0  0  0  0  0  0  0  0  # atno 27212 bound_to 8026
  248.0226   -8.3127   41.0091 LP  0  0  0  0  0  0  0  0  0  0  0  0  # atno 27213 bound_to 8102
  248.2678   -5.6687   43.8634 LP  0  0  0  0  0  0  0  0  0  0  0  0  # atno 27214 bound_to 8105
  249.8650   -6.1309   44.3486 LP  0  0  0  0  0  0  0  0  0  0  0  0  # atno 27215 bound_to 8105
  248.2140   -7.6310   44.4411 LP  0  0  0  0  0  0  0  0  0  0  0  0  # atno 27216 bound_to 8164
  248.0201   -9.2600   47.9763 LP  0  0  0  0  0  0  0  0  0  0  0  0  # atno 27217 bound_to 8167
  249.5434   -8.8903   48.7129 LP  0  0  0  0  0  0  0  0  0  0  0  0  # atno 27218 bound_to 8167
  249.2655   -5.7163   47.6846 LP  0  0  0  0  0  0  0  0  0  0  0  0  # atno 27219 bound_to 8240
  251.4708  -11.3923   41.2256 LP  0  0  0  0  0  0  0  0  0  0  0  0  # atno 27220 bound_to 9542
  252.1479  -11.5454   39.7475 LP  0  0  0  0  0  0  0  0  0  0  0  0  # atno 27221 bound_to 9542
  248.7103   -6.7999   39.8729 LP  0  0  0  0  0  0  0  0  0  0  0  0  # atno 27222 bound_to 10096
  250.3699   -6.8325   40.3676 LP  0  0  0  0  0  0  0  0  0  0  0  0  # atno 27223 bound_to 10096
  251.0267   -7.2887   50.9976 LP  0  0  0  0  0  0  0  0  0  0  0  0  # atno 27224 bound_to 8311
  249.6879   -4.5142   47.4478 LP  0  0  0  0  0  0  0  0  0  0  0  0  # atno 27225 bound_to 10186
  250.5653   -4.7960   45.9812 LP  0  0  0  0  0  0  0  0  0  0  0  0  # atno 27226 bound_to 10186
  242.1207   -8.9784   37.2295 LP  0  0  0  0  0  0  0  0  0  0  0  0  # atno 27227 bound_to 7938
  245.3873   -6.4429   37.8837 LP  0  0  0  0  0  0  0  0  0  0  0  0  # atno 27228 bound_to 7941
  246.5371   -7.6715   37.4733 LP  0  0  0  0  0  0  0  0  0  0  0  0  # atno 27229 bound_to 7941
  243.8768   -6.3408   36.1070 LP  0  0  0  0  0  0  0  0  0  0  0  0  # atno 27230 bound_to 7733
  242.4866   -6.9433   36.9464 LP  0  0  0  0  0  0  0  0  0  0  0  0  # atno 27231 bound_to 7733
  241.8750   -6.7622   39.7925 LP  0  0  0  0  0  0  0  0  0  0  0  0  # atno 27232 bound_to 7816
  240.9464   -5.3176   40.0181 LP  0  0  0  0  0  0  0  0  0  0  0  0  # atno 27233 bound_to 7816
  240.5375   -7.3219   36.7358 LP  0  0  0  0  0  0  0  0  0  0  0  0  # atno 27234 bound_to 7885

> <Gold.Score>
     Fitness  S(hb_ext) S(vdw_ext)  S(hb_int)    S(int)      intcor
     21.63       3.72      14.00       0.00      -1.34      -0.78

> <Gold.Goldscore.Fitness>
21.6324

> <Gold.Goldscore.Internal.Vdw>
-1.6472

> <Gold.Goldscore.Internal.Torsion>
-0.4703

> <Gold.Goldscore.External.Vdw>
14.0032

> <Gold.Goldscore.Internal.HBond>
0.0000

> <Gold.Goldscore.External.HBond>
3.7202

> <Gold.Goldscore.Internal.Correction>
-0.7752

> <Gold.Goldscore.Hbonds>
donor molecule, donor type, donor heavy atom, donor atom, acceptor molecule, acceptor atom, score
      L1  H    10    23       P1  8102  0.62

> <Gold.Goldscore.Internal.Vdw.Weighted>
-1.6472

> <Gold.Goldscore.Internal.Torsion.Weighted>
-0.4703

> <Gold.Goldscore.External.Vdw.Weighted>
19.2544

> <Gold.Goldscore.Internal.HBond.Weighted>
0.0000

> <Gold.Goldscore.External.HBond.Weighted>
3.7202

> <Gold.Goldscore.Internal.Correction.Weighted>
-0.7752

> <Gold.Rescore>
     Score     S(PLP)   S(hbond)     S(cho)   S(metal)  DE(clash)   DE(tors)     intcor
     16.53     -13.94       0.92       0.00       0.00       0.00       0.08       ----

> <Gold.PLP.Fitness>
16.5343

> <Gold.PLP.PLP>
-13.9385

> <Gold.PLP.part.hbond>
-2.1062

> <Gold.PLP.part.metal>
0.0000

> <Gold.PLP.part.buried>
-3.2743

> <Gold.PLP.part.nonpolar>
-10.1675

> <Gold.PLP.part.repulsive>
1.6632

> <Gold.PLP.ligand.clash>
0.0000

> <Gold.PLP.ligand.torsion>
0.0762

> <Gold.PLP.Chemscore.Hbond>
0.9161

> <Gold.PLP.Chemscore.CHOScore>
0.0000

> <Gold.PLP.Chemscore.Metal>
0.0000

> <Gold.Chemscore.Hbonds>
donor molecule, donor type, donor heavy atom, donor atom, acceptor molecule, acceptor atom, score
      L1  H    10    23       P1  8102  0.75

> <Gold.PLP.Chemscore.Internal.Correction>
   9.000000E+99

#       Name:                CT1002167954
#       Creating user name   hitesit
#       Creation time:       Sun Apr 16 23:06:30 2023


#       File generated by GOLD software.
#

@<TRIPOS>MOLECULE
CT1002167954|ligand_prepared|mol2|1|dock6
    29    30     1
SMALL
NO_CHARGES


@<TRIPOS>ATOM
      1 C1         247.4871 -12.3007  39.9949 C.3            1 RES1               0.0000
      2 C2         247.6420 -13.4688  38.9997 C.ar           1 RES1               0.0000
      3 C3         248.8831 -12.0146  40.5403 C.2            1 RES1               0.0000
      4 C4         246.8787 -11.1463  39.2063 C.2            1 RES1               0.0000
      5 C5         246.5496 -12.6134  41.1843 C.3            1 RES1               0.0000
      6 C6         248.6948 -13.4896  38.0898 C.ar           1 RES1               0.0000
      7 C7         246.7433 -14.5320  38.9814 C.ar           1 RES1               0.0000
      8 N8         249.5165 -10.8909  40.0975 N.am           1 RES1               0.0000
      9 O9         249.4358 -12.7838  41.3169 O.2            1 RES1               0.0000
     10 N10        247.6398 -10.0214  39.0242 N.am           1 RES1               0.0000
     11 O11        245.7532 -11.2071  38.7268 O.2            1 RES1               0.0000
     12 C12        246.5112 -11.5187  42.2390 C.3            1 RES1               0.0000
     13 C13        248.8454 -14.5368  37.1959 C.ar           1 RES1               0.0000
     14 C14        246.8956 -15.5782  38.0865 C.ar           1 RES1               0.0000
     15 C15        248.9424  -9.8534  39.4078 C.2            1 RES1               0.0000
     16 C16        247.9463 -15.5819  37.1939 C.ar           1 RES1               0.0000
     17 O17        249.5780  -8.8327  39.1600 O.2            1 RES1               0.0000
     18 H18        245.5337 -12.7705  40.8013 H              1 RES1               0.0000
     19 H19        246.8779 -13.5474  41.6567 H              1 RES1               0.0000
     20 H20        249.4108 -12.6747  38.0749 H              1 RES1               0.0000
     21 H21        245.9085 -14.5497  39.6738 H              1 RES1               0.0000
     22 H22        250.5087 -10.8150  40.2976 H              1 RES1               0.0000
     23 H23        247.1939  -9.2366  38.5598 H              1 RES1               0.0000
     24 H24        245.8388 -11.7885  43.0507 H              1 RES1               0.0000
     25 H25        247.5010 -11.3535  42.6596 H              1 RES1               0.0000
     26 H26        246.1647 -10.5811  41.8093 H              1 RES1               0.0000
     27 H27        249.6733 -14.5343  36.4946 H              1 RES1               0.0000
     28 H28        246.1852 -16.3983  38.0881 H              1 RES1               0.0000
     29 H29        248.0648 -16.4023  36.4939 H              1 RES1               0.0000
@<TRIPOS>BOND
    1    1    2 1     
    2    1    3 1     
    3    1    4 1     
    4    1    5 1     
    5    2    6 ar    
    6    2    7 ar    
    7    3    8 1     
    8    3    9 2     
    9    4   10 1     
   10    4   11 2     
   11    5   12 1     
   12    5   18 1     
   13    5   19 1     
   14    6   13 ar    
   15    6   20 1     
   16    7   14 ar    
   17    7   21 1     
   18    8   15 1     
   19    8   22 1     
   20   10   15 1     
   21   10   23 1     
   22   12   24 1     
   23   12   25 1     
   24   12   26 1     
   25   13   16 ar    
   26   13   27 1     
   27   14   16 ar    
   28   14   28 1     
   29   15   17 2     
   30   16   29 1     
@<TRIPOS>SUBSTRUCTURE
      1 RES1           1
@<TRIPOS>SET
DONOR_HYDROGENS      STATIC     ATOMS    <user>   **** ""
2 22 23
ATOM$RED        STATIC     ATOMS    COLORGROUP SYSTEM
2 22 23
@<TRIPOS>COMMENT
> <Gold.Version>
2022.3.0

> <Gold.Id.Protein>
unknown|4v3u_clean|pdb

> <Gold.Protein.RotatedTorsions>
[ 6612 6571 6572 6573 ] final  -51.67 input  122.18 | X-H torsion
[ 6698 6659 6660 6661 ] final -167.24 input  126.07 | X-H torsion
[ 8064 8023 8024 8025 ] final  -45.17 input   40.84 | X-H torsion
[ 8135 8102 8103 8104 ] final   54.81 input  100.47 | X-H torsion
[ 8198 8164 8165 8166 ] final  -61.96 input   73.50 | X-H torsion
[ 8278 8240 8241 8242 ] final   86.80 input   88.79 | X-H torsion
[ 9578 9542 9541 9539 ] final  -22.02 input   60.02 | X-H torsion
[ 8331 8311 8312 8313 ] final  -35.45 input   92.25 | X-H torsion
[ 7986 7938 7939 7940 ] final  162.13 input   70.73 | X-H torsion
[ 7906 7885 7886 7887 ] final -143.08 input  102.20 | X-H torsion
[ 6850 6802 6803 6804 ] final -104.69 input  120.36 | X-H torsion
[ 10224 10183 10184 10185 ] final   95.93 input   40.62 | X-H torsion
[ 7910 7890 7889 7886 ] final  -53.66 input   60.02 | X-H torsion
[ 27200 6334 6333 6332 ] final   50.67 input    0.00 | X-H torsion
[ 27202 6498 6497 6496 ] final -136.73 input   -0.00 | X-H torsion
[ 27205 6574 6573 6572 ] final   51.42 input   -0.00 | X-H torsion
[ 27208 7888 7887 7886 ] final  -48.36 input    0.00 | X-H torsion
[ 27211 8026 8025 8024 ] final  -98.51 input   -0.00 | X-H torsion
[ 27214 8105 8104 8103 ] final  -23.97 input    0.00 | X-H torsion
[ 27217 8167 8166 8165 ] final  -34.40 input    0.00 | X-H torsion
[ 27222 10096 10095 10094 ] final   77.50 input   -0.00 | X-H torsion
[ 27225 10186 10185 10184 ] final  151.71 input    0.00 | X-H torsion
[ 27228 7941 7940 7939 ] final   59.56 input    0.00 | X-H torsion
[ 27230 7733 7732 7731 ] final   41.20 input   -0.00 | X-H torsion
[ 27232 7816 7815 7814 ] final  152.05 input   -0.00 | X-H torsion

> <Gold.Protein.ActiveResidues>
 ASP403  THR404  LEU406  ILE407  TYR408  ALA410  LYS411  TRP414  GLN425  TRP426 
 SER427  LYS428  LEU429  GLN430  VAL431  PHE432  ASP433  TYR453  SER462  ALA463 
 ILE464 

> <Gold.Protein.RotatedAtoms>
  241.6448   -6.7503   50.1345 H   0  0  0  0  0  0  0  0  0  0  0  0  # atno 6612 bound_to 6571
  239.9693   -8.9700   47.9623 H   0  0  0  0  0  0  0  0  0  0  0  0  # atno 6698 bound_to 6659
  241.6228   -3.8124   44.9261 H   0  0  0  0  0  0  0  0  0  0  0  0  # atno 6850 bound_to 6802
  239.8359   -6.5137   37.9867 H   0  0  0  0  0  0  0  0  0  0  0  0  # atno 7906 bound_to 7885
  239.1689   -8.4938   36.2683 H   0  0  0  0  0  0  0  0  0  0  0  0  # atno 7910 bound_to 7890
  242.0969   -9.0372   37.2637 H   0  0  0  0  0  0  0  0  0  0  0  0  # atno 7986 bound_to 7938
  245.5076   -9.1586   39.6730 H   0  0  0  0  0  0  0  0  0  0  0  0  # atno 8064 bound_to 8023
  248.1214   -6.9968   41.6110 H   0  0  0  0  0  0  0  0  0  0  0  0  # atno 8135 bound_to 8102
  248.9060   -7.9599   44.8393 H   0  0  0  0  0  0  0  0  0  0  0  0  # atno 8198 bound_to 8164
  249.6820   -5.7376   47.2815 H   0  0  0  0  0  0  0  0  0  0  0  0  # atno 8278 bound_to 8240
  250.8439   -6.6696   50.7413 H   0  0  0  0  0  0  0  0  0  0  0  0  # atno 8331 bound_to 8311
  252.1443  -11.8075   40.1632 H   0  0  0  0  0  0  0  0  0  0  0  0  # atno 9578 bound_to 9542
  248.7892   -4.1448   43.8554 H   0  0  0  0  0  0  0  0  0  0  0  0  # atno 10224 bound_to 10183
  243.0634   -9.8214   51.5109 LP  0  0  0  0  0  0  0  0  0  0  0  0  # atno 27200 bound_to 6334
  241.3861   -9.3896   51.4998 LP  0  0  0  0  0  0  0  0  0  0  0  0  # atno 27201 bound_to 6334
  241.2059   -5.5146   48.6927 LP  0  0  0  0  0  0  0  0  0  0  0  0  # atno 27202 bound_to 6498
  242.1006   -4.6216   49.8768 LP  0  0  0  0  0  0  0  0  0  0  0  0  # atno 27203 bound_to 6498
  242.0535   -8.3971   50.5641 LP  0  0  0  0  0  0  0  0  0  0  0  0  # atno 27204 bound_to 6571
  241.7076   -7.1350   45.9010 LP  0  0  0  0  0  0  0  0  0  0  0  0  # atno 27205 bound_to 6574
  240.4955   -6.0411   46.4791 LP  0  0  0  0  0  0  0  0  0  0  0  0  # atno 27206 bound_to 6574
  240.2316   -7.3236   48.4935 LP  0  0  0  0  0  0  0  0  0  0  0  0  # atno 27207 bound_to 6659
  241.6906   -9.9758   40.4191 LP  0  0  0  0  0  0  0  0  0  0  0  0  # atno 27208 bound_to 7888
  242.5048  -10.8846   39.1899 LP  0  0  0  0  0  0  0  0  0  0  0  0  # atno 27209 bound_to 7888
  244.1747   -8.0250   39.6503 LP  0  0  0  0  0  0  0  0  0  0  0  0  # atno 27210 bound_to 8023
  245.7177   -8.3016   43.5850 LP  0  0  0  0  0  0  0  0  0  0  0  0  # atno 27211 bound_to 8026
  245.6676   -9.6384   42.4848 LP  0  0  0  0  0  0  0  0  0  0  0  0  # atno 27212 bound_to 8026
  247.1995   -8.4747   41.4828 LP  0  0  0  0  0  0  0  0  0  0  0  0  # atno 27213 bound_to 8102
  249.5989   -6.1134   43.4573 LP  0  0  0  0  0  0  0  0  0  0  0  0  # atno 27214 bound_to 8105
  248.5339   -5.6862   44.7547 LP  0  0  0  0  0  0  0  0  0  0  0  0  # atno 27215 bound_to 8105
  247.3337   -8.7017   45.0176 LP  0  0  0  0  0  0  0  0  0  0  0  0  # atno 27216 bound_to 8164
  247.9170   -9.0916   48.3004 LP  0  0  0  0  0  0  0  0  0  0  0  0  # atno 27217 bound_to 8167
  249.6465   -9.0587   48.3888 LP  0  0  0  0  0  0  0  0  0  0  0  0  # atno 27218 bound_to 8167
  249.0375   -7.3292   47.5984 LP  0  0  0  0  0  0  0  0  0  0  0  0  # atno 27219 bound_to 8240
  251.4762  -10.3991   39.6972 LP  0  0  0  0  0  0  0  0  0  0  0  0  # atno 27220 bound_to 9542
  251.2215  -10.9670   41.2069 LP  0  0  0  0  0  0  0  0  0  0  0  0  # atno 27221 bound_to 9542
  250.3349   -6.9951   39.8265 LP  0  0  0  0  0  0  0  0  0  0  0  0  # atno 27222 bound_to 10096
  248.7453   -6.6372   40.4140 LP  0  0  0  0  0  0  0  0  0  0  0  0  # atno 27223 bound_to 10096
  249.5942   -7.8886   50.6753 LP  0  0  0  0  0  0  0  0  0  0  0  0  # atno 27224 bound_to 8311
  250.8513   -4.5139   47.1671 LP  0  0  0  0  0  0  0  0  0  0  0  0  # atno 27225 bound_to 10186
  249.4019   -4.7964   46.2619 LP  0  0  0  0  0  0  0  0  0  0  0  0  # atno 27226 bound_to 10186
  242.5440   -7.8876   38.5002 LP  0  0  0  0  0  0  0  0  0  0  0  0  # atno 27227 bound_to 7938
  245.2233   -6.7295   37.3676 LP  0  0  0  0  0  0  0  0  0  0  0  0  # atno 27228 bound_to 7941
  246.7010   -7.3849   37.9895 LP  0  0  0  0  0  0  0  0  0  0  0  0  # atno 27229 bound_to 7941
  243.8784   -6.3136   36.1308 LP  0  0  0  0  0  0  0  0  0  0  0  0  # atno 27230 bound_to 7733
  242.4851   -6.9706   36.9226 LP  0  0  0  0  0  0  0  0  0  0  0  0  # atno 27231 bound_to 7733
  240.9087   -6.7142   40.1136 LP  0  0  0  0  0  0  0  0  0  0  0  0  # atno 27232 bound_to 7816
  241.9127   -5.3657   39.6970 LP  0  0  0  0  0  0  0  0  0  0  0  0  # atno 27233 bound_to 7816
  241.0615   -7.1966   36.9460 LP  0  0  0  0  0  0  0  0  0  0  0  0  # atno 27234 bound_to 7885

> <Gold.Score>
     Fitness  S(hb_ext) S(vdw_ext)  S(hb_int)    S(int)      intcor
     21.36       3.26      13.34       0.00      -0.24      -0.78

> <Gold.Goldscore.Fitness>
21.3611

> <Gold.Goldscore.Internal.Vdw>
-0.5961

> <Gold.Goldscore.Internal.Torsion>
-0.4280

> <Gold.Goldscore.External.Vdw>
13.3423

> <Gold.Goldscore.Internal.HBond>
0.0000

> <Gold.Goldscore.External.HBond>
3.2557

> <Gold.Goldscore.Internal.Correction>
-0.7838

> <Gold.Goldscore.Hbonds>
donor molecule, donor type, donor heavy atom, donor atom, acceptor molecule, acceptor atom, score
      P1  H  8023  8064       L1    11  0.27
      L1  H     8    22       P1  9542  0.72
      L1  H    10    23       P1  7941  0.64

> <Gold.Goldscore.Internal.Vdw.Weighted>
-0.5961

> <Gold.Goldscore.Internal.Torsion.Weighted>
-0.4280

> <Gold.Goldscore.External.Vdw.Weighted>
18.3457

> <Gold.Goldscore.Internal.HBond.Weighted>
0.0000

> <Gold.Goldscore.External.HBond.Weighted>
3.2557

> <Gold.Goldscore.Internal.Correction.Weighted>
-0.7838

> <Gold.Rescore>
     Score     S(PLP)   S(hbond)     S(cho)   S(metal)  DE(clash)   DE(tors)     intcor
     16.76     -13.77       1.00       0.00       0.00       0.00       0.01       ----

> <Gold.PLP.Fitness>
16.7634

> <Gold.PLP.PLP>
-13.7745

> <Gold.PLP.part.hbond>
-3.7482

> <Gold.PLP.part.metal>
0.0000

> <Gold.PLP.part.buried>
-3.6456

> <Gold.PLP.part.nonpolar>
-8.4214

> <Gold.PLP.part.repulsive>
1.6417

> <Gold.PLP.ligand.clash>
0.0000

> <Gold.PLP.ligand.torsion>
0.0055

> <Gold.PLP.Chemscore.Hbond>
1.0000

> <Gold.PLP.Chemscore.CHOScore>
0.0000

> <Gold.PLP.Chemscore.Metal>
0.0000

> <Gold.Chemscore.Hbonds>
donor molecule, donor type, donor heavy atom, donor atom, acceptor molecule, acceptor atom, score
      L1  H     8    22       P1  9542  0.47
      P1  H  8023  8064       L1    11  0.11

> <Gold.PLP.Chemscore.Internal.Correction>
   9.000000E+99

#       Name:                CT1002167954
#       Creating user name   hitesit
#       Creation time:       Sun Apr 16 23:06:29 2023


#       File generated by GOLD software.
#

@<TRIPOS>MOLECULE
CT1002167954|ligand_prepared|mol2|1|dock5
    29    30     1
SMALL
NO_CHARGES


@<TRIPOS>ATOM
      1 C1         245.1852 -13.3599  40.8958 C.3            1 RES1               0.0000
      2 C2         243.7508 -13.4185  40.3321 C.ar           1 RES1               0.0000
      3 C3         246.1208 -13.3961  39.6909 C.2            1 RES1               0.0000
      4 C4         245.2709 -12.0746  41.7115 C.2            1 RES1               0.0000
      5 C5         245.5390 -14.5419  41.8281 C.3            1 RES1               0.0000
      6 C6         242.7687 -14.1698  40.9707 C.ar           1 RES1               0.0000
      7 C7         243.3945 -12.7257  39.1781 C.ar           1 RES1               0.0000
      8 N8         246.7492 -12.2366  39.3438 N.am           1 RES1               0.0000
      9 O9         246.2742 -14.4168  39.0315 O.2            1 RES1               0.0000
     10 N10        246.1121 -11.0878  41.2684 N.am           1 RES1               0.0000
     11 O11        244.6050 -11.9009  42.7248 O.2            1 RES1               0.0000
     12 C12        247.0089 -14.6006  42.2129 C.3            1 RES1               0.0000
     13 C13        241.4764 -14.2242  40.4753 C.ar           1 RES1               0.0000
     14 C14        242.1016 -12.7817  38.6843 C.ar           1 RES1               0.0000
     15 C15        246.8320 -11.0983  40.1049 C.2            1 RES1               0.0000
     16 C16        241.1419 -13.5300  39.3322 C.ar           1 RES1               0.0000
     17 O17        247.5243 -10.1496  39.7473 O.2            1 RES1               0.0000
     18 H18        244.9376 -14.4629  42.7421 H              1 RES1               0.0000
     19 H19        245.2673 -15.4797  41.3279 H              1 RES1               0.0000
     20 H20        243.0139 -14.7247  41.8701 H              1 RES1               0.0000
     21 H21        244.1333 -12.1315  38.6512 H              1 RES1               0.0000
     22 H22        247.1991 -12.2136  38.4342 H              1 RES1               0.0000
     23 H23        246.2109 -10.2696  41.8610 H              1 RES1               0.0000
     24 H24        247.2027 -15.4479  42.8673 H              1 RES1               0.0000
     25 H25        247.6351 -14.7046  41.3293 H              1 RES1               0.0000
     26 H26        247.3074 -13.6939  42.7351 H              1 RES1               0.0000
     27 H27        240.7251 -14.8157  40.9881 H              1 RES1               0.0000
     28 H28        241.8430 -12.2342  37.7839 H              1 RES1               0.0000
     29 H29        240.1294 -13.5725  38.9445 H              1 RES1               0.0000
@<TRIPOS>BOND
    1    1    2 1     
    2    1    3 1     
    3    1    4 1     
    4    1    5 1     
    5    2    6 ar    
    6    2    7 ar    
    7    3    8 1     
    8    3    9 2     
    9    4   10 1     
   10    4   11 2     
   11    5   12 1     
   12    5   18 1     
   13    5   19 1     
   14    6   13 ar    
   15    6   20 1     
   16    7   14 ar    
   17    7   21 1     
   18    8   15 1     
   19    8   22 1     
   20   10   15 1     
   21   10   23 1     
   22   12   24 1     
   23   12   25 1     
   24   12   26 1     
   25   13   16 ar    
   26   13   27 1     
   27   14   16 ar    
   28   14   28 1     
   29   15   17 2     
   30   16   29 1     
@<TRIPOS>SUBSTRUCTURE
      1 RES1           1
@<TRIPOS>SET
DONOR_HYDROGENS      STATIC     ATOMS    <user>   **** ""
2 22 23
ATOM$RED        STATIC     ATOMS    COLORGROUP SYSTEM
2 22 23
@<TRIPOS>COMMENT
> <Gold.Version>
2022.3.0

> <Gold.Id.Protein>
unknown|4v3u_clean|pdb

> <Gold.Protein.RotatedTorsions>
[ 6612 6571 6572 6573 ] final -112.58 input  122.18 | X-H torsion
[ 6698 6659 6660 6661 ] final   15.93 input  126.07 | X-H torsion
[ 8064 8023 8024 8025 ] final  -34.10 input   40.84 | X-H torsion
[ 8135 8102 8103 8104 ] final  179.12 input  100.47 | X-H torsion
[ 8198 8164 8165 8166 ] final -136.11 input   73.50 | X-H torsion
[ 8278 8240 8241 8242 ] final   59.08 input   88.79 | X-H torsion
[ 9578 9542 9541 9539 ] final  -41.38 input   60.02 | X-H torsion
[ 8331 8311 8312 8313 ] final   70.06 input   92.25 | X-H torsion
[ 7986 7938 7939 7940 ] final   14.84 input   70.73 | X-H torsion
[ 7906 7885 7886 7887 ] final -100.50 input  102.20 | X-H torsion
[ 6850 6802 6803 6804 ] final  -39.47 input  120.36 | X-H torsion
[ 10224 10183 10184 10185 ] final  120.42 input   40.62 | X-H torsion
[ 7910 7890 7889 7886 ] final  165.61 input   60.02 | X-H torsion
[ 27200 6334 6333 6332 ] final  -53.74 input    0.00 | X-H torsion
[ 27202 6498 6497 6496 ] final  -41.54 input   -0.00 | X-H torsion
[ 27205 6574 6573 6572 ] final    6.47 input   -0.00 | X-H torsion
[ 27208 7888 7887 7886 ] final  141.39 input    0.00 | X-H torsion
[ 27211 8026 8025 8024 ] final  -79.49 input   -0.00 | X-H torsion
[ 27214 8105 8104 8103 ] final -111.65 input    0.00 | X-H torsion
[ 27217 8167 8166 8165 ] final   -7.36 input    0.00 | X-H torsion
[ 27222 10096 10095 10094 ] final    4.71 input   -0.00 | X-H torsion
[ 27225 10186 10185 10184 ] final -112.51 input    0.00 | X-H torsion
[ 27228 7941 7940 7939 ] final  118.74 input    0.00 | X-H torsion
[ 27230 7733 7732 7731 ] final  103.12 input   -0.00 | X-H torsion
[ 27232 7816 7815 7814 ] final -110.64 input   -0.00 | X-H torsion

> <Gold.Protein.ActiveResidues>
 ASP403  THR404  LEU406  ILE407  TYR408  ALA410  LYS411  TRP414  GLN425  TRP426 
 SER427  LYS428  LEU429  GLN430  VAL431  PHE432  ASP433  TYR453  SER462  ALA463 
 ILE464 

> <Gold.Protein.RotatedAtoms>
  242.5020   -6.9824   50.2917 H   0  0  0  0  0  0  0  0  0  0  0  0  # atno 6612 bound_to 6571
  240.1962   -7.3046   48.5345 H   0  0  0  0  0  0  0  0  0  0  0  0  # atno 6698 bound_to 6659
  240.7638   -3.4462   45.1060 H   0  0  0  0  0  0  0  0  0  0  0  0  # atno 6850 bound_to 6802
  240.4247   -6.3845   38.2046 H   0  0  0  0  0  0  0  0  0  0  0  0  # atno 7906 bound_to 7885
  238.9167  -10.2361   36.1524 H   0  0  0  0  0  0  0  0  0  0  0  0  # atno 7910 bound_to 7890
  242.6513   -7.6600   38.0773 H   0  0  0  0  0  0  0  0  0  0  0  0  # atno 7986 bound_to 7938
  245.4338   -9.2170   39.8163 H   0  0  0  0  0  0  0  0  0  0  0  0  # atno 8064 bound_to 8023
  247.8852   -8.4302   41.0428 H   0  0  0  0  0  0  0  0  0  0  0  0  # atno 8135 bound_to 8102
  247.9888   -7.6351   44.4032 H   0  0  0  0  0  0  0  0  0  0  0  0  # atno 8198 bound_to 8164
  249.3872   -5.6706   47.5765 H   0  0  0  0  0  0  0  0  0  0  0  0  # atno 8278 bound_to 8240
  250.5707   -8.0104   51.0620 H   0  0  0  0  0  0  0  0  0  0  0  0  # atno 8331 bound_to 8311
  252.1629  -11.6573   39.8874 H   0  0  0  0  0  0  0  0  0  0  0  0  # atno 9578 bound_to 9542
  248.7094   -3.8860   43.5884 H   0  0  0  0  0  0  0  0  0  0  0  0  # atno 10224 bound_to 10183
  242.1664   -8.9535   52.0724 LP  0  0  0  0  0  0  0  0  0  0  0  0  # atno 27200 bound_to 6334
  242.2831  -10.2574   50.9383 LP  0  0  0  0  0  0  0  0  0  0  0  0  # atno 27201 bound_to 6334
  240.9553   -4.7719   49.7033 LP  0  0  0  0  0  0  0  0  0  0  0  0  # atno 27202 bound_to 6498
  242.3512   -5.3642   48.8662 LP  0  0  0  0  0  0  0  0  0  0  0  0  # atno 27203 bound_to 6498
  241.2245   -8.1727   50.4121 LP  0  0  0  0  0  0  0  0  0  0  0  0  # atno 27204 bound_to 6571
  241.9605   -6.6534   46.2787 LP  0  0  0  0  0  0  0  0  0  0  0  0  # atno 27205 bound_to 6574
  240.2425   -6.5227   46.1015 LP  0  0  0  0  0  0  0  0  0  0  0  0  # atno 27206 bound_to 6574
  240.0115   -8.9392   47.9384 LP  0  0  0  0  0  0  0  0  0  0  0  0  # atno 27207 bound_to 6659
  242.6263  -10.8164   39.2376 LP  0  0  0  0  0  0  0  0  0  0  0  0  # atno 27208 bound_to 7888
  241.5691  -10.0440   40.3714 LP  0  0  0  0  0  0  0  0  0  0  0  0  # atno 27209 bound_to 7888
  244.2463   -7.9684   39.5114 LP  0  0  0  0  0  0  0  0  0  0  0  0  # atno 27210 bound_to 8023
  245.4759   -8.2389   43.4455 LP  0  0  0  0  0  0  0  0  0  0  0  0  # atno 27211 bound_to 8026
  245.9094   -9.7011   42.6243 LP  0  0  0  0  0  0  0  0  0  0  0  0  # atno 27212 bound_to 8026
  247.4310   -7.0698   42.0396 LP  0  0  0  0  0  0  0  0  0  0  0  0  # atno 27213 bound_to 8102
  249.7201   -6.0636   44.6499 LP  0  0  0  0  0  0  0  0  0  0  0  0  # atno 27214 bound_to 8105
  248.4127   -5.7360   43.5621 LP  0  0  0  0  0  0  0  0  0  0  0  0  # atno 27215 bound_to 8105
  248.2290   -9.0187   45.4434 LP  0  0  0  0  0  0  0  0  0  0  0  0  # atno 27216 bound_to 8164
  248.0328   -9.2705   47.9560 LP  0  0  0  0  0  0  0  0  0  0  0  0  # atno 27217 bound_to 8167
  249.5306   -8.8798   48.7332 LP  0  0  0  0  0  0  0  0  0  0  0  0  # atno 27218 bound_to 8167
  249.3266   -7.3950   47.3090 LP  0  0  0  0  0  0  0  0  0  0  0  0  # atno 27219 bound_to 8240
  251.3070  -10.2744   39.9345 LP  0  0  0  0  0  0  0  0  0  0  0  0  # atno 27220 bound_to 9542
  251.3720  -11.2430   41.2475 LP  0  0  0  0  0  0  0  0  0  0  0  0  # atno 27221 bound_to 9542
  249.4586   -7.0615   39.2937 LP  0  0  0  0  0  0  0  0  0  0  0  0  # atno 27222 bound_to 10096
  249.6216   -6.5708   40.9468 LP  0  0  0  0  0  0  0  0  0  0  0  0  # atno 27223 bound_to 10096
  249.8616   -6.5758   50.3612 LP  0  0  0  0  0  0  0  0  0  0  0  0  # atno 27224 bound_to 8311
  249.5841   -4.5354   47.3789 LP  0  0  0  0  0  0  0  0  0  0  0  0  # atno 27225 bound_to 10186
  250.6690   -4.7749   46.0501 LP  0  0  0  0  0  0  0  0  0  0  0  0  # atno 27226 bound_to 10186
  242.0007   -9.2370   37.7031 LP  0  0  0  0  0  0  0  0  0  0  0  0  # atno 27227 bound_to 7938
  245.5564   -6.4109   38.0880 LP  0  0  0  0  0  0  0  0  0  0  0  0  # atno 27228 bound_to 7941
  246.3679   -7.7035   37.2690 LP  0  0  0  0  0  0  0  0  0  0  0  0  # atno 27229 bound_to 7941
  243.5303   -5.9179   36.8493 LP  0  0  0  0  0  0  0  0  0  0  0  0  # atno 27230 bound_to 7733
  242.8332   -7.3663   36.2041 LP  0  0  0  0  0  0  0  0  0  0  0  0  # atno 27231 bound_to 7733
  242.1193   -6.4911   39.6945 LP  0  0  0  0  0  0  0  0  0  0  0  0  # atno 27232 bound_to 7816
  240.7022   -5.5888   40.1161 LP  0  0  0  0  0  0  0  0  0  0  0  0  # atno 27233 bound_to 7816
  240.4851   -7.3231   36.7325 LP  0  0  0  0  0  0  0  0  0  0  0  0  # atno 27234 bound_to 7885

> <Gold.Score>
     Fitness  S(hb_ext) S(vdw_ext)  S(hb_int)    S(int)      intcor
     19.75       3.08      12.64       0.00      -0.72      -0.78

> <Gold.Goldscore.Fitness>
19.7492

> <Gold.Goldscore.Internal.Vdw>
-1.0056

> <Gold.Goldscore.Internal.Torsion>
-0.4957

> <Gold.Goldscore.External.Vdw>
12.6419

> <Gold.Goldscore.Internal.HBond>
0.0000

> <Gold.Goldscore.External.HBond>
3.0839

> <Gold.Goldscore.Internal.Correction>
-0.7838

> <Gold.Goldscore.Hbonds>
donor molecule, donor type, donor heavy atom, donor atom, acceptor molecule, acceptor atom, score
      P1  H  8023  8064       L1    17  0.02
      P1  H  8102  8135       L1    17  0.55
      L1  H    10    23       P1  8026  0.98

> <Gold.Goldscore.Internal.Vdw.Weighted>
-1.0056

> <Gold.Goldscore.Internal.Torsion.Weighted>
-0.4957

> <Gold.Goldscore.External.Vdw.Weighted>
17.3827

> <Gold.Goldscore.Internal.HBond.Weighted>
0.0000

> <Gold.Goldscore.External.HBond.Weighted>
3.0839

> <Gold.Goldscore.Internal.Correction.Weighted>
-0.7838

> <Gold.Rescore>
     Score     S(PLP)   S(hbond)     S(cho)   S(metal)  DE(clash)   DE(tors)     intcor
     20.47     -12.30       2.99       0.00       0.00       0.00       0.39       ----

> <Gold.PLP.Fitness>
20.4733

> <Gold.PLP.PLP>
-12.3005

> <Gold.PLP.part.hbond>
-4.0611

> <Gold.PLP.part.metal>
0.0000

> <Gold.PLP.part.buried>
-0.3262

> <Gold.PLP.part.nonpolar>
-8.4875

> <Gold.PLP.part.repulsive>
0.3508

> <Gold.PLP.ligand.clash>
0.0000

> <Gold.PLP.ligand.torsion>
0.3915

> <Gold.PLP.Chemscore.Hbond>
2.9853

> <Gold.PLP.Chemscore.CHOScore>
0.0000

> <Gold.PLP.Chemscore.Metal>
0.0000

> <Gold.Chemscore.Hbonds>
donor molecule, donor type, donor heavy atom, donor atom, acceptor molecule, acceptor atom, score
      L1  H    10    23       P1  8026  0.70
      P1  H  6810  6861       L1    11  0.70
      P1  H  8102  8135       L1    17  0.80

> <Gold.PLP.Chemscore.Internal.Correction>
   9.000000E+99

#       Name:                CT1002167954
#       Creating user name   hitesit
#       Creation time:       Sun Apr 16 23:06:32 2023


#       File generated by GOLD software.
#

@<TRIPOS>MOLECULE
CT1002167954|ligand_prepared|mol2|1|dock10
    29    30     1
SMALL
NO_CHARGES


@<TRIPOS>ATOM
      1 C1         246.1774 -13.7174  45.3046 C.3            1 RES1               0.0000
      2 C2         245.7144 -14.3115  46.6505 C.ar           1 RES1               0.0000
      3 C3         244.9760 -12.9739  44.7285 C.2            1 RES1               0.0000
      4 C4         247.3699 -12.8216  45.6215 C.2            1 RES1               0.0000
      5 C5         246.6367 -14.7789  44.2781 C.3            1 RES1               0.0000
      6 C6         244.9642 -15.4831  46.6872 C.ar           1 RES1               0.0000
      7 C7         246.0313 -13.7019  47.8615 C.ar           1 RES1               0.0000
      8 N8         245.0002 -11.6108  44.7636 N.am           1 RES1               0.0000
      9 O9         244.0047 -13.5749  44.2860 O.2            1 RES1               0.0000
     10 N10        247.2332 -11.4738  45.4154 N.am           1 RES1               0.0000
     11 O11        248.4210 -13.2690  46.0634 O.2            1 RES1               0.0000
     12 C12        247.3514 -14.1944  43.0698 C.3            1 RES1               0.0000
     13 C13        244.5484 -16.0273  47.8911 C.ar           1 RES1               0.0000
     14 C14        245.6142 -14.2477  49.0643 C.ar           1 RES1               0.0000
     15 C15        246.0921 -10.8244  45.0299 C.2            1 RES1               0.0000
     16 C16        244.8734 -15.4103  49.0803 C.ar           1 RES1               0.0000
     17 O17        246.0321  -9.6033  44.9189 O.2            1 RES1               0.0000
     18 H18        247.3096 -15.4860  44.7784 H              1 RES1               0.0000
     19 H19        245.7589 -15.3387  43.9323 H              1 RES1               0.0000
     20 H20        244.6967 -15.9814  45.7614 H              1 RES1               0.0000
     21 H21        246.6122 -12.7860  47.8731 H              1 RES1               0.0000
     22 H22        244.1255 -11.1318  44.5745 H              1 RES1               0.0000
     23 H23        248.0585 -10.9016  45.5629 H              1 RES1               0.0000
     24 H24        247.6521 -14.9815  42.3816 H              1 RES1               0.0000
     25 H25        246.7022 -13.5052  42.5337 H              1 RES1               0.0000
     26 H26        248.2438 -13.6517  43.3748 H              1 RES1               0.0000
     27 H27        243.9644 -16.9417  47.8982 H              1 RES1               0.0000
     28 H28        245.8718 -13.7584  49.9978 H              1 RES1               0.0000
     29 H29        244.5479 -15.8370  50.0233 H              1 RES1               0.0000
@<TRIPOS>BOND
    1    1    2 1     
    2    1    3 1     
    3    1    4 1     
    4    1    5 1     
    5    2    6 ar    
    6    2    7 ar    
    7    3    8 1     
    8    3    9 2     
    9    4   10 1     
   10    4   11 2     
   11    5   12 1     
   12    5   18 1     
   13    5   19 1     
   14    6   13 ar    
   15    6   20 1     
   16    7   14 ar    
   17    7   21 1     
   18    8   15 1     
   19    8   22 1     
   20   10   15 1     
   21   10   23 1     
   22   12   24 1     
   23   12   25 1     
   24   12   26 1     
   25   13   16 ar    
   26   13   27 1     
   27   14   16 ar    
   28   14   28 1     
   29   15   17 2     
   30   16   29 1     
@<TRIPOS>SUBSTRUCTURE
      1 RES1           1
@<TRIPOS>SET
DONOR_HYDROGENS      STATIC     ATOMS    <user>   **** ""
2 22 23
ATOM$RED        STATIC     ATOMS    COLORGROUP SYSTEM
2 22 23
@<TRIPOS>COMMENT
> <Gold.Version>
2022.3.0

> <Gold.Id.Protein>
unknown|4v3u_clean|pdb

> <Gold.Protein.RotatedTorsions>
[ 6612 6571 6572 6573 ] final   52.44 input  122.18 | X-H torsion
[ 6698 6659 6660 6661 ] final  -54.05 input  126.07 | X-H torsion
[ 8064 8023 8024 8025 ] final   70.26 input   40.84 | X-H torsion
[ 8135 8102 8103 8104 ] final  -45.20 input  100.47 | X-H torsion
[ 8198 8164 8165 8166 ] final  116.30 input   73.50 | X-H torsion
[ 8278 8240 8241 8242 ] final  154.92 input   88.79 | X-H torsion
[ 9578 9542 9541 9539 ] final  168.63 input   60.02 | X-H torsion
[ 8331 8311 8312 8313 ] final -165.62 input   92.25 | X-H torsion
[ 7986 7938 7939 7940 ] final  163.64 input   70.73 | X-H torsion
[ 7906 7885 7886 7887 ] final   53.57 input  102.20 | X-H torsion
[ 6850 6802 6803 6804 ] final   16.11 input  120.36 | X-H torsion
[ 10224 10183 10184 10185 ] final  -30.90 input   40.62 | X-H torsion
[ 7910 7890 7889 7886 ] final  -12.87 input   60.02 | X-H torsion
[ 27200 6334 6333 6332 ] final  -96.78 input    0.00 | X-H torsion
[ 27202 6498 6497 6496 ] final   35.13 input   -0.00 | X-H torsion
[ 27205 6574 6573 6572 ] final  125.15 input   -0.00 | X-H torsion
[ 27208 7888 7887 7886 ] final  157.71 input    0.00 | X-H torsion
[ 27211 8026 8025 8024 ] final  147.52 input   -0.00 | X-H torsion
[ 27214 8105 8104 8103 ] final   45.18 input    0.00 | X-H torsion
[ 27217 8167 8166 8165 ] final  -14.37 input    0.00 | X-H torsion
[ 27222 10096 10095 10094 ] final   39.10 input   -0.00 | X-H torsion
[ 27225 10186 10185 10184 ] final -118.25 input    0.00 | X-H torsion
[ 27228 7941 7940 7939 ] final -146.60 input    0.00 | X-H torsion
[ 27230 7733 7732 7731 ] final   49.84 input   -0.00 | X-H torsion
[ 27232 7816 7815 7814 ] final   40.43 input   -0.00 | X-H torsion

> <Gold.Protein.ActiveResidues>
 ASP403  THR404  LEU406  ILE407  TYR408  ALA410  LYS411  TRP414  GLN425  TRP426 
 SER427  LYS428  LEU429  GLN430  VAL431  PHE432  ASP433  TYR453  SER462  ALA463 
 ILE464 

> <Gold.Protein.RotatedAtoms>
  241.0728   -8.0158   50.3364 H   0  0  0  0  0  0  0  0  0  0  0  0  # atno 6612 bound_to 6571
  240.5714   -7.6508   47.6531 H   0  0  0  0  0  0  0  0  0  0  0  0  # atno 6698 bound_to 6659
  240.1582   -3.9391   45.3656 H   0  0  0  0  0  0  0  0  0  0  0  0  # atno 6850 bound_to 6802
  240.8683   -7.2842   36.8071 H   0  0  0  0  0  0  0  0  0  0  0  0  # atno 7906 bound_to 7885
  239.8129   -8.5932   36.2295 H   0  0  0  0  0  0  0  0  0  0  0  0  # atno 7910 bound_to 7890
  242.0903   -9.0520   37.2803 H   0  0  0  0  0  0  0  0  0  0  0  0  # atno 7986 bound_to 7938
  244.2589   -8.6528   40.3381 H   0  0  0  0  0  0  0  0  0  0  0  0  # atno 8064 bound_to 8023
  246.9888   -7.5556   42.0922 H   0  0  0  0  0  0  0  0  0  0  0  0  # atno 8135 bound_to 8102
  247.3245   -8.7252   45.0412 H   0  0  0  0  0  0  0  0  0  0  0  0  # atno 8198 bound_to 8164
  249.9913   -6.5594   46.8301 H   0  0  0  0  0  0  0  0  0  0  0  0  # atno 8278 bound_to 8240
  249.3864   -7.2380   50.4003 H   0  0  0  0  0  0  0  0  0  0  0  0  # atno 8331 bound_to 8311
  251.1248  -10.2633   40.3850 H   0  0  0  0  0  0  0  0  0  0  0  0  # atno 9578 bound_to 9542
  250.3794   -4.0507   44.0365 H   0  0  0  0  0  0  0  0  0  0  0  0  # atno 10224 bound_to 10183
  241.6013   -9.0911   51.8164 LP  0  0  0  0  0  0  0  0  0  0  0  0  # atno 27200 bound_to 6334
  242.8482  -10.1198   51.1942 LP  0  0  0  0  0  0  0  0  0  0  0  0  # atno 27201 bound_to 6334
  241.9910   -4.5897   49.9227 LP  0  0  0  0  0  0  0  0  0  0  0  0  # atno 27202 bound_to 6498
  241.3155   -5.5464   48.6467 LP  0  0  0  0  0  0  0  0  0  0  0  0  # atno 27203 bound_to 6498
  242.6066   -7.1733   50.3689 LP  0  0  0  0  0  0  0  0  0  0  0  0  # atno 27204 bound_to 6571
  240.6870   -7.1784   45.7108 LP  0  0  0  0  0  0  0  0  0  0  0  0  # atno 27205 bound_to 6574
  241.5161   -5.9977   46.6693 LP  0  0  0  0  0  0  0  0  0  0  0  0  # atno 27206 bound_to 6574
  239.6475   -8.6034   48.7934 LP  0  0  0  0  0  0  0  0  0  0  0  0  # atno 27207 bound_to 6659
  242.7938  -10.6785   39.3531 LP  0  0  0  0  0  0  0  0  0  0  0  0  # atno 27208 bound_to 7888
  241.4016  -10.1819   40.2559 LP  0  0  0  0  0  0  0  0  0  0  0  0  # atno 27209 bound_to 7888
  245.3850   -8.5152   39.0057 LP  0  0  0  0  0  0  0  0  0  0  0  0  # atno 27210 bound_to 8023
  246.3567   -9.5195   43.1185 LP  0  0  0  0  0  0  0  0  0  0  0  0  # atno 27211 bound_to 8026
  245.0286   -8.4205   42.9512 LP  0  0  0  0  0  0  0  0  0  0  0  0  # atno 27212 bound_to 8026
  248.3095   -7.9270   41.0112 LP  0  0  0  0  0  0  0  0  0  0  0  0  # atno 27213 bound_to 8102
  248.6647   -5.8307   43.3419 LP  0  0  0  0  0  0  0  0  0  0  0  0  # atno 27214 bound_to 8105
  249.4681   -5.9689   44.8701 LP  0  0  0  0  0  0  0  0  0  0  0  0  # atno 27215 bound_to 8105
  248.8775   -7.9546   44.8205 LP  0  0  0  0  0  0  0  0  0  0  0  0  # atno 27216 bound_to 8164
  247.9854   -9.2268   48.0400 LP  0  0  0  0  0  0  0  0  0  0  0  0  # atno 27217 bound_to 8167
  249.5781   -8.9235   48.6492 LP  0  0  0  0  0  0  0  0  0  0  0  0  # atno 27218 bound_to 8167
  248.7341   -6.5231   48.0413 LP  0  0  0  0  0  0  0  0  0  0  0  0  # atno 27219 bound_to 8240
  251.6522  -11.6193   41.1132 LP  0  0  0  0  0  0  0  0  0  0  0  0  # atno 27220 bound_to 9542
  252.0727  -11.3026   39.5674 LP  0  0  0  0  0  0  0  0  0  0  0  0  # atno 27221 bound_to 9542
  249.9570   -7.0815   39.4091 LP  0  0  0  0  0  0  0  0  0  0  0  0  # atno 27222 bound_to 10096
  249.1231   -6.5508   40.8314 LP  0  0  0  0  0  0  0  0  0  0  0  0  # atno 27223 bound_to 10096
  251.0212   -7.3320   51.0091 LP  0  0  0  0  0  0  0  0  0  0  0  0  # atno 27224 bound_to 8311
  249.6542   -4.5206   47.4278 LP  0  0  0  0  0  0  0  0  0  0  0  0  # atno 27225 bound_to 10186
  250.5989   -4.7897   46.0012 LP  0  0  0  0  0  0  0  0  0  0  0  0  # atno 27226 bound_to 10186
  242.5505   -7.8731   38.4839 LP  0  0  0  0  0  0  0  0  0  0  0  0  # atno 27227 bound_to 7938
  246.6114   -7.1057   38.2496 LP  0  0  0  0  0  0  0  0  0  0  0  0  # atno 27228 bound_to 7941
  245.3129   -7.0086   37.1074 LP  0  0  0  0  0  0  0  0  0  0  0  0  # atno 27229 bound_to 7941
  243.8740   -6.2203   36.2219 LP  0  0  0  0  0  0  0  0  0  0  0  0  # atno 27230 bound_to 7733
  242.4894   -7.0638   36.8315 LP  0  0  0  0  0  0  0  0  0  0  0  0  # atno 27231 bound_to 7733
  240.9914   -5.2883   40.0013 LP  0  0  0  0  0  0  0  0  0  0  0  0  # atno 27232 bound_to 7816
  241.8300   -6.7916   39.8093 LP  0  0  0  0  0  0  0  0  0  0  0  0  # atno 27233 bound_to 7816
  240.0507   -6.4422   38.1009 LP  0  0  0  0  0  0  0  0  0  0  0  0  # atno 27234 bound_to 7885

> <Gold.Score>
     Fitness  S(hb_ext) S(vdw_ext)  S(hb_int)    S(int)      intcor
     17.28       2.30      11.58       0.00      -0.95      -0.78

> <Gold.Goldscore.Fitness>
17.2785

> <Gold.Goldscore.Internal.Vdw>
-1.1449

> <Gold.Goldscore.Internal.Torsion>
-0.5765

> <Gold.Goldscore.External.Vdw>
11.5848

> <Gold.Goldscore.Internal.HBond>
0.0000

> <Gold.Goldscore.External.HBond>
2.2954

> <Gold.Goldscore.Internal.Correction>
-0.7752

> <Gold.Goldscore.Hbonds>
donor molecule, donor type, donor heavy atom, donor atom, acceptor molecule, acceptor atom, score
      P1  H  8109  8141       L1    11  0.24
      P1  H  8164  8198       L1    17  0.91

> <Gold.Goldscore.Internal.Vdw.Weighted>
-1.1449

> <Gold.Goldscore.Internal.Torsion.Weighted>
-0.5765

> <Gold.Goldscore.External.Vdw.Weighted>
15.9291

> <Gold.Goldscore.Internal.HBond.Weighted>
0.0000

> <Gold.Goldscore.External.HBond.Weighted>
2.2954

> <Gold.Goldscore.Internal.Correction.Weighted>
-0.7752

> <Gold.Rescore>
     Score     S(PLP)   S(hbond)     S(cho)   S(metal)  DE(clash)   DE(tors)     intcor
     17.32     -13.85       1.80       0.00       0.00       0.33       0.80       ----

> <Gold.PLP.Fitness>
17.3226

> <Gold.PLP.PLP>
-13.8493

> <Gold.PLP.part.hbond>
-2.0000

> <Gold.PLP.part.metal>
0.0000

> <Gold.PLP.part.buried>
-3.2721

> <Gold.PLP.part.nonpolar>
-10.7331

> <Gold.PLP.part.repulsive>
1.4097

> <Gold.PLP.ligand.clash>
0.3313

> <Gold.PLP.ligand.torsion>
0.7977

> <Gold.PLP.Chemscore.Hbond>
1.8000

> <Gold.PLP.Chemscore.CHOScore>
0.0000

> <Gold.PLP.Chemscore.Metal>
0.0000

> <Gold.Chemscore.Hbonds>
donor molecule, donor type, donor heavy atom, donor atom, acceptor molecule, acceptor atom, score
      P1  H  8109  8141       L1    11  0.45
      P1  H  8164  8198       L1    17  0.93

> <Gold.PLP.Chemscore.Internal.Correction>
   9.000000E+99

