#       Name:                CT1002167954
#       Creating user name   hitesit
#       Creation time:       Sun Apr 16 23:06:30 2023


#       File generated by GOLD software.
#

@<TRIPOS>MOLECULE
CT1002167954|ligand_prepared|mol2|1|dock6
    29    30     1
SMALL
NO_CHARGES


@<TRIPOS>ATOM
      1 C1         247.4871 -12.3007  39.9949 C.3            1 RES1               0.0000
      2 C2         247.6420 -13.4688  38.9997 C.ar           1 RES1               0.0000
      3 C3         248.8831 -12.0146  40.5403 C.2            1 RES1               0.0000
      4 C4         246.8787 -11.1463  39.2063 C.2            1 RES1               0.0000
      5 C5         246.5496 -12.6134  41.1843 C.3            1 RES1               0.0000
      6 C6         248.6948 -13.4896  38.0898 C.ar           1 RES1               0.0000
      7 C7         246.7433 -14.5320  38.9814 C.ar           1 RES1               0.0000
      8 N8         249.5165 -10.8909  40.0975 N.am           1 RES1               0.0000
      9 O9         249.4358 -12.7838  41.3169 O.2            1 RES1               0.0000
     10 N10        247.6398 -10.0214  39.0242 N.am           1 RES1               0.0000
     11 O11        245.7532 -11.2071  38.7268 O.2            1 RES1               0.0000
     12 C12        246.5112 -11.5187  42.2390 C.3            1 RES1               0.0000
     13 C13        248.8454 -14.5368  37.1959 C.ar           1 RES1               0.0000
     14 C14        246.8956 -15.5782  38.0865 C.ar           1 RES1               0.0000
     15 C15        248.9424  -9.8534  39.4078 C.2            1 RES1               0.0000
     16 C16        247.9463 -15.5819  37.1939 C.ar           1 RES1               0.0000
     17 O17        249.5780  -8.8327  39.1600 O.2            1 RES1               0.0000
     18 H18        245.5337 -12.7705  40.8013 H              1 RES1               0.0000
     19 H19        246.8779 -13.5474  41.6567 H              1 RES1               0.0000
     20 H20        249.4108 -12.6747  38.0749 H              1 RES1               0.0000
     21 H21        245.9085 -14.5497  39.6738 H              1 RES1               0.0000
     22 H22        250.5087 -10.8150  40.2976 H              1 RES1               0.0000
     23 H23        247.1939  -9.2366  38.5598 H              1 RES1               0.0000
     24 H24        245.8388 -11.7885  43.0507 H              1 RES1               0.0000
     25 H25        247.5010 -11.3535  42.6596 H              1 RES1               0.0000
     26 H26        246.1647 -10.5811  41.8093 H              1 RES1               0.0000
     27 H27        249.6733 -14.5343  36.4946 H              1 RES1               0.0000
     28 H28        246.1852 -16.3983  38.0881 H              1 RES1               0.0000
     29 H29        248.0648 -16.4023  36.4939 H              1 RES1               0.0000
@<TRIPOS>BOND
    1    1    2 1     
    2    1    3 1     
    3    1    4 1     
    4    1    5 1     
    5    2    6 ar    
    6    2    7 ar    
    7    3    8 1     
    8    3    9 2     
    9    4   10 1     
   10    4   11 2     
   11    5   12 1     
   12    5   18 1     
   13    5   19 1     
   14    6   13 ar    
   15    6   20 1     
   16    7   14 ar    
   17    7   21 1     
   18    8   15 1     
   19    8   22 1     
   20   10   15 1     
   21   10   23 1     
   22   12   24 1     
   23   12   25 1     
   24   12   26 1     
   25   13   16 ar    
   26   13   27 1     
   27   14   16 ar    
   28   14   28 1     
   29   15   17 2     
   30   16   29 1     
@<TRIPOS>SUBSTRUCTURE
      1 RES1           1
@<TRIPOS>SET
DONOR_HYDROGENS      STATIC     ATOMS    <user>   **** ""
2 22 23
ATOM$RED        STATIC     ATOMS    COLORGROUP SYSTEM
2 22 23
@<TRIPOS>COMMENT
> <Gold.Version>
2022.3.0

> <Gold.Id.Protein>
unknown|4v3u_clean|pdb

> <Gold.Protein.RotatedTorsions>
[ 6612 6571 6572 6573 ] final  -51.67 input  122.18 | X-H torsion
[ 6698 6659 6660 6661 ] final -167.24 input  126.07 | X-H torsion
[ 8064 8023 8024 8025 ] final  -45.17 input   40.84 | X-H torsion
[ 8135 8102 8103 8104 ] final   54.81 input  100.47 | X-H torsion
[ 8198 8164 8165 8166 ] final  -61.96 input   73.50 | X-H torsion
[ 8278 8240 8241 8242 ] final   86.80 input   88.79 | X-H torsion
[ 9578 9542 9541 9539 ] final  -22.02 input   60.02 | X-H torsion
[ 8331 8311 8312 8313 ] final  -35.45 input   92.25 | X-H torsion
[ 7986 7938 7939 7940 ] final  162.13 input   70.73 | X-H torsion
[ 7906 7885 7886 7887 ] final -143.08 input  102.20 | X-H torsion
[ 6850 6802 6803 6804 ] final -104.69 input  120.36 | X-H torsion
[ 10224 10183 10184 10185 ] final   95.93 input   40.62 | X-H torsion
[ 7910 7890 7889 7886 ] final  -53.66 input   60.02 | X-H torsion
[ 27200 6334 6333 6332 ] final   50.67 input    0.00 | X-H torsion
[ 27202 6498 6497 6496 ] final -136.73 input   -0.00 | X-H torsion
[ 27205 6574 6573 6572 ] final   51.42 input   -0.00 | X-H torsion
[ 27208 7888 7887 7886 ] final  -48.36 input    0.00 | X-H torsion
[ 27211 8026 8025 8024 ] final  -98.51 input   -0.00 | X-H torsion
[ 27214 8105 8104 8103 ] final  -23.97 input    0.00 | X-H torsion
[ 27217 8167 8166 8165 ] final  -34.40 input    0.00 | X-H torsion
[ 27222 10096 10095 10094 ] final   77.50 input   -0.00 | X-H torsion
[ 27225 10186 10185 10184 ] final  151.71 input    0.00 | X-H torsion
[ 27228 7941 7940 7939 ] final   59.56 input    0.00 | X-H torsion
[ 27230 7733 7732 7731 ] final   41.20 input   -0.00 | X-H torsion
[ 27232 7816 7815 7814 ] final  152.05 input   -0.00 | X-H torsion

> <Gold.Protein.ActiveResidues>
 ASP403  THR404  LEU406  ILE407  TYR408  ALA410  LYS411  TRP414  GLN425  TRP426 
 SER427  LYS428  LEU429  GLN430  VAL431  PHE432  ASP433  TYR453  SER462  ALA463 
 ILE464 

> <Gold.Protein.RotatedAtoms>
  241.6448   -6.7503   50.1345 H   0  0  0  0  0  0  0  0  0  0  0  0  # atno 6612 bound_to 6571
  239.9693   -8.9700   47.9623 H   0  0  0  0  0  0  0  0  0  0  0  0  # atno 6698 bound_to 6659
  241.6228   -3.8124   44.9261 H   0  0  0  0  0  0  0  0  0  0  0  0  # atno 6850 bound_to 6802
  239.8359   -6.5137   37.9867 H   0  0  0  0  0  0  0  0  0  0  0  0  # atno 7906 bound_to 7885
  239.1689   -8.4938   36.2683 H   0  0  0  0  0  0  0  0  0  0  0  0  # atno 7910 bound_to 7890
  242.0969   -9.0372   37.2637 H   0  0  0  0  0  0  0  0  0  0  0  0  # atno 7986 bound_to 7938
  245.5076   -9.1586   39.6730 H   0  0  0  0  0  0  0  0  0  0  0  0  # atno 8064 bound_to 8023
  248.1214   -6.9968   41.6110 H   0  0  0  0  0  0  0  0  0  0  0  0  # atno 8135 bound_to 8102
  248.9060   -7.9599   44.8393 H   0  0  0  0  0  0  0  0  0  0  0  0  # atno 8198 bound_to 8164
  249.6820   -5.7376   47.2815 H   0  0  0  0  0  0  0  0  0  0  0  0  # atno 8278 bound_to 8240
  250.8439   -6.6696   50.7413 H   0  0  0  0  0  0  0  0  0  0  0  0  # atno 8331 bound_to 8311
  252.1443  -11.8075   40.1632 H   0  0  0  0  0  0  0  0  0  0  0  0  # atno 9578 bound_to 9542
  248.7892   -4.1448   43.8554 H   0  0  0  0  0  0  0  0  0  0  0  0  # atno 10224 bound_to 10183
  243.0634   -9.8214   51.5109 LP  0  0  0  0  0  0  0  0  0  0  0  0  # atno 27200 bound_to 6334
  241.3861   -9.3896   51.4998 LP  0  0  0  0  0  0  0  0  0  0  0  0  # atno 27201 bound_to 6334
  241.2059   -5.5146   48.6927 LP  0  0  0  0  0  0  0  0  0  0  0  0  # atno 27202 bound_to 6498
  242.1006   -4.6216   49.8768 LP  0  0  0  0  0  0  0  0  0  0  0  0  # atno 27203 bound_to 6498
  242.0535   -8.3971   50.5641 LP  0  0  0  0  0  0  0  0  0  0  0  0  # atno 27204 bound_to 6571
  241.7076   -7.1350   45.9010 LP  0  0  0  0  0  0  0  0  0  0  0  0  # atno 27205 bound_to 6574
  240.4955   -6.0411   46.4791 LP  0  0  0  0  0  0  0  0  0  0  0  0  # atno 27206 bound_to 6574
  240.2316   -7.3236   48.4935 LP  0  0  0  0  0  0  0  0  0  0  0  0  # atno 27207 bound_to 6659
  241.6906   -9.9758   40.4191 LP  0  0  0  0  0  0  0  0  0  0  0  0  # atno 27208 bound_to 7888
  242.5048  -10.8846   39.1899 LP  0  0  0  0  0  0  0  0  0  0  0  0  # atno 27209 bound_to 7888
  244.1747   -8.0250   39.6503 LP  0  0  0  0  0  0  0  0  0  0  0  0  # atno 27210 bound_to 8023
  245.7177   -8.3016   43.5850 LP  0  0  0  0  0  0  0  0  0  0  0  0  # atno 27211 bound_to 8026
  245.6676   -9.6384   42.4848 LP  0  0  0  0  0  0  0  0  0  0  0  0  # atno 27212 bound_to 8026
  247.1995   -8.4747   41.4828 LP  0  0  0  0  0  0  0  0  0  0  0  0  # atno 27213 bound_to 8102
  249.5989   -6.1134   43.4573 LP  0  0  0  0  0  0  0  0  0  0  0  0  # atno 27214 bound_to 8105
  248.5339   -5.6862   44.7547 LP  0  0  0  0  0  0  0  0  0  0  0  0  # atno 27215 bound_to 8105
  247.3337   -8.7017   45.0176 LP  0  0  0  0  0  0  0  0  0  0  0  0  # atno 27216 bound_to 8164
  247.9170   -9.0916   48.3004 LP  0  0  0  0  0  0  0  0  0  0  0  0  # atno 27217 bound_to 8167
  249.6465   -9.0587   48.3888 LP  0  0  0  0  0  0  0  0  0  0  0  0  # atno 27218 bound_to 8167
  249.0375   -7.3292   47.5984 LP  0  0  0  0  0  0  0  0  0  0  0  0  # atno 27219 bound_to 8240
  251.4762  -10.3991   39.6972 LP  0  0  0  0  0  0  0  0  0  0  0  0  # atno 27220 bound_to 9542
  251.2215  -10.9670   41.2069 LP  0  0  0  0  0  0  0  0  0  0  0  0  # atno 27221 bound_to 9542
  250.3349   -6.9951   39.8265 LP  0  0  0  0  0  0  0  0  0  0  0  0  # atno 27222 bound_to 10096
  248.7453   -6.6372   40.4140 LP  0  0  0  0  0  0  0  0  0  0  0  0  # atno 27223 bound_to 10096
  249.5942   -7.8886   50.6753 LP  0  0  0  0  0  0  0  0  0  0  0  0  # atno 27224 bound_to 8311
  250.8513   -4.5139   47.1671 LP  0  0  0  0  0  0  0  0  0  0  0  0  # atno 27225 bound_to 10186
  249.4019   -4.7964   46.2619 LP  0  0  0  0  0  0  0  0  0  0  0  0  # atno 27226 bound_to 10186
  242.5440   -7.8876   38.5002 LP  0  0  0  0  0  0  0  0  0  0  0  0  # atno 27227 bound_to 7938
  245.2233   -6.7295   37.3676 LP  0  0  0  0  0  0  0  0  0  0  0  0  # atno 27228 bound_to 7941
  246.7010   -7.3849   37.9895 LP  0  0  0  0  0  0  0  0  0  0  0  0  # atno 27229 bound_to 7941
  243.8784   -6.3136   36.1308 LP  0  0  0  0  0  0  0  0  0  0  0  0  # atno 27230 bound_to 7733
  242.4851   -6.9706   36.9226 LP  0  0  0  0  0  0  0  0  0  0  0  0  # atno 27231 bound_to 7733
  240.9087   -6.7142   40.1136 LP  0  0  0  0  0  0  0  0  0  0  0  0  # atno 27232 bound_to 7816
  241.9127   -5.3657   39.6970 LP  0  0  0  0  0  0  0  0  0  0  0  0  # atno 27233 bound_to 7816
  241.0615   -7.1966   36.9460 LP  0  0  0  0  0  0  0  0  0  0  0  0  # atno 27234 bound_to 7885

> <Gold.Score>
     Fitness  S(hb_ext) S(vdw_ext)  S(hb_int)    S(int)      intcor
     21.36       3.26      13.34       0.00      -0.24      -0.78

> <Gold.Goldscore.Fitness>
21.3611

> <Gold.Goldscore.Internal.Vdw>
-0.5961

> <Gold.Goldscore.Internal.Torsion>
-0.4280

> <Gold.Goldscore.External.Vdw>
13.3423

> <Gold.Goldscore.Internal.HBond>
0.0000

> <Gold.Goldscore.External.HBond>
3.2557

> <Gold.Goldscore.Internal.Correction>
-0.7838

> <Gold.Goldscore.Hbonds>
donor molecule, donor type, donor heavy atom, donor atom, acceptor molecule, acceptor atom, score
      P1  H  8023  8064       L1    11  0.27
      L1  H     8    22       P1  9542  0.72
      L1  H    10    23       P1  7941  0.64

> <Gold.Goldscore.Internal.Vdw.Weighted>
-0.5961

> <Gold.Goldscore.Internal.Torsion.Weighted>
-0.4280

> <Gold.Goldscore.External.Vdw.Weighted>
18.3457

> <Gold.Goldscore.Internal.HBond.Weighted>
0.0000

> <Gold.Goldscore.External.HBond.Weighted>
3.2557

> <Gold.Goldscore.Internal.Correction.Weighted>
-0.7838

> <Gold.Rescore>
     Score     S(PLP)   S(hbond)     S(cho)   S(metal)  DE(clash)   DE(tors)     intcor
     16.76     -13.77       1.00       0.00       0.00       0.00       0.01       ----

> <Gold.PLP.Fitness>
16.7634

> <Gold.PLP.PLP>
-13.7745

> <Gold.PLP.part.hbond>
-3.7482

> <Gold.PLP.part.metal>
0.0000

> <Gold.PLP.part.buried>
-3.6456

> <Gold.PLP.part.nonpolar>
-8.4214

> <Gold.PLP.part.repulsive>
1.6417

> <Gold.PLP.ligand.clash>
0.0000

> <Gold.PLP.ligand.torsion>
0.0055

> <Gold.PLP.Chemscore.Hbond>
1.0000

> <Gold.PLP.Chemscore.CHOScore>
0.0000

> <Gold.PLP.Chemscore.Metal>
0.0000

> <Gold.Chemscore.Hbonds>
donor molecule, donor type, donor heavy atom, donor atom, acceptor molecule, acceptor atom, score
      L1  H     8    22       P1  9542  0.47
      P1  H  8023  8064       L1    11  0.11

> <Gold.PLP.Chemscore.Internal.Correction>
   9.000000E+99

