#       Name:                CT1002167954
#       Creating user name   hitesit
#       Creation time:       Sun Apr 16 23:06:28 2023


#       File generated by GOLD software.
#

@<TRIPOS>MOLECULE
CT1002167954|ligand_prepared|mol2|1|dock3
    29    30     1
SMALL
NO_CHARGES


@<TRIPOS>ATOM
      1 C1         245.2729 -13.3421  43.7740 C.3            1 RES1               0.0000
      2 C2         244.7011 -12.8655  42.4232 C.ar           1 RES1               0.0000
      3 C3         246.7915 -13.2628  43.6484 C.2            1 RES1               0.0000
      4 C4         244.6873 -12.4172  44.8353 C.2            1 RES1               0.0000
      5 C5         244.8854 -14.7940  44.1392 C.3            1 RES1               0.0000
      6 C6         243.9739 -13.7346  41.6153 C.ar           1 RES1               0.0000
      7 C7         244.8899 -11.5614  41.9736 C.ar           1 RES1               0.0000
      8 N8         247.4282 -12.2531  44.3079 N.am           1 RES1               0.0000
      9 O9         247.4168 -14.0505  42.9493 O.2            1 RES1               0.0000
     10 N10        245.5466 -11.5931  45.5137 N.am           1 RES1               0.0000
     11 O11        243.4873 -12.3828  45.0786 O.2            1 RES1               0.0000
     12 C12        245.3901 -15.2389  45.5028 C.3            1 RES1               0.0000
     13 C13        243.4518 -13.3143  40.4032 C.ar           1 RES1               0.0000
     14 C14        244.3672 -11.1433  40.7610 C.ar           1 RES1               0.0000
     15 C15        246.8863 -11.4471  45.2766 C.2            1 RES1               0.0000
     16 C16        243.6477 -12.0185  39.9755 C.ar           1 RES1               0.0000
     17 O17        247.5828 -10.6450  45.8919 O.2            1 RES1               0.0000
     18 H18        243.7922 -14.8829  44.1211 H              1 RES1               0.0000
     19 H19        245.2894 -15.4700  43.3755 H              1 RES1               0.0000
     20 H20        243.8116 -14.7588  41.9343 H              1 RES1               0.0000
     21 H21        245.4536 -10.8558  42.5745 H              1 RES1               0.0000
     22 H22        248.3968 -12.0814  44.0577 H              1 RES1               0.0000
     23 H23        245.1509 -11.0370  46.2650 H              1 RES1               0.0000
     24 H24        245.0908 -16.2643  45.7092 H              1 RES1               0.0000
     25 H25        246.4760 -15.1872  45.5479 H              1 RES1               0.0000
     26 H26        244.9877 -14.6036  46.2891 H              1 RES1               0.0000
     27 H27        242.8875 -14.0074  39.7881 H              1 RES1               0.0000
     28 H28        244.5243 -10.1226  40.4280 H              1 RES1               0.0000
     29 H29        243.2383 -11.6894  39.0261 H              1 RES1               0.0000
@<TRIPOS>BOND
    1    1    2 1     
    2    1    3 1     
    3    1    4 1     
    4    1    5 1     
    5    2    6 ar    
    6    2    7 ar    
    7    3    8 1     
    8    3    9 2     
    9    4   10 1     
   10    4   11 2     
   11    5   12 1     
   12    5   18 1     
   13    5   19 1     
   14    6   13 ar    
   15    6   20 1     
   16    7   14 ar    
   17    7   21 1     
   18    8   15 1     
   19    8   22 1     
   20   10   15 1     
   21   10   23 1     
   22   12   24 1     
   23   12   25 1     
   24   12   26 1     
   25   13   16 ar    
   26   13   27 1     
   27   14   16 ar    
   28   14   28 1     
   29   15   17 2     
   30   16   29 1     
@<TRIPOS>SUBSTRUCTURE
      1 RES1           1
@<TRIPOS>SET
DONOR_HYDROGENS      STATIC     ATOMS    <user>   **** ""
2 22 23
ATOM$RED        STATIC     ATOMS    COLORGROUP SYSTEM
2 22 23
@<TRIPOS>COMMENT
> <Gold.Version>
2022.3.0

> <Gold.Id.Protein>
unknown|4v3u_clean|pdb

> <Gold.Protein.RotatedTorsions>
[ 6612 6571 6572 6573 ] final  -15.82 input  122.18 | X-H torsion
[ 6698 6659 6660 6661 ] final -165.72 input  126.07 | X-H torsion
[ 8064 8023 8024 8025 ] final  -70.63 input   40.84 | X-H torsion
[ 8135 8102 8103 8104 ] final   69.36 input  100.47 | X-H torsion
[ 8198 8164 8165 8166 ] final  111.16 input   73.50 | X-H torsion
[ 8278 8240 8241 8242 ] final -157.41 input   88.79 | X-H torsion
[ 9578 9542 9541 9539 ] final  123.76 input   60.02 | X-H torsion
[ 8331 8311 8312 8313 ] final  119.91 input   92.25 | X-H torsion
[ 7986 7938 7939 7940 ] final  -68.07 input   70.73 | X-H torsion
[ 7906 7885 7886 7887 ] final -144.03 input  102.20 | X-H torsion
[ 6850 6802 6803 6804 ] final -157.93 input  120.36 | X-H torsion
[ 10224 10183 10184 10185 ] final  -91.76 input   40.62 | X-H torsion
[ 7910 7890 7889 7886 ] final  102.32 input   60.02 | X-H torsion
[ 27200 6334 6333 6332 ] final   71.94 input    0.00 | X-H torsion
[ 27202 6498 6497 6496 ] final -139.26 input   -0.00 | X-H torsion
[ 27205 6574 6573 6572 ] final  -55.23 input   -0.00 | X-H torsion
[ 27208 7888 7887 7886 ] final  -91.16 input    0.00 | X-H torsion
[ 27211 8026 8025 8024 ] final  150.36 input   -0.00 | X-H torsion
[ 27214 8105 8104 8103 ] final  105.37 input    0.00 | X-H torsion
[ 27217 8167 8166 8165 ] final -173.00 input    0.00 | X-H torsion
[ 27222 10096 10095 10094 ] final  -12.17 input   -0.00 | X-H torsion
[ 27225 10186 10185 10184 ] final -152.42 input    0.00 | X-H torsion
[ 27228 7941 7940 7939 ] final   94.68 input    0.00 | X-H torsion
[ 27230 7733 7732 7731 ] final  171.65 input   -0.00 | X-H torsion
[ 27232 7816 7815 7814 ] final   52.82 input   -0.00 | X-H torsion

> <Gold.Protein.ActiveResidues>
 ASP403  THR404  LEU406  ILE407  TYR408  ALA410  LYS411  TRP414  GLN425  TRP426 
 SER427  LYS428  LEU429  GLN430  VAL431  PHE432  ASP433  TYR453  SER462  ALA463 
 ILE464 

> <Gold.Protein.RotatedAtoms>
  241.1819   -7.0429   50.1399 H   0  0  0  0  0  0  0  0  0  0  0  0  # atno 6612 bound_to 6571
  239.9816   -8.9653   47.9427 H   0  0  0  0  0  0  0  0  0  0  0  0  # atno 6698 bound_to 6659
  241.7617   -4.5847   45.0231 H   0  0  0  0  0  0  0  0  0  0  0  0  # atno 6850 bound_to 6802
  239.8256   -6.5191   37.9779 H   0  0  0  0  0  0  0  0  0  0  0  0  # atno 7906 bound_to 7885
  239.8961  -10.1679   36.1097 H   0  0  0  0  0  0  0  0  0  0  0  0  # atno 7910 bound_to 7890
  242.2731   -8.5239   38.7664 H   0  0  0  0  0  0  0  0  0  0  0  0  # atno 7986 bound_to 7938
  245.5796   -8.9473   39.3512 H   0  0  0  0  0  0  0  0  0  0  0  0  # atno 8064 bound_to 8023
  248.2560   -7.1017   41.4668 H   0  0  0  0  0  0  0  0  0  0  0  0  # atno 8135 bound_to 8102
  247.3614   -8.7781   45.0874 H   0  0  0  0  0  0  0  0  0  0  0  0  # atno 8198 bound_to 8164
  249.7133   -7.1989   46.9756 H   0  0  0  0  0  0  0  0  0  0  0  0  # atno 8278 bound_to 8240
  249.8663   -8.0874   50.8356 H   0  0  0  0  0  0  0  0  0  0  0  0  # atno 8331 bound_to 8311
  251.0980  -10.6231   41.0015 H   0  0  0  0  0  0  0  0  0  0  0  0  # atno 9578 bound_to 9542
  250.3525   -3.4045   43.3993 H   0  0  0  0  0  0  0  0  0  0  0  0  # atno 10224 bound_to 10183
  242.9500  -10.0308   51.2975 LP  0  0  0  0  0  0  0  0  0  0  0  0  # atno 27200 bound_to 6334
  241.4995   -9.1801   51.7131 LP  0  0  0  0  0  0  0  0  0  0  0  0  # atno 27201 bound_to 6334
  241.2391   -5.5255   48.6771 LP  0  0  0  0  0  0  0  0  0  0  0  0  # atno 27202 bound_to 6498
  242.0674   -4.6106   49.8924 LP  0  0  0  0  0  0  0  0  0  0  0  0  # atno 27203 bound_to 6498
  242.5011   -8.1141   50.5589 LP  0  0  0  0  0  0  0  0  0  0  0  0  # atno 27204 bound_to 6571
  241.5111   -5.9951   46.6704 LP  0  0  0  0  0  0  0  0  0  0  0  0  # atno 27205 bound_to 6574
  240.6920   -7.1810   45.7098 LP  0  0  0  0  0  0  0  0  0  0  0  0  # atno 27206 bound_to 6574
  240.2196   -7.3282   48.5125 LP  0  0  0  0  0  0  0  0  0  0  0  0  # atno 27207 bound_to 6659
  242.3098   -9.8496   40.4110 LP  0  0  0  0  0  0  0  0  0  0  0  0  # atno 27208 bound_to 7888
  241.8856  -11.0108   39.1980 LP  0  0  0  0  0  0  0  0  0  0  0  0  # atno 27209 bound_to 7888
  244.1050   -8.2298   39.9622 LP  0  0  0  0  0  0  0  0  0  0  0  0  # atno 27210 bound_to 8023
  246.3719   -9.4948   43.1500 LP  0  0  0  0  0  0  0  0  0  0  0  0  # atno 27211 bound_to 8026
  245.0134   -8.4452   42.9197 LP  0  0  0  0  0  0  0  0  0  0  0  0  # atno 27212 bound_to 8026
  247.0676   -8.3719   41.6241 LP  0  0  0  0  0  0  0  0  0  0  0  0  # atno 27213 bound_to 8102
  248.2395   -5.6443   44.0758 LP  0  0  0  0  0  0  0  0  0  0  0  0  # atno 27214 bound_to 8105
  249.8933   -6.1554   44.1362 LP  0  0  0  0  0  0  0  0  0  0  0  0  # atno 27215 bound_to 8105
  248.8416   -7.9030   44.7754 LP  0  0  0  0  0  0  0  0  0  0  0  0  # atno 27216 bound_to 8164
  249.3995   -8.8000   48.8856 LP  0  0  0  0  0  0  0  0  0  0  0  0  # atno 27217 bound_to 8167
  248.1640   -9.3503   47.8036 LP  0  0  0  0  0  0  0  0  0  0  0  0  # atno 27218 bound_to 8167
  249.0068   -5.8958   47.8985 LP  0  0  0  0  0  0  0  0  0  0  0  0  # atno 27219 bound_to 8240
  252.0296  -11.8817   40.5595 LP  0  0  0  0  0  0  0  0  0  0  0  0  # atno 27220 bound_to 9542
  251.7223  -10.6776   39.5000 LP  0  0  0  0  0  0  0  0  0  0  0  0  # atno 27221 bound_to 9542
  249.2132   -7.0186   39.3443 LP  0  0  0  0  0  0  0  0  0  0  0  0  # atno 27222 bound_to 10096
  249.8670   -6.6137   40.8963 LP  0  0  0  0  0  0  0  0  0  0  0  0  # atno 27223 bound_to 10096
  250.5513   -6.5003   50.5829 LP  0  0  0  0  0  0  0  0  0  0  0  0  # atno 27224 bound_to 8311
  250.1426   -4.4644   47.5591 LP  0  0  0  0  0  0  0  0  0  0  0  0  # atno 27225 bound_to 10186
  250.1105   -4.8459   45.8699 LP  0  0  0  0  0  0  0  0  0  0  0  0  # atno 27226 bound_to 10186
  242.3713   -8.3906   37.0278 LP  0  0  0  0  0  0  0  0  0  0  0  0  # atno 27227 bound_to 7938
  245.3396   -6.4687   37.8052 LP  0  0  0  0  0  0  0  0  0  0  0  0  # atno 27228 bound_to 7941
  246.5848   -7.6457   37.5519 LP  0  0  0  0  0  0  0  0  0  0  0  0  # atno 27229 bound_to 7941
  242.7475   -6.3640   37.2225 LP  0  0  0  0  0  0  0  0  0  0  0  0  # atno 27230 bound_to 7733
  243.6159   -6.9202   35.8309 LP  0  0  0  0  0  0  0  0  0  0  0  0  # atno 27231 bound_to 7733
  240.8497   -5.3974   40.0553 LP  0  0  0  0  0  0  0  0  0  0  0  0  # atno 27232 bound_to 7816
  241.9717   -6.6824   39.7553 LP  0  0  0  0  0  0  0  0  0  0  0  0  # atno 27233 bound_to 7816
  241.0716   -7.1913   36.9546 LP  0  0  0  0  0  0  0  0  0  0  0  0  # atno 27234 bound_to 7885

> <Gold.Score>
     Fitness  S(hb_ext) S(vdw_ext)  S(hb_int)    S(int)      intcor
     26.59       6.07      15.48       0.00      -0.76      -0.78

> <Gold.Goldscore.Fitness>
26.5915

> <Gold.Goldscore.Internal.Vdw>
-1.1655

> <Gold.Goldscore.Internal.Torsion>
-0.3797

> <Gold.Goldscore.External.Vdw>
15.4810

> <Gold.Goldscore.Internal.HBond>
0.0000

> <Gold.Goldscore.External.HBond>
6.0665

> <Gold.Goldscore.Internal.Correction>
-0.7838

> <Gold.Goldscore.Hbonds>
donor molecule, donor type, donor heavy atom, donor atom, acceptor molecule, acceptor atom, score
      P1  H  8164  8198       L1    17  0.03
      L1  H     8    22       P1  8110  1.00

> <Gold.Goldscore.Internal.Vdw.Weighted>
-1.1655

> <Gold.Goldscore.Internal.Torsion.Weighted>
-0.3797

> <Gold.Goldscore.External.Vdw.Weighted>
21.2864

> <Gold.Goldscore.Internal.HBond.Weighted>
0.0000

> <Gold.Goldscore.External.HBond.Weighted>
6.0665

> <Gold.Goldscore.Internal.Correction.Weighted>
-0.7838

> <Gold.Rescore>
     Score     S(PLP)   S(hbond)     S(cho)   S(metal)  DE(clash)   DE(tors)     intcor
     30.62     -21.82       2.98       0.00       0.00       0.00       0.07       ----

> <Gold.PLP.Fitness>
30.6192

> <Gold.PLP.PLP>
-21.8230

> <Gold.PLP.part.hbond>
-2.9920

> <Gold.PLP.part.metal>
0.0000

> <Gold.PLP.part.buried>
-4.9283

> <Gold.PLP.part.nonpolar>
-14.5451

> <Gold.PLP.part.repulsive>
0.4440

> <Gold.PLP.ligand.clash>
0.0000

> <Gold.PLP.ligand.torsion>
0.0659

> <Gold.PLP.Chemscore.Hbond>
2.9760

> <Gold.PLP.Chemscore.CHOScore>
0.0000

> <Gold.PLP.Chemscore.Metal>
0.0000

> <Gold.Chemscore.Hbonds>
donor molecule, donor type, donor heavy atom, donor atom, acceptor molecule, acceptor atom, score
      L1  H     8    22       P1  8110  1.00
      P1  H  8164  8198       L1    17  0.38

> <Gold.PLP.Chemscore.Internal.Correction>
   9.000000E+99

