#       Name:                CT1002167954
#       Creating user name   hitesit
#       Creation time:       Sun Apr 16 23:06:29 2023


#       File generated by GOLD software.
#

@<TRIPOS>MOLECULE
CT1002167954|ligand_prepared|mol2|1|dock4
    29    30     1
SMALL
NO_CHARGES


@<TRIPOS>ATOM
      1 C1         245.1684 -13.4598  43.7980 C.3            1 RES1               0.0000
      2 C2         244.6970 -13.2380  42.3464 C.ar           1 RES1               0.0000
      3 C3         246.6875 -13.3173  43.7817 C.2            1 RES1               0.0000
      4 C4         244.4542 -12.4111  44.6435 C.2            1 RES1               0.0000
      5 C5         244.8118 -14.8539  44.3646 C.3            1 RES1               0.0000
      6 C6         244.3272 -14.3167  41.5487 C.ar           1 RES1               0.0000
      7 C7         244.6243 -11.9625  41.7927 C.ar           1 RES1               0.0000
      8 N8         247.2213 -12.1813  44.3150 N.am           1 RES1               0.0000
      9 O9         247.4039 -14.1707  43.2731 O.2            1 RES1               0.0000
     10 N10        245.2157 -11.4425  45.2433 N.am           1 RES1               0.0000
     11 O11        243.2372 -12.4049  44.7820 O.2            1 RES1               0.0000
     12 C12        245.0768 -14.9961  45.8551 C.3            1 RES1               0.0000
     13 C13        243.8974 -14.1271  40.2458 C.ar           1 RES1               0.0000
     14 C14        244.1944 -11.7751  40.4894 C.ar           1 RES1               0.0000
     15 C15        246.5636 -11.2621  45.0923 C.2            1 RES1               0.0000
     16 C16        243.8303 -12.8564  39.7154 C.ar           1 RES1               0.0000
     17 O17        247.1696 -10.3345  45.6209 O.2            1 RES1               0.0000
     18 H18        243.7497 -15.0512  44.1743 H              1 RES1               0.0000
     19 H19        245.3951 -15.6127  43.8284 H              1 RES1               0.0000
     20 H20        244.3758 -15.3243  41.9481 H              1 RES1               0.0000
     21 H21        244.9068 -11.0972  42.3827 H              1 RES1               0.0000
     22 H22        248.2000 -11.9983  44.1176 H              1 RES1               0.0000
     23 H23        244.7331 -10.7963  45.8595 H              1 RES1               0.0000
     24 H24        244.8096 -15.9924  46.2011 H              1 RES1               0.0000
     25 H25        246.1290 -14.8310  46.0773 H              1 RES1               0.0000
     26 H26        244.4933 -14.2729  46.4213 H              1 RES1               0.0000
     27 H27        243.6133 -14.9815  39.6403 H              1 RES1               0.0000
     28 H28        244.1438 -10.7733  40.0759 H              1 RES1               0.0000
     29 H29        243.4932 -12.7081  38.6948 H              1 RES1               0.0000
@<TRIPOS>BOND
    1    1    2 1     
    2    1    3 1     
    3    1    4 1     
    4    1    5 1     
    5    2    6 ar    
    6    2    7 ar    
    7    3    8 1     
    8    3    9 2     
    9    4   10 1     
   10    4   11 2     
   11    5   12 1     
   12    5   18 1     
   13    5   19 1     
   14    6   13 ar    
   15    6   20 1     
   16    7   14 ar    
   17    7   21 1     
   18    8   15 1     
   19    8   22 1     
   20   10   15 1     
   21   10   23 1     
   22   12   24 1     
   23   12   25 1     
   24   12   26 1     
   25   13   16 ar    
   26   13   27 1     
   27   14   16 ar    
   28   14   28 1     
   29   15   17 2     
   30   16   29 1     
@<TRIPOS>SUBSTRUCTURE
      1 RES1           1
@<TRIPOS>SET
DONOR_HYDROGENS      STATIC     ATOMS    <user>   **** ""
2 22 23
ATOM$RED        STATIC     ATOMS    COLORGROUP SYSTEM
2 22 23
@<TRIPOS>COMMENT
> <Gold.Version>
2022.3.0

> <Gold.Id.Protein>
unknown|4v3u_clean|pdb

> <Gold.Protein.RotatedTorsions>
[ 6612 6571 6572 6573 ] final -147.47 input  122.18 | X-H torsion
[ 6698 6659 6660 6661 ] final   82.78 input  126.07 | X-H torsion
[ 8064 8023 8024 8025 ] final -100.40 input   40.84 | X-H torsion
[ 8135 8102 8103 8104 ] final  -16.18 input  100.47 | X-H torsion
[ 8198 8164 8165 8166 ] final   91.10 input   73.50 | X-H torsion
[ 8278 8240 8241 8242 ] final  -82.54 input   88.79 | X-H torsion
[ 9578 9542 9541 9539 ] final -151.42 input   60.02 | X-H torsion
[ 8331 8311 8312 8313 ] final -136.65 input   92.25 | X-H torsion
[ 7986 7938 7939 7940 ] final  154.42 input   70.73 | X-H torsion
[ 7906 7885 7886 7887 ] final -169.48 input  102.20 | X-H torsion
[ 6850 6802 6803 6804 ] final  155.66 input  120.36 | X-H torsion
[ 10224 10183 10184 10185 ] final  126.11 input   40.62 | X-H torsion
[ 7910 7890 7889 7886 ] final    3.25 input   60.02 | X-H torsion
[ 27200 6334 6333 6332 ] final  -15.50 input    0.00 | X-H torsion
[ 27202 6498 6497 6496 ] final  -12.85 input   -0.00 | X-H torsion
[ 27205 6574 6573 6572 ] final   64.29 input   -0.00 | X-H torsion
[ 27208 7888 7887 7886 ] final  120.83 input    0.00 | X-H torsion
[ 27211 8026 8025 8024 ] final  176.08 input   -0.00 | X-H torsion
[ 27214 8105 8104 8103 ] final   69.19 input    0.00 | X-H torsion
[ 27217 8167 8166 8165 ] final  -53.97 input    0.00 | X-H torsion
[ 27222 10096 10095 10094 ] final -168.82 input   -0.00 | X-H torsion
[ 27225 10186 10185 10184 ] final -129.98 input    0.00 | X-H torsion
[ 27228 7941 7940 7939 ] final   19.96 input    0.00 | X-H torsion
[ 27230 7733 7732 7731 ] final   60.09 input   -0.00 | X-H torsion
[ 27232 7816 7815 7814 ] final -177.02 input   -0.00 | X-H torsion

> <Gold.Protein.ActiveResidues>
 ASP403  THR404  LEU406  ILE407  TYR408  ALA410  LYS411  TRP414  GLN425  TRP426 
 SER427  LYS428  LEU429  GLN430  VAL431  PHE432  ASP433  TYR453  SER462  ALA463 
 ILE464 

> <Gold.Protein.RotatedAtoms>
  242.7287   -7.4478   50.4206 H   0  0  0  0  0  0  0  0  0  0  0  0  # atno 6612 bound_to 6571
  239.7032   -8.0007   49.0139 H   0  0  0  0  0  0  0  0  0  0  0  0  # atno 6698 bound_to 6659
  241.3377   -5.0938   45.2339 H   0  0  0  0  0  0  0  0  0  0  0  0  # atno 6850 bound_to 6802
  239.6209   -6.6945   37.6976 H   0  0  0  0  0  0  0  0  0  0  0  0  # atno 7906 bound_to 7885
  240.0212   -8.7517   36.2077 H   0  0  0  0  0  0  0  0  0  0  0  0  # atno 7910 bound_to 7890
  242.1330   -8.9554   37.1859 H   0  0  0  0  0  0  0  0  0  0  0  0  # atno 7986 bound_to 7938
  245.4810   -8.6129   39.0565 H   0  0  0  0  0  0  0  0  0  0  0  0  # atno 8064 bound_to 8023
  247.2448   -7.1954   42.1022 H   0  0  0  0  0  0  0  0  0  0  0  0  # atno 8135 bound_to 8102
  247.5593   -8.9468   45.2525 H   0  0  0  0  0  0  0  0  0  0  0  0  # atno 8198 bound_to 8164
  248.9346   -7.2674   47.7085 H   0  0  0  0  0  0  0  0  0  0  0  0  # atno 8278 bound_to 8240
  249.5525   -6.8344   50.3335 H   0  0  0  0  0  0  0  0  0  0  0  0  # atno 8331 bound_to 8311
  251.3943  -10.3324   39.8094 H   0  0  0  0  0  0  0  0  0  0  0  0  # atno 9578 bound_to 9542
  248.7138   -3.8221   43.5266 H   0  0  0  0  0  0  0  0  0  0  0  0  # atno 10224 bound_to 10183
  242.7056   -9.1277   52.0444 LP  0  0  0  0  0  0  0  0  0  0  0  0  # atno 27200 bound_to 6334
  241.7439  -10.0832   50.9663 LP  0  0  0  0  0  0  0  0  0  0  0  0  # atno 27201 bound_to 6334
  241.2871   -4.6059   49.9190 LP  0  0  0  0  0  0  0  0  0  0  0  0  # atno 27202 bound_to 6498
  242.0194   -5.5302   48.6504 LP  0  0  0  0  0  0  0  0  0  0  0  0  # atno 27203 bound_to 6498
  241.0053   -7.7226   50.2875 LP  0  0  0  0  0  0  0  0  0  0  0  0  # atno 27204 bound_to 6571
  241.5568   -7.2227   45.8159 LP  0  0  0  0  0  0  0  0  0  0  0  0  # atno 27205 bound_to 6574
  240.6463   -5.9534   46.5643 LP  0  0  0  0  0  0  0  0  0  0  0  0  # atno 27206 bound_to 6574
  240.4897   -8.2640   47.4733 LP  0  0  0  0  0  0  0  0  0  0  0  0  # atno 27207 bound_to 6659
  242.3567  -10.9448   39.1579 LP  0  0  0  0  0  0  0  0  0  0  0  0  # atno 27208 bound_to 7888
  241.8387   -9.9156   40.4512 LP  0  0  0  0  0  0  0  0  0  0  0  0  # atno 27209 bound_to 7888
  244.2005   -8.5539   40.2477 LP  0  0  0  0  0  0  0  0  0  0  0  0  # atno 27210 bound_to 8023
  246.4302   -9.2199   43.4139 LP  0  0  0  0  0  0  0  0  0  0  0  0  # atno 27211 bound_to 8026
  244.9551   -8.7201   42.6559 LP  0  0  0  0  0  0  0  0  0  0  0  0  # atno 27212 bound_to 8026
  248.0587   -8.2800   41.0013 LP  0  0  0  0  0  0  0  0  0  0  0  0  # atno 27213 bound_to 8102
  248.4054   -5.7330   43.5720 LP  0  0  0  0  0  0  0  0  0  0  0  0  # atno 27214 bound_to 8105
  249.7275   -6.0667   44.6400 LP  0  0  0  0  0  0  0  0  0  0  0  0  # atno 27215 bound_to 8105
  248.6484   -7.7383   44.6142 LP  0  0  0  0  0  0  0  0  0  0  0  0  # atno 27216 bound_to 8164
  247.9513   -8.9576   48.5603 LP  0  0  0  0  0  0  0  0  0  0  0  0  # atno 27217 bound_to 8167
  249.6122   -9.1927   48.1289 LP  0  0  0  0  0  0  0  0  0  0  0  0  # atno 27218 bound_to 8167
  249.7707   -5.8287   47.1796 LP  0  0  0  0  0  0  0  0  0  0  0  0  # atno 27219 bound_to 8240
  251.2900  -11.1018   41.2392 LP  0  0  0  0  0  0  0  0  0  0  0  0  # atno 27220 bound_to 9542
  252.1633  -11.7504   40.0214 LP  0  0  0  0  0  0  0  0  0  0  0  0  # atno 27221 bound_to 9542
  249.5244   -6.5598   40.9473 LP  0  0  0  0  0  0  0  0  0  0  0  0  # atno 27222 bound_to 10096
  249.5558   -7.0725   39.2932 LP  0  0  0  0  0  0  0  0  0  0  0  0  # atno 27223 bound_to 10096
  250.8586   -7.7272   51.0745 LP  0  0  0  0  0  0  0  0  0  0  0  0  # atno 27224 bound_to 8311
  249.8113   -4.4946   47.5050 LP  0  0  0  0  0  0  0  0  0  0  0  0  # atno 27225 bound_to 10186
  250.4418   -4.8156   45.9240 LP  0  0  0  0  0  0  0  0  0  0  0  0  # atno 27226 bound_to 10186
  242.5086   -7.9677   38.5765 LP  0  0  0  0  0  0  0  0  0  0  0  0  # atno 27227 bound_to 7938
  245.4131   -7.1598   37.0167 LP  0  0  0  0  0  0  0  0  0  0  0  0  # atno 27228 bound_to 7941
  246.5113   -6.9546   38.3403 LP  0  0  0  0  0  0  0  0  0  0  0  0  # atno 27229 bound_to 7941
  243.8484   -6.1223   36.3388 LP  0  0  0  0  0  0  0  0  0  0  0  0  # atno 27230 bound_to 7733
  242.5150   -7.1618   36.7146 LP  0  0  0  0  0  0  0  0  0  0  0  0  # atno 27231 bound_to 7733
  241.3142   -6.8965   39.9885 LP  0  0  0  0  0  0  0  0  0  0  0  0  # atno 27232 bound_to 7816
  241.5073   -5.1833   39.8221 LP  0  0  0  0  0  0  0  0  0  0  0  0  # atno 27233 bound_to 7816
  241.2721   -7.0195   37.2290 LP  0  0  0  0  0  0  0  0  0  0  0  0  # atno 27234 bound_to 7885

> <Gold.Score>
     Fitness  S(hb_ext) S(vdw_ext)  S(hb_int)    S(int)      intcor
     25.47       7.71      13.32       0.00      -0.56      -0.78

> <Gold.Goldscore.Fitness>
25.4652

> <Gold.Goldscore.Internal.Vdw>
-0.8493

> <Gold.Goldscore.Internal.Torsion>
-0.4952

> <Gold.Goldscore.External.Vdw>
13.3176

> <Gold.Goldscore.Internal.HBond>
0.0000

> <Gold.Goldscore.External.HBond>
7.7142

> <Gold.Goldscore.Internal.Correction>
-0.7838

> <Gold.Goldscore.Hbonds>
donor molecule, donor type, donor heavy atom, donor atom, acceptor molecule, acceptor atom, score
      P1  H  8164  8198       L1    17  0.86
      L1  H     8    22       P1  8110  1.00

> <Gold.Goldscore.Internal.Vdw.Weighted>
-0.8493

> <Gold.Goldscore.Internal.Torsion.Weighted>
-0.4952

> <Gold.Goldscore.External.Vdw.Weighted>
18.3117

> <Gold.Goldscore.Internal.HBond.Weighted>
0.0000

> <Gold.Goldscore.External.HBond.Weighted>
7.7142

> <Gold.Goldscore.Internal.Correction.Weighted>
-0.7838

> <Gold.Rescore>
     Score     S(PLP)   S(hbond)     S(cho)   S(metal)  DE(clash)   DE(tors)     intcor
     29.86     -20.88       3.00       0.00       0.00       0.00       0.01       ----

> <Gold.PLP.Fitness>
29.8617

> <Gold.PLP.PLP>
-20.8780

> <Gold.PLP.part.hbond>
-3.0000

> <Gold.PLP.part.metal>
0.0000

> <Gold.PLP.part.buried>
-4.9617

> <Gold.PLP.part.nonpolar>
-13.5183

> <Gold.PLP.part.repulsive>
0.4504

> <Gold.PLP.ligand.clash>
0.0000

> <Gold.PLP.ligand.torsion>
0.0082

> <Gold.PLP.Chemscore.Hbond>
3.0000

> <Gold.PLP.Chemscore.CHOScore>
0.0000

> <Gold.PLP.Chemscore.Metal>
0.0000

> <Gold.Chemscore.Hbonds>
donor molecule, donor type, donor heavy atom, donor atom, acceptor molecule, acceptor atom, score
      L1  H     8    22       P1  8110  1.00
      P1  H  6810  6861       L1    11  0.48
      P1  H  8164  8198       L1    17  0.71

> <Gold.PLP.Chemscore.Internal.Correction>
   9.000000E+99

