#       Name:                CT1002167954
#       Creating user name   hitesit
#       Creation time:       Sun Apr 16 23:06:28 2023


#       File generated by GOLD software.
#

@<TRIPOS>MOLECULE
CT1002167954|ligand_prepared|mol2|1|dock2
    29    30     1
SMALL
NO_CHARGES


@<TRIPOS>ATOM
      1 C1         247.3474 -12.5008  40.7806 C.3            1 RES1               0.0000
      2 C2         246.7865 -12.2898  42.2017 C.ar           1 RES1               0.0000
      3 C3         246.5777 -11.5482  39.8703 C.2            1 RES1               0.0000
      4 C4         248.8418 -12.2099  40.8643 C.2            1 RES1               0.0000
      5 C5         247.1703 -13.9412  40.2464 C.3            1 RES1               0.0000
      6 C6         247.1703 -13.1253  43.2463 C.ar           1 RES1               0.0000
      7 C7         245.8880 -11.2641  42.4835 C.ar           1 RES1               0.0000
      8 N8         247.2310 -10.4394  39.4191 N.am           1 RES1               0.0000
      9 O9         245.4032 -11.7465  39.5849 O.2            1 RES1               0.0000
     10 N10        249.3241 -11.1254  40.1795 N.am           1 RES1               0.0000
     11 O11        249.6032 -12.9004  41.5304 O.2            1 RES1               0.0000
     12 C12        247.6098 -14.1177  38.8015 C.3            1 RES1               0.0000
     13 C13        246.6763 -12.9404  44.5270 C.ar           1 RES1               0.0000
     14 C14        245.3949 -11.0812  43.7649 C.ar           1 RES1               0.0000
     15 C15        248.5817 -10.2091  39.4857 C.2            1 RES1               0.0000
     16 C16        245.7887 -11.9181  44.7872 C.ar           1 RES1               0.0000
     17 O17        249.0818  -9.2289  38.9414 O.2            1 RES1               0.0000
     18 H18        247.7498 -14.6258  40.8780 H              1 RES1               0.0000
     19 H19        246.1130 -14.2215  40.3305 H              1 RES1               0.0000
     20 H20        247.8660 -13.9367  43.0601 H              1 RES1               0.0000
     21 H21        245.5634 -10.5942  41.6946 H              1 RES1               0.0000
     22 H22        246.6628  -9.7144  38.9928 H              1 RES1               0.0000
     23 H23        250.3299 -10.9885  40.1877 H              1 RES1               0.0000
     24 H24        247.4643 -15.1459  38.4769 H              1 RES1               0.0000
     25 H25        247.0362 -13.4698  38.1419 H              1 RES1               0.0000
     26 H26        248.6634 -13.8717  38.6861 H              1 RES1               0.0000
     27 H27        246.9883 -13.6027  45.3278 H              1 RES1               0.0000
     28 H28        244.6961 -10.2757  43.9650 H              1 RES1               0.0000
     29 H29        245.4021 -11.7733  45.7906 H              1 RES1               0.0000
@<TRIPOS>BOND
    1    1    2 1     
    2    1    3 1     
    3    1    4 1     
    4    1    5 1     
    5    2    6 ar    
    6    2    7 ar    
    7    3    8 1     
    8    3    9 2     
    9    4   10 1     
   10    4   11 2     
   11    5   12 1     
   12    5   18 1     
   13    5   19 1     
   14    6   13 ar    
   15    6   20 1     
   16    7   14 ar    
   17    7   21 1     
   18    8   15 1     
   19    8   22 1     
   20   10   15 1     
   21   10   23 1     
   22   12   24 1     
   23   12   25 1     
   24   12   26 1     
   25   13   16 ar    
   26   13   27 1     
   27   14   16 ar    
   28   14   28 1     
   29   15   17 2     
   30   16   29 1     
@<TRIPOS>SUBSTRUCTURE
      1 RES1           1
@<TRIPOS>SET
DONOR_HYDROGENS      STATIC     ATOMS    <user>   **** ""
2 22 23
ATOM$RED        STATIC     ATOMS    COLORGROUP SYSTEM
2 22 23
@<TRIPOS>COMMENT
> <Gold.Version>
2022.3.0

> <Gold.Id.Protein>
unknown|4v3u_clean|pdb

> <Gold.Protein.RotatedTorsions>
[ 6612 6571 6572 6573 ] final  154.05 input  122.18 | X-H torsion
[ 6698 6659 6660 6661 ] final   45.67 input  126.07 | X-H torsion
[ 8064 8023 8024 8025 ] final   47.44 input   40.84 | X-H torsion
[ 8135 8102 8103 8104 ] final  122.73 input  100.47 | X-H torsion
[ 8198 8164 8165 8166 ] final  -22.19 input   73.50 | X-H torsion
[ 8278 8240 8241 8242 ] final  -50.40 input   88.79 | X-H torsion
[ 9578 9542 9541 9539 ] final  -30.02 input   60.02 | X-H torsion
[ 8331 8311 8312 8313 ] final   -4.62 input   92.25 | X-H torsion
[ 7986 7938 7939 7940 ] final  -36.05 input   70.73 | X-H torsion
[ 7906 7885 7886 7887 ] final -119.79 input  102.20 | X-H torsion
[ 6850 6802 6803 6804 ] final   81.74 input  120.36 | X-H torsion
[ 10224 10183 10184 10185 ] final -139.27 input   40.62 | X-H torsion
[ 7910 7890 7889 7886 ] final   45.86 input   60.02 | X-H torsion
[ 27200 6334 6333 6332 ] final   37.89 input    0.00 | X-H torsion
[ 27202 6498 6497 6496 ] final  108.54 input   -0.00 | X-H torsion
[ 27205 6574 6573 6572 ] final   78.77 input   -0.00 | X-H torsion
[ 27208 7888 7887 7886 ] final  -78.66 input    0.00 | X-H torsion
[ 27211 8026 8025 8024 ] final -179.06 input   -0.00 | X-H torsion
[ 27214 8105 8104 8103 ] final   97.77 input    0.00 | X-H torsion
[ 27217 8167 8166 8165 ] final  -96.18 input    0.00 | X-H torsion
[ 27222 10096 10095 10094 ] final  151.50 input   -0.00 | X-H torsion
[ 27225 10186 10185 10184 ] final -130.29 input    0.00 | X-H torsion
[ 27228 7941 7940 7939 ] final  -90.31 input    0.00 | X-H torsion
[ 27230 7733 7732 7731 ] final  140.31 input   -0.00 | X-H torsion
[ 27232 7816 7815 7814 ] final  -89.45 input   -0.00 | X-H torsion

> <Gold.Protein.ActiveResidues>
 ASP403  THR404  LEU406  ILE407  TYR408  ALA410  LYS411  TRP414  GLN425  TRP426 
 SER427  LYS428  LEU429  GLN430  VAL431  PHE432  ASP433  TYR453  SER462  ALA463 
 ILE464 

> <Gold.Protein.RotatedAtoms>
  242.4147   -8.2473   50.5540 H   0  0  0  0  0  0  0  0  0  0  0  0  # atno 6612 bound_to 6571
  239.9499   -7.5181   48.8531 H   0  0  0  0  0  0  0  0  0  0  0  0  # atno 6698 bound_to 6659
  240.3299   -4.8726   45.4818 H   0  0  0  0  0  0  0  0  0  0  0  0  # atno 6850 bound_to 6802
  240.1350   -6.4131   38.1522 H   0  0  0  0  0  0  0  0  0  0  0  0  # atno 7906 bound_to 7885
  240.2889   -9.3747   36.1488 H   0  0  0  0  0  0  0  0  0  0  0  0  # atno 7910 bound_to 7890
  242.4593   -8.0836   38.6759 H   0  0  0  0  0  0  0  0  0  0  0  0  # atno 7986 bound_to 7938
  244.4862   -8.9105   40.4123 H   0  0  0  0  0  0  0  0  0  0  0  0  # atno 8064 bound_to 8023
  248.3825   -7.7612   41.0465 H   0  0  0  0  0  0  0  0  0  0  0  0  # atno 8135 bound_to 8102
  248.9468   -8.4427   45.1959 H   0  0  0  0  0  0  0  0  0  0  0  0  # atno 8198 bound_to 8164
  248.7419   -6.8980   47.9628 H   0  0  0  0  0  0  0  0  0  0  0  0  # atno 8278 bound_to 8240
  251.0352   -7.0546   50.9293 H   0  0  0  0  0  0  0  0  0  0  0  0  # atno 8331 bound_to 8311
  252.1595  -11.7550   40.0448 H   0  0  0  0  0  0  0  0  0  0  0  0  # atno 9578 bound_to 9542
  249.7589   -3.1661   43.0640 H   0  0  0  0  0  0  0  0  0  0  0  0  # atno 10224 bound_to 10183
  243.0770   -9.6794   51.6405 LP  0  0  0  0  0  0  0  0  0  0  0  0  # atno 27200 bound_to 6334
  241.3725   -9.5315   51.3701 LP  0  0  0  0  0  0  0  0  0  0  0  0  # atno 27201 bound_to 6334
  242.5138   -5.1145   49.1996 LP  0  0  0  0  0  0  0  0  0  0  0  0  # atno 27202 bound_to 6498
  240.7927   -5.0216   49.3699 LP  0  0  0  0  0  0  0  0  0  0  0  0  # atno 27203 bound_to 6498
  241.3090   -6.9495   50.1585 LP  0  0  0  0  0  0  0  0  0  0  0  0  # atno 27204 bound_to 6571
  241.3602   -7.2831   45.7427 LP  0  0  0  0  0  0  0  0  0  0  0  0  # atno 27205 bound_to 6574
  240.8429   -5.8931   46.6374 LP  0  0  0  0  0  0  0  0  0  0  0  0  # atno 27206 bound_to 6574
  240.2504   -8.7321   47.6294 LP  0  0  0  0  0  0  0  0  0  0  0  0  # atno 27207 bound_to 6659
  242.1255   -9.8543   40.4507 LP  0  0  0  0  0  0  0  0  0  0  0  0  # atno 27208 bound_to 7888
  242.0699  -11.0061   39.1583 LP  0  0  0  0  0  0  0  0  0  0  0  0  # atno 27209 bound_to 7888
  245.1646   -8.2654   38.9338 LP  0  0  0  0  0  0  0  0  0  0  0  0  # atno 27210 bound_to 8023
  246.4246   -9.1604   43.4567 LP  0  0  0  0  0  0  0  0  0  0  0  0  # atno 27211 bound_to 8026
  244.9607   -8.7795   42.6131 LP  0  0  0  0  0  0  0  0  0  0  0  0  # atno 27212 bound_to 8026
  246.9436   -7.7255   42.0360 LP  0  0  0  0  0  0  0  0  0  0  0  0  # atno 27213 bound_to 8102
  248.2482   -5.6554   43.9620 LP  0  0  0  0  0  0  0  0  0  0  0  0  # atno 27214 bound_to 8105
  249.8847   -6.1443   44.2501 LP  0  0  0  0  0  0  0  0  0  0  0  0  # atno 27215 bound_to 8105
  247.2939   -8.2304   44.6695 LP  0  0  0  0  0  0  0  0  0  0  0  0  # atno 27216 bound_to 8164
  248.3317   -8.7328   49.0005 LP  0  0  0  0  0  0  0  0  0  0  0  0  # atno 27217 bound_to 8167
  249.2318   -9.4175   47.6887 LP  0  0  0  0  0  0  0  0  0  0  0  0  # atno 27218 bound_to 8167
  249.9596   -6.1910   46.9302 LP  0  0  0  0  0  0  0  0  0  0  0  0  # atno 27219 bound_to 8240
  251.4033  -10.3375   39.7875 LP  0  0  0  0  0  0  0  0  0  0  0  0  # atno 27220 bound_to 9542
  251.2791  -11.0815   41.2359 LP  0  0  0  0  0  0  0  0  0  0  0  0  # atno 27221 bound_to 9542
  250.0777   -6.6719   40.7837 LP  0  0  0  0  0  0  0  0  0  0  0  0  # atno 27222 bound_to 10096
  249.0024   -6.9605   39.4569 LP  0  0  0  0  0  0  0  0  0  0  0  0  # atno 27223 bound_to 10096
  249.4069   -7.5116   50.4912 LP  0  0  0  0  0  0  0  0  0  0  0  0  # atno 27224 bound_to 8311
  249.8158   -4.4940   47.5066 LP  0  0  0  0  0  0  0  0  0  0  0  0  # atno 27225 bound_to 10186
  250.4374   -4.8162   45.9224 LP  0  0  0  0  0  0  0  0  0  0  0  0  # atno 27226 bound_to 10186
  242.1889   -8.8220   37.1165 LP  0  0  0  0  0  0  0  0  0  0  0  0  # atno 27227 bound_to 7938
  246.6171   -7.6202   37.6150 LP  0  0  0  0  0  0  0  0  0  0  0  0  # atno 27228 bound_to 7941
  245.3072   -6.4942   37.7420 LP  0  0  0  0  0  0  0  0  0  0  0  0  # atno 27229 bound_to 7941
  243.0945   -6.0567   37.1589 LP  0  0  0  0  0  0  0  0  0  0  0  0  # atno 27230 bound_to 7733
  243.2689   -7.2275   35.8945 LP  0  0  0  0  0  0  0  0  0  0  0  0  # atno 27231 bound_to 7733
  242.2214   -6.1938   39.6426 LP  0  0  0  0  0  0  0  0  0  0  0  0  # atno 27232 bound_to 7816
  240.6000   -5.8860   40.1680 LP  0  0  0  0  0  0  0  0  0  0  0  0  # atno 27233 bound_to 7816
  240.7687   -7.2951   36.7839 LP  0  0  0  0  0  0  0  0  0  0  0  0  # atno 27234 bound_to 7885

> <Gold.Score>
     Fitness  S(hb_ext) S(vdw_ext)  S(hb_int)    S(int)      intcor
     26.60       2.52      18.81       0.00      -1.79      -0.78

> <Gold.Goldscore.Fitness>
26.6023

> <Gold.Goldscore.Internal.Vdw>
-2.1596

> <Gold.Goldscore.Internal.Torsion>
-0.4129

> <Gold.Goldscore.External.Vdw>
18.8131

> <Gold.Goldscore.Internal.HBond>
0.0000

> <Gold.Goldscore.External.HBond>
2.5230

> <Gold.Goldscore.Internal.Correction>
-0.7838

> <Gold.Goldscore.Hbonds>
donor molecule, donor type, donor heavy atom, donor atom, acceptor molecule, acceptor atom, score
      L1  H     8    22       P1  7941  0.43
      L1  H    10    23       P1  9542  0.84

> <Gold.Goldscore.Internal.Vdw.Weighted>
-2.1596

> <Gold.Goldscore.Internal.Torsion.Weighted>
-0.4129

> <Gold.Goldscore.External.Vdw.Weighted>
25.8680

> <Gold.Goldscore.Internal.HBond.Weighted>
0.0000

> <Gold.Goldscore.External.HBond.Weighted>
2.5230

> <Gold.Goldscore.Internal.Correction.Weighted>
-0.7838

> <Gold.Rescore>
     Score     S(PLP)   S(hbond)     S(cho)   S(metal)  DE(clash)   DE(tors)     intcor
     23.21     -18.21       2.16       0.00       0.00       1.14       0.17       ----

> <Gold.PLP.Fitness>
23.2055

> <Gold.PLP.PLP>
-18.2053

> <Gold.PLP.part.hbond>
-3.8857

> <Gold.PLP.part.metal>
0.0000

> <Gold.PLP.part.buried>
-1.2492

> <Gold.PLP.part.nonpolar>
-15.1397

> <Gold.PLP.part.repulsive>
2.6780

> <Gold.PLP.ligand.clash>
1.1414

> <Gold.PLP.ligand.torsion>
0.1691

> <Gold.PLP.Chemscore.Hbond>
2.1599

> <Gold.PLP.Chemscore.CHOScore>
0.0000

> <Gold.PLP.Chemscore.Metal>
0.0000

> <Gold.Chemscore.Hbonds>
donor molecule, donor type, donor heavy atom, donor atom, acceptor molecule, acceptor atom, score
      L1  H     8    22       P1  8023  0.27
      L1  H    10    23       P1  9542  0.91

> <Gold.PLP.Chemscore.Internal.Correction>
   9.000000E+99

