#       Name:                CT1002167954
#       Creating user name   hitesit
#       Creation time:       Sun Apr 16 23:06:27 2023


#       File generated by GOLD software.
#

@<TRIPOS>MOLECULE
CT1002167954|ligand_prepared|mol2|1|dock1
    29    30     1
SMALL
NO_CHARGES


@<TRIPOS>ATOM
      1 C1         247.2831 -12.5477  41.0973 C.3            1 RES1               0.0000
      2 C2         247.0553 -12.5331  42.6226 C.ar           1 RES1               0.0000
      3 C3         246.4008 -11.4438  40.5218 C.2            1 RES1               0.0000
      4 C4         248.7765 -12.3238  40.8868 C.2            1 RES1               0.0000
      5 C5         246.9005 -13.8849  40.4212 C.3            1 RES1               0.0000
      6 C6         247.5573 -13.5544  43.4238 C.ar           1 RES1               0.0000
      7 C7         246.3488 -11.5057  43.2422 C.ar           1 RES1               0.0000
      8 N8         247.0140 -10.3027  40.0952 N.am           1 RES1               0.0000
      9 O9         245.1819 -11.5567  40.4795 O.2            1 RES1               0.0000
     10 N10        249.1714 -11.1660  40.2694 N.am           1 RES1               0.0000
     11 O11        249.6157 -13.1319  41.2649 O.2            1 RES1               0.0000
     12 C12        247.2000 -13.9261  38.9309 C.3            1 RES1               0.0000
     13 C13        247.3626 -13.5473  44.7951 C.ar           1 RES1               0.0000
     14 C14        246.1551 -11.5007  44.6137 C.ar           1 RES1               0.0000
     15 C15        248.3597 -10.1312  39.8917 C.2            1 RES1               0.0000
     16 C16        246.6619 -12.5204  45.3910 C.ar           1 RES1               0.0000
     17 O17        248.7952  -9.0981  39.3915 O.2            1 RES1               0.0000
     18 H18        247.4468 -14.6986  40.9138 H              1 RES1               0.0000
     19 H19        245.8282 -14.0621  40.5708 H              1 RES1               0.0000
     20 H20        248.1092 -14.3721  42.9724 H              1 RES1               0.0000
     21 H21        245.9401 -10.6937  42.6505 H              1 RES1               0.0000
     22 H22        246.4168  -9.5030  39.9106 H              1 RES1               0.0000
     23 H23        250.1623 -11.0662  40.0731 H              1 RES1               0.0000
     24 H24        246.9126 -14.8857  38.5062 H              1 RES1               0.0000
     25 H25        246.6532 -13.1457  38.4058 H              1 RES1               0.0000
     26 H26        248.2621 -13.7784  38.7468 H              1 RES1               0.0000
     27 H27        247.7623 -14.3528  45.4022 H              1 RES1               0.0000
     28 H28        245.6025 -10.6908  45.0784 H              1 RES1               0.0000
     29 H29        246.5099 -12.5149  46.4653 H              1 RES1               0.0000
@<TRIPOS>BOND
    1    1    2 1     
    2    1    3 1     
    3    1    4 1     
    4    1    5 1     
    5    2    6 ar    
    6    2    7 ar    
    7    3    8 1     
    8    3    9 2     
    9    4   10 1     
   10    4   11 2     
   11    5   12 1     
   12    5   18 1     
   13    5   19 1     
   14    6   13 ar    
   15    6   20 1     
   16    7   14 ar    
   17    7   21 1     
   18    8   15 1     
   19    8   22 1     
   20   10   15 1     
   21   10   23 1     
   22   12   24 1     
   23   12   25 1     
   24   12   26 1     
   25   13   16 ar    
   26   13   27 1     
   27   14   16 ar    
   28   14   28 1     
   29   15   17 2     
   30   16   29 1     
@<TRIPOS>SUBSTRUCTURE
      1 RES1           1
@<TRIPOS>SET
DONOR_HYDROGENS      STATIC     ATOMS    <user>   **** ""
2 22 23
ATOM$RED        STATIC     ATOMS    COLORGROUP SYSTEM
2 22 23
@<TRIPOS>COMMENT
> <Gold.Version>
2022.3.0

> <Gold.Id.Protein>
unknown|4v3u_clean|pdb

> <Gold.Protein.RotatedTorsions>
[ 6612 6571 6572 6573 ] final   85.15 input  122.18 | X-H torsion
[ 6698 6659 6660 6661 ] final  -72.39 input  126.07 | X-H torsion
[ 8064 8023 8024 8025 ] final  157.31 input   40.84 | X-H torsion
[ 8135 8102 8103 8104 ] final  121.14 input  100.47 | X-H torsion
[ 8198 8164 8165 8166 ] final  114.51 input   73.50 | X-H torsion
[ 8278 8240 8241 8242 ] final   29.45 input   88.79 | X-H torsion
[ 9578 9542 9541 9539 ] final  -33.61 input   60.02 | X-H torsion
[ 8331 8311 8312 8313 ] final  -20.60 input   92.25 | X-H torsion
[ 7986 7938 7939 7940 ] final -124.45 input   70.73 | X-H torsion
[ 7906 7885 7886 7887 ] final -179.62 input  102.20 | X-H torsion
[ 6850 6802 6803 6804 ] final -172.22 input  120.36 | X-H torsion
[ 10224 10183 10184 10185 ] final  -81.01 input   40.62 | X-H torsion
[ 7910 7890 7889 7886 ] final  144.66 input   60.02 | X-H torsion
[ 27200 6334 6333 6332 ] final -137.41 input    0.00 | X-H torsion
[ 27202 6498 6497 6496 ] final  176.11 input   -0.00 | X-H torsion
[ 27205 6574 6573 6572 ] final  164.91 input   -0.00 | X-H torsion
[ 27208 7888 7887 7886 ] final   36.63 input    0.00 | X-H torsion
[ 27211 8026 8025 8024 ] final   33.70 input   -0.00 | X-H torsion
[ 27214 8105 8104 8103 ] final -106.95 input    0.00 | X-H torsion
[ 27217 8167 8166 8165 ] final  -40.43 input    0.00 | X-H torsion
[ 27222 10096 10095 10094 ] final -165.27 input   -0.00 | X-H torsion
[ 27225 10186 10185 10184 ] final -101.77 input    0.00 | X-H torsion
[ 27228 7941 7940 7939 ] final  -26.53 input    0.00 | X-H torsion
[ 27230 7733 7732 7731 ] final -174.95 input   -0.00 | X-H torsion
[ 27232 7816 7815 7814 ] final  141.37 input   -0.00 | X-H torsion

> <Gold.Protein.ActiveResidues>
 ASP403  THR404  LEU406  ILE407  TYR408  ALA410  LYS411  TRP414  GLN425  TRP426 
 SER427  LYS428  LEU429  GLN430  VAL431  PHE432  ASP433  TYR453  SER462  ALA463 
 ILE464 

> <Gold.Protein.RotatedAtoms>
  241.4193   -8.3581   50.4536 H   0  0  0  0  0  0  0  0  0  0  0  0  # atno 6612 bound_to 6571
  240.5681   -7.8971   47.5139 H   0  0  0  0  0  0  0  0  0  0  0  0  # atno 6698 bound_to 6659
  241.6783   -4.7792   45.0813 H   0  0  0  0  0  0  0  0  0  0  0  0  # atno 6850 bound_to 6802
  239.5832   -6.7756   37.5696 H   0  0  0  0  0  0  0  0  0  0  0  0  # atno 7906 bound_to 7885
  239.2412  -10.3364   36.1292 H   0  0  0  0  0  0  0  0  0  0  0  0  # atno 7910 bound_to 7890
  242.0151   -9.1695   38.3068 H   0  0  0  0  0  0  0  0  0  0  0  0  # atno 7986 bound_to 7938
  244.3368   -7.9022   39.3744 H   0  0  0  0  0  0  0  0  0  0  0  0  # atno 8064 bound_to 8023
  248.3880   -7.7387   41.0543 H   0  0  0  0  0  0  0  0  0  0  0  0  # atno 8135 bound_to 8102
  247.3367   -8.7440   45.0574 H   0  0  0  0  0  0  0  0  0  0  0  0  # atno 8198 bound_to 8164
  249.0663   -5.8193   47.8558 H   0  0  0  0  0  0  0  0  0  0  0  0  # atno 8278 bound_to 8240
  250.9631   -6.8392   50.8365 H   0  0  0  0  0  0  0  0  0  0  0  0  # atno 8331 bound_to 8311
  252.1629  -11.7268   39.9933 H   0  0  0  0  0  0  0  0  0  0  0  0  # atno 9578 bound_to 9542
  250.4275   -3.5052   43.5108 H   0  0  0  0  0  0  0  0  0  0  0  0  # atno 10224 bound_to 10183
  241.3726   -9.4785   51.4174 LP  0  0  0  0  0  0  0  0  0  0  0  0  # atno 27200 bound_to 6334
  243.0769   -9.7324   51.5933 LP  0  0  0  0  0  0  0  0  0  0  0  0  # atno 27201 bound_to 6334
  241.8927   -5.5600   48.6134 LP  0  0  0  0  0  0  0  0  0  0  0  0  # atno 27202 bound_to 6498
  241.4138   -4.5761   49.9560 LP  0  0  0  0  0  0  0  0  0  0  0  0  # atno 27203 bound_to 6498
  242.2715   -6.8423   50.2556 LP  0  0  0  0  0  0  0  0  0  0  0  0  # atno 27204 bound_to 6571
  240.3017   -6.7877   45.9248 LP  0  0  0  0  0  0  0  0  0  0  0  0  # atno 27205 bound_to 6574
  241.9014   -6.3885   46.4554 LP  0  0  0  0  0  0  0  0  0  0  0  0  # atno 27206 bound_to 6574
  239.6507   -8.3644   48.9285 LP  0  0  0  0  0  0  0  0  0  0  0  0  # atno 27207 bound_to 6659
  241.3132  -10.7530   39.6300 LP  0  0  0  0  0  0  0  0  0  0  0  0  # atno 27208 bound_to 7888
  242.8822  -10.1074   39.9790 LP  0  0  0  0  0  0  0  0  0  0  0  0  # atno 27209 bound_to 7888
  245.3094   -9.2426   39.9396 LP  0  0  0  0  0  0  0  0  0  0  0  0  # atno 27210 bound_to 8023
  245.1293   -9.1937   42.4163 LP  0  0  0  0  0  0  0  0  0  0  0  0  # atno 27211 bound_to 8026
  246.2560   -8.7463   43.6534 LP  0  0  0  0  0  0  0  0  0  0  0  0  # atno 27212 bound_to 8026
  246.9382   -7.7475   42.0284 LP  0  0  0  0  0  0  0  0  0  0  0  0  # atno 27213 bound_to 8102
  249.7594   -6.0801   44.5931 LP  0  0  0  0  0  0  0  0  0  0  0  0  # atno 27214 bound_to 8105
  248.3734   -5.7196   43.6189 LP  0  0  0  0  0  0  0  0  0  0  0  0  # atno 27215 bound_to 8105
  248.8657   -7.9362   44.8047 LP  0  0  0  0  0  0  0  0  0  0  0  0  # atno 27216 bound_to 8164
  247.9169   -9.0498   48.3813 LP  0  0  0  0  0  0  0  0  0  0  0  0  # atno 27217 bound_to 8167
  249.6466   -9.1005   48.3079 LP  0  0  0  0  0  0  0  0  0  0  0  0  # atno 27218 bound_to 8167
  249.6415   -7.2491   47.0350 LP  0  0  0  0  0  0  0  0  0  0  0  0  # atno 27219 bound_to 8240
  251.3717  -10.3143   39.8319 LP  0  0  0  0  0  0  0  0  0  0  0  0  # atno 27220 bound_to 9542
  251.3073  -11.1330   41.2433 LP  0  0  0  0  0  0  0  0  0  0  0  0  # atno 27221 bound_to 9542
  249.4711   -6.5552   40.9431 LP  0  0  0  0  0  0  0  0  0  0  0  0  # atno 27222 bound_to 10096
  249.6091   -7.0772   39.2974 LP  0  0  0  0  0  0  0  0  0  0  0  0  # atno 27223 bound_to 10096
  249.4775   -7.7225   50.5820 LP  0  0  0  0  0  0  0  0  0  0  0  0  # atno 27224 bound_to 8311
  249.4681   -4.5662   47.2699 LP  0  0  0  0  0  0  0  0  0  0  0  0  # atno 27225 bound_to 10186
  250.7851   -4.7441   46.1591 LP  0  0  0  0  0  0  0  0  0  0  0  0  # atno 27226 bound_to 10186
  242.6241   -7.7579   37.4781 LP  0  0  0  0  0  0  0  0  0  0  0  0  # atno 27227 bound_to 7938
  245.9434   -7.5906   36.9965 LP  0  0  0  0  0  0  0  0  0  0  0  0  # atno 27228 bound_to 7941
  245.9809   -6.5238   38.3605 LP  0  0  0  0  0  0  0  0  0  0  0  0  # atno 27229 bound_to 7941
  242.6330   -6.5265   37.1867 LP  0  0  0  0  0  0  0  0  0  0  0  0  # atno 27230 bound_to 7733
  243.7304   -6.7577   35.8667 LP  0  0  0  0  0  0  0  0  0  0  0  0  # atno 27231 bound_to 7733
  240.7970   -6.6022   40.1445 LP  0  0  0  0  0  0  0  0  0  0  0  0  # atno 27232 bound_to 7816
  242.0244   -5.4776   39.6662 LP  0  0  0  0  0  0  0  0  0  0  0  0  # atno 27233 bound_to 7816
  241.3090   -6.9402   37.3543 LP  0  0  0  0  0  0  0  0  0  0  0  0  # atno 27234 bound_to 7885

> <Gold.Score>
     Fitness  S(hb_ext) S(vdw_ext)  S(hb_int)    S(int)      intcor
     29.86       6.62      18.36       0.00      -1.99      -0.81

> <Gold.Goldscore.Fitness>
29.8643

> <Gold.Goldscore.Internal.Vdw>
-2.4143

> <Gold.Goldscore.Internal.Torsion>
-0.3842

> <Gold.Goldscore.External.Vdw>
18.3555

> <Gold.Goldscore.Internal.HBond>
0.0000

> <Gold.Goldscore.External.HBond>
6.6180

> <Gold.Goldscore.Internal.Correction>
-0.8059

> <Gold.Goldscore.Hbonds>
donor molecule, donor type, donor heavy atom, donor atom, acceptor molecule, acceptor atom, score
      P1  H  8102  8135       L1    17  0.01
      L1  H     8    22       P1  8023  0.87
      L1  H    10    23       P1  9542  0.68

> <Gold.Goldscore.Internal.Vdw.Weighted>
-2.4143

> <Gold.Goldscore.Internal.Torsion.Weighted>
-0.3842

> <Gold.Goldscore.External.Vdw.Weighted>
25.2388

> <Gold.Goldscore.Internal.HBond.Weighted>
0.0000

> <Gold.Goldscore.External.HBond.Weighted>
6.6180

> <Gold.Goldscore.Internal.Correction.Weighted>
-0.8059

> <Gold.Rescore>
     Score     S(PLP)   S(hbond)     S(cho)   S(metal)  DE(clash)   DE(tors)     intcor
     22.91     -18.62       1.96       0.00       0.00       0.95       0.32       ----

> <Gold.PLP.Fitness>
22.9051

> <Gold.PLP.PLP>
-18.6180

> <Gold.PLP.part.hbond>
-3.8851

> <Gold.PLP.part.metal>
0.0000

> <Gold.PLP.part.buried>
-1.8606

> <Gold.PLP.part.nonpolar>
-14.9343

> <Gold.PLP.part.repulsive>
2.2263

> <Gold.PLP.ligand.clash>
0.9524

> <Gold.PLP.ligand.torsion>
0.3225

> <Gold.PLP.Chemscore.Hbond>
1.9615

> <Gold.PLP.Chemscore.CHOScore>
0.0000

> <Gold.PLP.Chemscore.Metal>
0.0000

> <Gold.Chemscore.Hbonds>
donor molecule, donor type, donor heavy atom, donor atom, acceptor molecule, acceptor atom, score
      L1  H     8    22       P1  8023  0.65
      L1  H    10    23       P1  9542  0.75
      P1  H  8102  8135       L1    17  0.39

> <Gold.PLP.Chemscore.Internal.Correction>
   9.000000E+99

