#       Name:                CT1002167954
#       Creating user name   hitesit
#       Creation time:       Sun Apr 16 23:06:30 2023


#       File generated by GOLD software.
#

@<TRIPOS>MOLECULE
CT1002167954|ligand_prepared|mol2|1|dock7
    29    30     1
SMALL
NO_CHARGES


@<TRIPOS>ATOM
      1 C1         247.4708 -12.6454  40.5470 C.3            1 RES1               0.0000
      2 C2         246.0116 -13.1316  40.6622 C.ar           1 RES1               0.0000
      3 C3         247.7769 -12.5584  39.0547 C.2            1 RES1               0.0000
      4 C4         247.5330 -11.3065  41.2738 C.2            1 RES1               0.0000
      5 C5         248.4994 -13.5944  41.2049 C.3            1 RES1               0.0000
      6 C6         244.9708 -12.3844  40.1190 C.ar           1 RES1               0.0000
      7 C7         245.6916 -14.3243  41.3053 C.ar           1 RES1               0.0000
      8 N8         247.8492 -11.3165  38.4958 N.am           1 RES1               0.0000
      9 O9         247.9135 -13.5653  38.3707 O.2            1 RES1               0.0000
     10 N10        247.7961 -10.1848  40.5320 N.am           1 RES1               0.0000
     11 O11        247.3400 -11.2107  42.4796 O.2            1 RES1               0.0000
     12 C12        249.9079 -13.0248  41.2656 C.3            1 RES1               0.0000
     13 C13        243.6578 -12.8154  40.2126 C.ar           1 RES1               0.0000
     14 C14        244.3779 -14.7534  41.3980 C.ar           1 RES1               0.0000
     15 C15        247.9266 -10.1251  39.1713 C.2            1 RES1               0.0000
     16 C16        243.3606 -14.0002  40.8516 C.ar           1 RES1               0.0000
     17 O17        248.1082  -9.0702  38.5703 O.2            1 RES1               0.0000
     18 H18        248.1668 -13.8232  42.2249 H              1 RES1               0.0000
     19 H19        248.5230 -14.5351  40.6410 H              1 RES1               0.0000
     20 H20        245.1852 -11.4482  39.6145 H              1 RES1               0.0000
     21 H21        246.4756 -14.9326  41.7434 H              1 RES1               0.0000
     22 H22        247.8452 -11.2693  37.4819 H              1 RES1               0.0000
     23 H23        247.9049  -9.3136  41.0414 H              1 RES1               0.0000
     24 H24        250.5894 -13.7304  41.7361 H              1 RES1               0.0000
     25 H25        250.2802 -12.8090  40.2663 H              1 RES1               0.0000
     26 H26        249.9261 -12.1013  41.8407 H              1 RES1               0.0000
     27 H27        242.8607 -12.2183  39.7821 H              1 RES1               0.0000
     28 H28        244.1485 -15.6862  41.9024 H              1 RES1               0.0000
     29 H29        242.3320 -14.3379  40.9245 H              1 RES1               0.0000
@<TRIPOS>BOND
    1    1    2 1     
    2    1    3 1     
    3    1    4 1     
    4    1    5 1     
    5    2    6 ar    
    6    2    7 ar    
    7    3    8 1     
    8    3    9 2     
    9    4   10 1     
   10    4   11 2     
   11    5   12 1     
   12    5   18 1     
   13    5   19 1     
   14    6   13 ar    
   15    6   20 1     
   16    7   14 ar    
   17    7   21 1     
   18    8   15 1     
   19    8   22 1     
   20   10   15 1     
   21   10   23 1     
   22   12   24 1     
   23   12   25 1     
   24   12   26 1     
   25   13   16 ar    
   26   13   27 1     
   27   14   16 ar    
   28   14   28 1     
   29   15   17 2     
   30   16   29 1     
@<TRIPOS>SUBSTRUCTURE
      1 RES1           1
@<TRIPOS>SET
DONOR_HYDROGENS      STATIC     ATOMS    <user>   **** ""
2 22 23
ATOM$RED        STATIC     ATOMS    COLORGROUP SYSTEM
2 22 23
@<TRIPOS>COMMENT
> <Gold.Version>
2022.3.0

> <Gold.Id.Protein>
unknown|4v3u_clean|pdb

> <Gold.Protein.RotatedTorsions>
[ 6612 6571 6572 6573 ] final    5.19 input  122.18 | X-H torsion
[ 6698 6659 6660 6661 ] final  -74.49 input  126.07 | X-H torsion
[ 8064 8023 8024 8025 ] final -128.97 input   40.84 | X-H torsion
[ 8135 8102 8103 8104 ] final  -12.91 input  100.47 | X-H torsion
[ 8198 8164 8165 8166 ] final   58.84 input   73.50 | X-H torsion
[ 8278 8240 8241 8242 ] final -131.98 input   88.79 | X-H torsion
[ 9578 9542 9541 9539 ] final -172.35 input   60.02 | X-H torsion
[ 8331 8311 8312 8313 ] final -168.61 input   92.25 | X-H torsion
[ 7986 7938 7939 7940 ] final  -22.45 input   70.73 | X-H torsion
[ 7906 7885 7886 7887 ] final -103.98 input  102.20 | X-H torsion
[ 6850 6802 6803 6804 ] final  158.62 input  120.36 | X-H torsion
[ 10224 10183 10184 10185 ] final  172.66 input   40.62 | X-H torsion
[ 7910 7890 7889 7886 ] final   12.49 input   60.02 | X-H torsion
[ 27200 6334 6333 6332 ] final   22.35 input    0.00 | X-H torsion
[ 27202 6498 6497 6496 ] final   72.42 input   -0.00 | X-H torsion
[ 27205 6574 6573 6572 ] final -130.35 input   -0.00 | X-H torsion
[ 27208 7888 7887 7886 ] final  133.77 input    0.00 | X-H torsion
[ 27211 8026 8025 8024 ] final   82.41 input   -0.00 | X-H torsion
[ 27214 8105 8104 8103 ] final   91.06 input    0.00 | X-H torsion
[ 27217 8167 8166 8165 ] final   -9.09 input    0.00 | X-H torsion
[ 27222 10096 10095 10094 ] final  -64.35 input   -0.00 | X-H torsion
[ 27225 10186 10185 10184 ] final -120.87 input    0.00 | X-H torsion
[ 27228 7941 7940 7939 ] final  101.00 input    0.00 | X-H torsion
[ 27230 7733 7732 7731 ] final   38.81 input   -0.00 | X-H torsion
[ 27232 7816 7815 7814 ] final -135.85 input   -0.00 | X-H torsion

> <Gold.Protein.ActiveResidues>
 ASP403  THR404  LEU406  ILE407  TYR408  ALA410  LYS411  TRP414  GLN425  TRP426 
 SER427  LYS428  LEU429  GLN430  VAL431  PHE432  ASP433  TYR453  SER462  ALA463 
 ILE464 

> <Gold.Protein.RotatedAtoms>
  241.0211   -7.3219   50.1801 H   0  0  0  0  0  0  0  0  0  0  0  0  # atno 6612 bound_to 6571
  240.5646   -7.9273   47.5024 H   0  0  0  0  0  0  0  0  0  0  0  0  # atno 6698 bound_to 6659
  241.3760   -5.0739   45.2195 H   0  0  0  0  0  0  0  0  0  0  0  0  # atno 6850 bound_to 6802
  240.3712   -6.3857   38.2013 H   0  0  0  0  0  0  0  0  0  0  0  0  # atno 7906 bound_to 7885
  240.1178   -8.8668   36.1946 H   0  0  0  0  0  0  0  0  0  0  0  0  # atno 7910 bound_to 7890
  242.5289   -7.9239   38.5606 H   0  0  0  0  0  0  0  0  0  0  0  0  # atno 7986 bound_to 7938
  245.2255   -8.2818   38.9244 H   0  0  0  0  0  0  0  0  0  0  0  0  # atno 8064 bound_to 8023
  247.2816   -7.1621   42.0943 H   0  0  0  0  0  0  0  0  0  0  0  0  # atno 8135 bound_to 8102
  248.0042   -9.0567   45.4298 H   0  0  0  0  0  0  0  0  0  0  0  0  # atno 8198 bound_to 8164
  249.4495   -7.3819   47.1936 H   0  0  0  0  0  0  0  0  0  0  0  0  # atno 8278 bound_to 8240
  249.3808   -7.2823   50.4121 H   0  0  0  0  0  0  0  0  0  0  0  0  # atno 8331 bound_to 8311
  251.2301  -10.2475   40.0947 H   0  0  0  0  0  0  0  0  0  0  0  0  # atno 9578 bound_to 9542
  249.0547   -3.3500   43.1231 H   0  0  0  0  0  0  0  0  0  0  0  0  # atno 10224 bound_to 10183
  243.0367   -9.5025   51.7886 LP  0  0  0  0  0  0  0  0  0  0  0  0  # atno 27200 bound_to 6334
  241.4128   -9.7084   51.2221 LP  0  0  0  0  0  0  0  0  0  0  0  0  # atno 27201 bound_to 6334
  242.4050   -4.8032   49.6233 LP  0  0  0  0  0  0  0  0  0  0  0  0  # atno 27202 bound_to 6498
  240.9015   -5.3330   48.9461 LP  0  0  0  0  0  0  0  0  0  0  0  0  # atno 27203 bound_to 6498
  242.6566   -7.8444   50.5201 LP  0  0  0  0  0  0  0  0  0  0  0  0  # atno 27204 bound_to 6571
  240.4769   -6.0555   46.4661 LP  0  0  0  0  0  0  0  0  0  0  0  0  # atno 27205 bound_to 6574
  241.7262   -7.1207   45.9140 LP  0  0  0  0  0  0  0  0  0  0  0  0  # atno 27206 bound_to 6574
  239.6540   -8.3351   48.9397 LP  0  0  0  0  0  0  0  0  0  0  0  0  # atno 27207 bound_to 6659
  242.5326  -10.8707   39.1988 LP  0  0  0  0  0  0  0  0  0  0  0  0  # atno 27208 bound_to 7888
  241.6628   -9.9897   40.4102 LP  0  0  0  0  0  0  0  0  0  0  0  0  # atno 27209 bound_to 7888
  244.4482   -8.8747   40.3758 LP  0  0  0  0  0  0  0  0  0  0  0  0  # atno 27210 bound_to 8023
  245.6795   -9.6432   42.4902 LP  0  0  0  0  0  0  0  0  0  0  0  0  # atno 27211 bound_to 8026
  245.7058   -8.2968   43.5795 LP  0  0  0  0  0  0  0  0  0  0  0  0  # atno 27212 bound_to 8026
  248.0226   -8.3127   41.0091 LP  0  0  0  0  0  0  0  0  0  0  0  0  # atno 27213 bound_to 8102
  248.2678   -5.6687   43.8634 LP  0  0  0  0  0  0  0  0  0  0  0  0  # atno 27214 bound_to 8105
  249.8650   -6.1309   44.3486 LP  0  0  0  0  0  0  0  0  0  0  0  0  # atno 27215 bound_to 8105
  248.2140   -7.6310   44.4411 LP  0  0  0  0  0  0  0  0  0  0  0  0  # atno 27216 bound_to 8164
  248.0201   -9.2600   47.9763 LP  0  0  0  0  0  0  0  0  0  0  0  0  # atno 27217 bound_to 8167
  249.5434   -8.8903   48.7129 LP  0  0  0  0  0  0  0  0  0  0  0  0  # atno 27218 bound_to 8167
  249.2655   -5.7163   47.6846 LP  0  0  0  0  0  0  0  0  0  0  0  0  # atno 27219 bound_to 8240
  251.4708  -11.3923   41.2256 LP  0  0  0  0  0  0  0  0  0  0  0  0  # atno 27220 bound_to 9542
  252.1479  -11.5454   39.7475 LP  0  0  0  0  0  0  0  0  0  0  0  0  # atno 27221 bound_to 9542
  248.7103   -6.7999   39.8729 LP  0  0  0  0  0  0  0  0  0  0  0  0  # atno 27222 bound_to 10096
  250.3699   -6.8325   40.3676 LP  0  0  0  0  0  0  0  0  0  0  0  0  # atno 27223 bound_to 10096
  251.0267   -7.2887   50.9976 LP  0  0  0  0  0  0  0  0  0  0  0  0  # atno 27224 bound_to 8311
  249.6879   -4.5142   47.4478 LP  0  0  0  0  0  0  0  0  0  0  0  0  # atno 27225 bound_to 10186
  250.5653   -4.7960   45.9812 LP  0  0  0  0  0  0  0  0  0  0  0  0  # atno 27226 bound_to 10186
  242.1207   -8.9784   37.2295 LP  0  0  0  0  0  0  0  0  0  0  0  0  # atno 27227 bound_to 7938
  245.3873   -6.4429   37.8837 LP  0  0  0  0  0  0  0  0  0  0  0  0  # atno 27228 bound_to 7941
  246.5371   -7.6715   37.4733 LP  0  0  0  0  0  0  0  0  0  0  0  0  # atno 27229 bound_to 7941
  243.8768   -6.3408   36.1070 LP  0  0  0  0  0  0  0  0  0  0  0  0  # atno 27230 bound_to 7733
  242.4866   -6.9433   36.9464 LP  0  0  0  0  0  0  0  0  0  0  0  0  # atno 27231 bound_to 7733
  241.8750   -6.7622   39.7925 LP  0  0  0  0  0  0  0  0  0  0  0  0  # atno 27232 bound_to 7816
  240.9464   -5.3176   40.0181 LP  0  0  0  0  0  0  0  0  0  0  0  0  # atno 27233 bound_to 7816
  240.5375   -7.3219   36.7358 LP  0  0  0  0  0  0  0  0  0  0  0  0  # atno 27234 bound_to 7885

> <Gold.Score>
     Fitness  S(hb_ext) S(vdw_ext)  S(hb_int)    S(int)      intcor
     21.63       3.72      14.00       0.00      -1.34      -0.78

> <Gold.Goldscore.Fitness>
21.6324

> <Gold.Goldscore.Internal.Vdw>
-1.6472

> <Gold.Goldscore.Internal.Torsion>
-0.4703

> <Gold.Goldscore.External.Vdw>
14.0032

> <Gold.Goldscore.Internal.HBond>
0.0000

> <Gold.Goldscore.External.HBond>
3.7202

> <Gold.Goldscore.Internal.Correction>
-0.7752

> <Gold.Goldscore.Hbonds>
donor molecule, donor type, donor heavy atom, donor atom, acceptor molecule, acceptor atom, score
      L1  H    10    23       P1  8102  0.62

> <Gold.Goldscore.Internal.Vdw.Weighted>
-1.6472

> <Gold.Goldscore.Internal.Torsion.Weighted>
-0.4703

> <Gold.Goldscore.External.Vdw.Weighted>
19.2544

> <Gold.Goldscore.Internal.HBond.Weighted>
0.0000

> <Gold.Goldscore.External.HBond.Weighted>
3.7202

> <Gold.Goldscore.Internal.Correction.Weighted>
-0.7752

> <Gold.Rescore>
     Score     S(PLP)   S(hbond)     S(cho)   S(metal)  DE(clash)   DE(tors)     intcor
     16.53     -13.94       0.92       0.00       0.00       0.00       0.08       ----

> <Gold.PLP.Fitness>
16.5343

> <Gold.PLP.PLP>
-13.9385

> <Gold.PLP.part.hbond>
-2.1062

> <Gold.PLP.part.metal>
0.0000

> <Gold.PLP.part.buried>
-3.2743

> <Gold.PLP.part.nonpolar>
-10.1675

> <Gold.PLP.part.repulsive>
1.6632

> <Gold.PLP.ligand.clash>
0.0000

> <Gold.PLP.ligand.torsion>
0.0762

> <Gold.PLP.Chemscore.Hbond>
0.9161

> <Gold.PLP.Chemscore.CHOScore>
0.0000

> <Gold.PLP.Chemscore.Metal>
0.0000

> <Gold.Chemscore.Hbonds>
donor molecule, donor type, donor heavy atom, donor atom, acceptor molecule, acceptor atom, score
      L1  H    10    23       P1  8102  0.75

> <Gold.PLP.Chemscore.Internal.Correction>
   9.000000E+99

