#       Name:                CT1002167954
#       Creating user name   hitesit
#       Creation time:       Sun Apr 16 23:06:31 2023


#       File generated by GOLD software.
#

@<TRIPOS>MOLECULE
CT1002167954|ligand_prepared|mol2|1|dock9
    29    30     1
SMALL
NO_CHARGES


@<TRIPOS>ATOM
      1 C1         246.8956 -13.1780  44.7212 C.3            1 RES1               0.0000
      2 C2         247.7773 -13.0825  43.4593 C.ar           1 RES1               0.0000
      3 C3         247.5162 -12.2371  45.7497 C.2            1 RES1               0.0000
      4 C4         245.4875 -12.7851  44.2884 C.2            1 RES1               0.0000
      5 C5         246.8294 -14.5976  45.3311 C.3            1 RES1               0.0000
      6 C6         247.5323 -12.1088  42.4957 C.ar           1 RES1               0.0000
      7 C7         248.8390 -13.9578  43.2466 C.ar           1 RES1               0.0000
      8 N8         246.8712 -11.0620  46.0012 N.am           1 RES1               0.0000
      9 O9         248.5761 -12.5041  46.3025 O.2            1 RES1               0.0000
     10 N10        244.9539 -11.6344  44.8069 N.am           1 RES1               0.0000
     11 O11        244.8415 -13.4529  43.4902 O.2            1 RES1               0.0000
     12 C12        245.7423 -14.7636  46.3813 C.3            1 RES1               0.0000
     13 C13        248.3219 -12.0116  41.3619 C.ar           1 RES1               0.0000
     14 C14        249.6273 -13.8590  42.1119 C.ar           1 RES1               0.0000
     15 C15        245.5938 -10.7389  45.6199 C.2            1 RES1               0.0000
     16 C16        249.3700 -12.8862  41.1695 C.ar           1 RES1               0.0000
     17 O17        245.0660  -9.6982  46.0014 O.2            1 RES1               0.0000
     18 H18        246.6548 -15.3206  44.5248 H              1 RES1               0.0000
     19 H19        247.7993 -14.8316  45.7871 H              1 RES1               0.0000
     20 H20        246.7104 -11.4132  42.6288 H              1 RES1               0.0000
     21 H21        249.0593 -14.7317  43.9741 H              1 RES1               0.0000
     22 H22        247.3865 -10.3585  46.5206 H              1 RES1               0.0000
     23 H23        243.9905 -11.4261  44.5645 H              1 RES1               0.0000
     24 H24        245.7394 -15.7772  46.7766 H              1 RES1               0.0000
     25 H25        245.8989 -14.0769  47.2105 H              1 RES1               0.0000
     26 H26        244.7612 -14.5630  45.9557 H              1 RES1               0.0000
     27 H27        248.1144 -11.2451  40.6226 H              1 RES1               0.0000
     28 H28        250.4507 -14.5499  41.9643 H              1 RES1               0.0000
     29 H29        249.9886 -12.8096  40.2814 H              1 RES1               0.0000
@<TRIPOS>BOND
    1    1    2 1     
    2    1    3 1     
    3    1    4 1     
    4    1    5 1     
    5    2    6 ar    
    6    2    7 ar    
    7    3    8 1     
    8    3    9 2     
    9    4   10 1     
   10    4   11 2     
   11    5   12 1     
   12    5   18 1     
   13    5   19 1     
   14    6   13 ar    
   15    6   20 1     
   16    7   14 ar    
   17    7   21 1     
   18    8   15 1     
   19    8   22 1     
   20   10   15 1     
   21   10   23 1     
   22   12   24 1     
   23   12   25 1     
   24   12   26 1     
   25   13   16 ar    
   26   13   27 1     
   27   14   16 ar    
   28   14   28 1     
   29   15   17 2     
   30   16   29 1     
@<TRIPOS>SUBSTRUCTURE
      1 RES1           1
@<TRIPOS>SET
DONOR_HYDROGENS      STATIC     ATOMS    <user>   **** ""
2 22 23
ATOM$RED        STATIC     ATOMS    COLORGROUP SYSTEM
2 22 23
@<TRIPOS>COMMENT
> <Gold.Version>
2022.3.0

> <Gold.Id.Protein>
unknown|4v3u_clean|pdb

> <Gold.Protein.RotatedTorsions>
[ 6612 6571 6572 6573 ] final  130.96 input  122.18 | X-H torsion
[ 6698 6659 6660 6661 ] final   59.30 input  126.07 | X-H torsion
[ 8064 8023 8024 8025 ] final  163.11 input   40.84 | X-H torsion
[ 8135 8102 8103 8104 ] final -142.32 input  100.47 | X-H torsion
[ 8198 8164 8165 8166 ] final  109.62 input   73.50 | X-H torsion
[ 8278 8240 8241 8242 ] final -106.25 input   88.79 | X-H torsion
[ 9578 9542 9541 9539 ] final   57.98 input   60.02 | X-H torsion
[ 8331 8311 8312 8313 ] final  -34.48 input   92.25 | X-H torsion
[ 7986 7938 7939 7940 ] final  -37.08 input   70.73 | X-H torsion
[ 7906 7885 7886 7887 ] final   36.68 input  102.20 | X-H torsion
[ 6850 6802 6803 6804 ] final  -55.71 input  120.36 | X-H torsion
[ 10224 10183 10184 10185 ] final   10.09 input   40.62 | X-H torsion
[ 7910 7890 7889 7886 ] final  -72.59 input   60.02 | X-H torsion
[ 27200 6334 6333 6332 ] final  -57.66 input    0.00 | X-H torsion
[ 27202 6498 6497 6496 ] final  157.04 input   -0.00 | X-H torsion
[ 27205 6574 6573 6572 ] final  143.67 input   -0.00 | X-H torsion
[ 27208 7888 7887 7886 ] final -159.00 input    0.00 | X-H torsion
[ 27211 8026 8025 8024 ] final -171.37 input   -0.00 | X-H torsion
[ 27214 8105 8104 8103 ] final  -15.30 input    0.00 | X-H torsion
[ 27217 8167 8166 8165 ] final  178.91 input    0.00 | X-H torsion
[ 27222 10096 10095 10094 ] final  131.96 input   -0.00 | X-H torsion
[ 27225 10186 10185 10184 ] final   -9.68 input    0.00 | X-H torsion
[ 27228 7941 7940 7939 ] final   60.20 input    0.00 | X-H torsion
[ 27230 7733 7732 7731 ] final -153.66 input   -0.00 | X-H torsion
[ 27232 7816 7815 7814 ] final  175.76 input   -0.00 | X-H torsion

> <Gold.Protein.ActiveResidues>
 ASP403  THR404  LEU406  ILE407  TYR408  ALA410  LYS411  TRP414  GLN425  TRP426 
 SER427  LYS428  LEU429  GLN430  VAL431  PHE432  ASP433  TYR453  SER462  ALA463 
 ILE464 

> <Gold.Protein.RotatedAtoms>
  242.1022   -8.4181   50.5518 H   0  0  0  0  0  0  0  0  0  0  0  0  # atno 6612 bound_to 6571
  239.8461   -7.6754   48.9478 H   0  0  0  0  0  0  0  0  0  0  0  0  # atno 6698 bound_to 6659
  241.0030   -3.4398   45.0367 H   0  0  0  0  0  0  0  0  0  0  0  0  # atno 6850 bound_to 6802
  241.0771   -7.2040   36.9382 H   0  0  0  0  0  0  0  0  0  0  0  0  # atno 7906 bound_to 7885
  238.8815   -8.6042   36.2742 H   0  0  0  0  0  0  0  0  0  0  0  0  # atno 7910 bound_to 7890
  242.4536   -8.0967   38.6829 H   0  0  0  0  0  0  0  0  0  0  0  0  # atno 7986 bound_to 7938
  244.3951   -7.8945   39.3065 H   0  0  0  0  0  0  0  0  0  0  0  0  # atno 8064 bound_to 8023
  247.3864   -8.5516   41.3181 H   0  0  0  0  0  0  0  0  0  0  0  0  # atno 8135 bound_to 8102
  247.3736   -8.7933   45.1011 H   0  0  0  0  0  0  0  0  0  0  0  0  # atno 8198 bound_to 8164
  249.1646   -7.4011   47.4629 H   0  0  0  0  0  0  0  0  0  0  0  0  # atno 8278 bound_to 8240
  250.8531   -6.6795   50.7477 H   0  0  0  0  0  0  0  0  0  0  0  0  # atno 8331 bound_to 8311
  251.5644  -11.5095   41.1744 H   0  0  0  0  0  0  0  0  0  0  0  0  # atno 9578 bound_to 9542
  249.9077   -4.3843   44.2820 H   0  0  0  0  0  0  0  0  0  0  0  0  # atno 10224 bound_to 10183
  242.1084   -8.9512   52.0607 LP  0  0  0  0  0  0  0  0  0  0  0  0  # atno 27200 bound_to 6334
  242.3411  -10.2597   50.9500 LP  0  0  0  0  0  0  0  0  0  0  0  0  # atno 27201 bound_to 6334
  242.1515   -5.4830   48.7107 LP  0  0  0  0  0  0  0  0  0  0  0  0  # atno 27202 bound_to 6498
  241.1550   -4.6531   49.8587 LP  0  0  0  0  0  0  0  0  0  0  0  0  # atno 27203 bound_to 6498
  241.6111   -6.7843   50.1606 LP  0  0  0  0  0  0  0  0  0  0  0  0  # atno 27204 bound_to 6571
  240.4694   -7.0215   45.7869 LP  0  0  0  0  0  0  0  0  0  0  0  0  # atno 27205 bound_to 6574
  241.7336   -6.1546   46.5933 LP  0  0  0  0  0  0  0  0  0  0  0  0  # atno 27206 bound_to 6574
  240.3511   -8.5795   47.5375 LP  0  0  0  0  0  0  0  0  0  0  0  0  # atno 27207 bound_to 6659
  242.9447  -10.2499   39.8022 LP  0  0  0  0  0  0  0  0  0  0  0  0  # atno 27208 bound_to 7888
  241.2507  -10.6105   39.8068 LP  0  0  0  0  0  0  0  0  0  0  0  0  # atno 27209 bound_to 7888
  245.2529   -9.2501   40.0055 LP  0  0  0  0  0  0  0  0  0  0  0  0  # atno 27210 bound_to 8023
  246.4051   -9.0637   43.5182 LP  0  0  0  0  0  0  0  0  0  0  0  0  # atno 27211 bound_to 8026
  244.9802   -8.8763   42.5516 LP  0  0  0  0  0  0  0  0  0  0  0  0  # atno 27212 bound_to 8026
  247.9199   -6.9509   41.7698 LP  0  0  0  0  0  0  0  0  0  0  0  0  # atno 27213 bound_to 8102
  249.4976   -6.0876   43.3788 LP  0  0  0  0  0  0  0  0  0  0  0  0  # atno 27214 bound_to 8105
  248.6353   -5.7120   44.8333 LP  0  0  0  0  0  0  0  0  0  0  0  0  # atno 27215 bound_to 8105
  248.8296   -7.8881   44.7621 LP  0  0  0  0  0  0  0  0  0  0  0  0  # atno 27216 bound_to 8164
  249.4787   -8.8431   48.8033 LP  0  0  0  0  0  0  0  0  0  0  0  0  # atno 27217 bound_to 8167
  248.0848   -9.3072   47.8859 LP  0  0  0  0  0  0  0  0  0  0  0  0  # atno 27218 bound_to 8167
  249.5450   -5.6975   47.4205 LP  0  0  0  0  0  0  0  0  0  0  0  0  # atno 27219 bound_to 8240
  252.1166  -11.4269   39.6462 LP  0  0  0  0  0  0  0  0  0  0  0  0  # atno 27220 bound_to 9542
  251.1654  -10.2394   40.2391 LP  0  0  0  0  0  0  0  0  0  0  0  0  # atno 27221 bound_to 9542
  250.2718   -6.7563   40.5796 LP  0  0  0  0  0  0  0  0  0  0  0  0  # atno 27222 bound_to 10096
  248.8084   -6.8761   39.6609 LP  0  0  0  0  0  0  0  0  0  0  0  0  # atno 27223 bound_to 10096
  249.5852   -7.8788   50.6690 LP  0  0  0  0  0  0  0  0  0  0  0  0  # atno 27224 bound_to 8311
  249.5903   -4.8320   46.0579 LP  0  0  0  0  0  0  0  0  0  0  0  0  # atno 27225 bound_to 10186
  250.6628   -4.4783   47.3711 LP  0  0  0  0  0  0  0  0  0  0  0  0  # atno 27226 bound_to 10186
  242.1944   -8.8092   37.1096 LP  0  0  0  0  0  0  0  0  0  0  0  0  # atno 27227 bound_to 7938
  245.2230   -6.7233   37.3750 LP  0  0  0  0  0  0  0  0  0  0  0  0  # atno 27228 bound_to 7941
  246.7013   -7.3910   37.9821 LP  0  0  0  0  0  0  0  0  0  0  0  0  # atno 27229 bound_to 7941
  242.5144   -6.7940   37.0573 LP  0  0  0  0  0  0  0  0  0  0  0  0  # atno 27230 bound_to 7733
  243.8490   -6.4902   35.9960 LP  0  0  0  0  0  0  0  0  0  0  0  0  # atno 27231 bound_to 7733
  241.2126   -6.8749   40.0213 LP  0  0  0  0  0  0  0  0  0  0  0  0  # atno 27232 bound_to 7816
  241.6089   -5.2049   39.7893 LP  0  0  0  0  0  0  0  0  0  0  0  0  # atno 27233 bound_to 7816
  239.8463   -6.5207   37.9725 LP  0  0  0  0  0  0  0  0  0  0  0  0  # atno 27234 bound_to 7885

> <Gold.Score>
     Fitness  S(hb_ext) S(vdw_ext)  S(hb_int)    S(int)      intcor
     22.34       1.23      15.58       0.00      -0.31      -0.78

> <Gold.Goldscore.Fitness>
22.3424

> <Gold.Goldscore.Internal.Vdw>
-0.4850

> <Gold.Goldscore.Internal.Torsion>
-0.6030

> <Gold.Goldscore.External.Vdw>
15.5800

> <Gold.Goldscore.Internal.HBond>
0.0000

> <Gold.Goldscore.External.HBond>
1.2326

> <Gold.Goldscore.Internal.Correction>
-0.7752

> <Gold.Goldscore.Hbonds>
donor molecule, donor type, donor heavy atom, donor atom, acceptor molecule, acceptor atom, score
      P1  H  8109  8141       L1     9  0.03
      P1  H  8164  8198       L1    17  0.02
      L1  H     8    22       P1  8167  0.57

> <Gold.Goldscore.Internal.Vdw.Weighted>
-0.4850

> <Gold.Goldscore.Internal.Torsion.Weighted>
-0.6030

> <Gold.Goldscore.External.Vdw.Weighted>
21.4225

> <Gold.Goldscore.Internal.HBond.Weighted>
0.0000

> <Gold.Goldscore.External.HBond.Weighted>
1.2326

> <Gold.Goldscore.Internal.Correction.Weighted>
-0.7752

> <Gold.Rescore>
     Score     S(PLP)   S(hbond)     S(cho)   S(metal)  DE(clash)   DE(tors)     intcor
     13.73     -10.32       2.00       0.00       0.00       0.74       0.93       ----

> <Gold.PLP.Fitness>
13.7333

> <Gold.PLP.PLP>
-10.3237

> <Gold.PLP.part.hbond>
-2.0339

> <Gold.PLP.part.metal>
0.0000

> <Gold.PLP.part.buried>
-2.6891

> <Gold.PLP.part.nonpolar>
-7.0831

> <Gold.PLP.part.repulsive>
0.7932

> <Gold.PLP.ligand.clash>
0.7400

> <Gold.PLP.ligand.torsion>
0.9252

> <Gold.PLP.Chemscore.Hbond>
2.0000

> <Gold.PLP.Chemscore.CHOScore>
0.0000

> <Gold.PLP.Chemscore.Metal>
0.0000

> <Gold.Chemscore.Hbonds>
donor molecule, donor type, donor heavy atom, donor atom, acceptor molecule, acceptor atom, score
      P1  H  8109  8141       L1     9  0.70

> <Gold.PLP.Chemscore.Internal.Correction>
   9.000000E+99

