#       Name:                CT1002167954
#       Creating user name   hitesit
#       Creation time:       Sun Apr 16 23:06:29 2023


#       File generated by GOLD software.
#

@<TRIPOS>MOLECULE
CT1002167954|ligand_prepared|mol2|1|dock5
    29    30     1
SMALL
NO_CHARGES


@<TRIPOS>ATOM
      1 C1         245.1852 -13.3599  40.8958 C.3            1 RES1               0.0000
      2 C2         243.7508 -13.4185  40.3321 C.ar           1 RES1               0.0000
      3 C3         246.1208 -13.3961  39.6909 C.2            1 RES1               0.0000
      4 C4         245.2709 -12.0746  41.7115 C.2            1 RES1               0.0000
      5 C5         245.5390 -14.5419  41.8281 C.3            1 RES1               0.0000
      6 C6         242.7687 -14.1698  40.9707 C.ar           1 RES1               0.0000
      7 C7         243.3945 -12.7257  39.1781 C.ar           1 RES1               0.0000
      8 N8         246.7492 -12.2366  39.3438 N.am           1 RES1               0.0000
      9 O9         246.2742 -14.4168  39.0315 O.2            1 RES1               0.0000
     10 N10        246.1121 -11.0878  41.2684 N.am           1 RES1               0.0000
     11 O11        244.6050 -11.9009  42.7248 O.2            1 RES1               0.0000
     12 C12        247.0089 -14.6006  42.2129 C.3            1 RES1               0.0000
     13 C13        241.4764 -14.2242  40.4753 C.ar           1 RES1               0.0000
     14 C14        242.1016 -12.7817  38.6843 C.ar           1 RES1               0.0000
     15 C15        246.8320 -11.0983  40.1049 C.2            1 RES1               0.0000
     16 C16        241.1419 -13.5300  39.3322 C.ar           1 RES1               0.0000
     17 O17        247.5243 -10.1496  39.7473 O.2            1 RES1               0.0000
     18 H18        244.9376 -14.4629  42.7421 H              1 RES1               0.0000
     19 H19        245.2673 -15.4797  41.3279 H              1 RES1               0.0000
     20 H20        243.0139 -14.7247  41.8701 H              1 RES1               0.0000
     21 H21        244.1333 -12.1315  38.6512 H              1 RES1               0.0000
     22 H22        247.1991 -12.2136  38.4342 H              1 RES1               0.0000
     23 H23        246.2109 -10.2696  41.8610 H              1 RES1               0.0000
     24 H24        247.2027 -15.4479  42.8673 H              1 RES1               0.0000
     25 H25        247.6351 -14.7046  41.3293 H              1 RES1               0.0000
     26 H26        247.3074 -13.6939  42.7351 H              1 RES1               0.0000
     27 H27        240.7251 -14.8157  40.9881 H              1 RES1               0.0000
     28 H28        241.8430 -12.2342  37.7839 H              1 RES1               0.0000
     29 H29        240.1294 -13.5725  38.9445 H              1 RES1               0.0000
@<TRIPOS>BOND
    1    1    2 1     
    2    1    3 1     
    3    1    4 1     
    4    1    5 1     
    5    2    6 ar    
    6    2    7 ar    
    7    3    8 1     
    8    3    9 2     
    9    4   10 1     
   10    4   11 2     
   11    5   12 1     
   12    5   18 1     
   13    5   19 1     
   14    6   13 ar    
   15    6   20 1     
   16    7   14 ar    
   17    7   21 1     
   18    8   15 1     
   19    8   22 1     
   20   10   15 1     
   21   10   23 1     
   22   12   24 1     
   23   12   25 1     
   24   12   26 1     
   25   13   16 ar    
   26   13   27 1     
   27   14   16 ar    
   28   14   28 1     
   29   15   17 2     
   30   16   29 1     
@<TRIPOS>SUBSTRUCTURE
      1 RES1           1
@<TRIPOS>SET
DONOR_HYDROGENS      STATIC     ATOMS    <user>   **** ""
2 22 23
ATOM$RED        STATIC     ATOMS    COLORGROUP SYSTEM
2 22 23
@<TRIPOS>COMMENT
> <Gold.Version>
2022.3.0

> <Gold.Id.Protein>
unknown|4v3u_clean|pdb

> <Gold.Protein.RotatedTorsions>
[ 6612 6571 6572 6573 ] final -112.58 input  122.18 | X-H torsion
[ 6698 6659 6660 6661 ] final   15.93 input  126.07 | X-H torsion
[ 8064 8023 8024 8025 ] final  -34.10 input   40.84 | X-H torsion
[ 8135 8102 8103 8104 ] final  179.12 input  100.47 | X-H torsion
[ 8198 8164 8165 8166 ] final -136.11 input   73.50 | X-H torsion
[ 8278 8240 8241 8242 ] final   59.08 input   88.79 | X-H torsion
[ 9578 9542 9541 9539 ] final  -41.38 input   60.02 | X-H torsion
[ 8331 8311 8312 8313 ] final   70.06 input   92.25 | X-H torsion
[ 7986 7938 7939 7940 ] final   14.84 input   70.73 | X-H torsion
[ 7906 7885 7886 7887 ] final -100.50 input  102.20 | X-H torsion
[ 6850 6802 6803 6804 ] final  -39.47 input  120.36 | X-H torsion
[ 10224 10183 10184 10185 ] final  120.42 input   40.62 | X-H torsion
[ 7910 7890 7889 7886 ] final  165.61 input   60.02 | X-H torsion
[ 27200 6334 6333 6332 ] final  -53.74 input    0.00 | X-H torsion
[ 27202 6498 6497 6496 ] final  -41.54 input   -0.00 | X-H torsion
[ 27205 6574 6573 6572 ] final    6.47 input   -0.00 | X-H torsion
[ 27208 7888 7887 7886 ] final  141.39 input    0.00 | X-H torsion
[ 27211 8026 8025 8024 ] final  -79.49 input   -0.00 | X-H torsion
[ 27214 8105 8104 8103 ] final -111.65 input    0.00 | X-H torsion
[ 27217 8167 8166 8165 ] final   -7.36 input    0.00 | X-H torsion
[ 27222 10096 10095 10094 ] final    4.71 input   -0.00 | X-H torsion
[ 27225 10186 10185 10184 ] final -112.51 input    0.00 | X-H torsion
[ 27228 7941 7940 7939 ] final  118.74 input    0.00 | X-H torsion
[ 27230 7733 7732 7731 ] final  103.12 input   -0.00 | X-H torsion
[ 27232 7816 7815 7814 ] final -110.64 input   -0.00 | X-H torsion

> <Gold.Protein.ActiveResidues>
 ASP403  THR404  LEU406  ILE407  TYR408  ALA410  LYS411  TRP414  GLN425  TRP426 
 SER427  LYS428  LEU429  GLN430  VAL431  PHE432  ASP433  TYR453  SER462  ALA463 
 ILE464 

> <Gold.Protein.RotatedAtoms>
  242.5020   -6.9824   50.2917 H   0  0  0  0  0  0  0  0  0  0  0  0  # atno 6612 bound_to 6571
  240.1962   -7.3046   48.5345 H   0  0  0  0  0  0  0  0  0  0  0  0  # atno 6698 bound_to 6659
  240.7638   -3.4462   45.1060 H   0  0  0  0  0  0  0  0  0  0  0  0  # atno 6850 bound_to 6802
  240.4247   -6.3845   38.2046 H   0  0  0  0  0  0  0  0  0  0  0  0  # atno 7906 bound_to 7885
  238.9167  -10.2361   36.1524 H   0  0  0  0  0  0  0  0  0  0  0  0  # atno 7910 bound_to 7890
  242.6513   -7.6600   38.0773 H   0  0  0  0  0  0  0  0  0  0  0  0  # atno 7986 bound_to 7938
  245.4338   -9.2170   39.8163 H   0  0  0  0  0  0  0  0  0  0  0  0  # atno 8064 bound_to 8023
  247.8852   -8.4302   41.0428 H   0  0  0  0  0  0  0  0  0  0  0  0  # atno 8135 bound_to 8102
  247.9888   -7.6351   44.4032 H   0  0  0  0  0  0  0  0  0  0  0  0  # atno 8198 bound_to 8164
  249.3872   -5.6706   47.5765 H   0  0  0  0  0  0  0  0  0  0  0  0  # atno 8278 bound_to 8240
  250.5707   -8.0104   51.0620 H   0  0  0  0  0  0  0  0  0  0  0  0  # atno 8331 bound_to 8311
  252.1629  -11.6573   39.8874 H   0  0  0  0  0  0  0  0  0  0  0  0  # atno 9578 bound_to 9542
  248.7094   -3.8860   43.5884 H   0  0  0  0  0  0  0  0  0  0  0  0  # atno 10224 bound_to 10183
  242.1664   -8.9535   52.0724 LP  0  0  0  0  0  0  0  0  0  0  0  0  # atno 27200 bound_to 6334
  242.2831  -10.2574   50.9383 LP  0  0  0  0  0  0  0  0  0  0  0  0  # atno 27201 bound_to 6334
  240.9553   -4.7719   49.7033 LP  0  0  0  0  0  0  0  0  0  0  0  0  # atno 27202 bound_to 6498
  242.3512   -5.3642   48.8662 LP  0  0  0  0  0  0  0  0  0  0  0  0  # atno 27203 bound_to 6498
  241.2245   -8.1727   50.4121 LP  0  0  0  0  0  0  0  0  0  0  0  0  # atno 27204 bound_to 6571
  241.9605   -6.6534   46.2787 LP  0  0  0  0  0  0  0  0  0  0  0  0  # atno 27205 bound_to 6574
  240.2425   -6.5227   46.1015 LP  0  0  0  0  0  0  0  0  0  0  0  0  # atno 27206 bound_to 6574
  240.0115   -8.9392   47.9384 LP  0  0  0  0  0  0  0  0  0  0  0  0  # atno 27207 bound_to 6659
  242.6263  -10.8164   39.2376 LP  0  0  0  0  0  0  0  0  0  0  0  0  # atno 27208 bound_to 7888
  241.5691  -10.0440   40.3714 LP  0  0  0  0  0  0  0  0  0  0  0  0  # atno 27209 bound_to 7888
  244.2463   -7.9684   39.5114 LP  0  0  0  0  0  0  0  0  0  0  0  0  # atno 27210 bound_to 8023
  245.4759   -8.2389   43.4455 LP  0  0  0  0  0  0  0  0  0  0  0  0  # atno 27211 bound_to 8026
  245.9094   -9.7011   42.6243 LP  0  0  0  0  0  0  0  0  0  0  0  0  # atno 27212 bound_to 8026
  247.4310   -7.0698   42.0396 LP  0  0  0  0  0  0  0  0  0  0  0  0  # atno 27213 bound_to 8102
  249.7201   -6.0636   44.6499 LP  0  0  0  0  0  0  0  0  0  0  0  0  # atno 27214 bound_to 8105
  248.4127   -5.7360   43.5621 LP  0  0  0  0  0  0  0  0  0  0  0  0  # atno 27215 bound_to 8105
  248.2290   -9.0187   45.4434 LP  0  0  0  0  0  0  0  0  0  0  0  0  # atno 27216 bound_to 8164
  248.0328   -9.2705   47.9560 LP  0  0  0  0  0  0  0  0  0  0  0  0  # atno 27217 bound_to 8167
  249.5306   -8.8798   48.7332 LP  0  0  0  0  0  0  0  0  0  0  0  0  # atno 27218 bound_to 8167
  249.3266   -7.3950   47.3090 LP  0  0  0  0  0  0  0  0  0  0  0  0  # atno 27219 bound_to 8240
  251.3070  -10.2744   39.9345 LP  0  0  0  0  0  0  0  0  0  0  0  0  # atno 27220 bound_to 9542
  251.3720  -11.2430   41.2475 LP  0  0  0  0  0  0  0  0  0  0  0  0  # atno 27221 bound_to 9542
  249.4586   -7.0615   39.2937 LP  0  0  0  0  0  0  0  0  0  0  0  0  # atno 27222 bound_to 10096
  249.6216   -6.5708   40.9468 LP  0  0  0  0  0  0  0  0  0  0  0  0  # atno 27223 bound_to 10096
  249.8616   -6.5758   50.3612 LP  0  0  0  0  0  0  0  0  0  0  0  0  # atno 27224 bound_to 8311
  249.5841   -4.5354   47.3789 LP  0  0  0  0  0  0  0  0  0  0  0  0  # atno 27225 bound_to 10186
  250.6690   -4.7749   46.0501 LP  0  0  0  0  0  0  0  0  0  0  0  0  # atno 27226 bound_to 10186
  242.0007   -9.2370   37.7031 LP  0  0  0  0  0  0  0  0  0  0  0  0  # atno 27227 bound_to 7938
  245.5564   -6.4109   38.0880 LP  0  0  0  0  0  0  0  0  0  0  0  0  # atno 27228 bound_to 7941
  246.3679   -7.7035   37.2690 LP  0  0  0  0  0  0  0  0  0  0  0  0  # atno 27229 bound_to 7941
  243.5303   -5.9179   36.8493 LP  0  0  0  0  0  0  0  0  0  0  0  0  # atno 27230 bound_to 7733
  242.8332   -7.3663   36.2041 LP  0  0  0  0  0  0  0  0  0  0  0  0  # atno 27231 bound_to 7733
  242.1193   -6.4911   39.6945 LP  0  0  0  0  0  0  0  0  0  0  0  0  # atno 27232 bound_to 7816
  240.7022   -5.5888   40.1161 LP  0  0  0  0  0  0  0  0  0  0  0  0  # atno 27233 bound_to 7816
  240.4851   -7.3231   36.7325 LP  0  0  0  0  0  0  0  0  0  0  0  0  # atno 27234 bound_to 7885

> <Gold.Score>
     Fitness  S(hb_ext) S(vdw_ext)  S(hb_int)    S(int)      intcor
     19.75       3.08      12.64       0.00      -0.72      -0.78

> <Gold.Goldscore.Fitness>
19.7492

> <Gold.Goldscore.Internal.Vdw>
-1.0056

> <Gold.Goldscore.Internal.Torsion>
-0.4957

> <Gold.Goldscore.External.Vdw>
12.6419

> <Gold.Goldscore.Internal.HBond>
0.0000

> <Gold.Goldscore.External.HBond>
3.0839

> <Gold.Goldscore.Internal.Correction>
-0.7838

> <Gold.Goldscore.Hbonds>
donor molecule, donor type, donor heavy atom, donor atom, acceptor molecule, acceptor atom, score
      P1  H  8023  8064       L1    17  0.02
      P1  H  8102  8135       L1    17  0.55
      L1  H    10    23       P1  8026  0.98

> <Gold.Goldscore.Internal.Vdw.Weighted>
-1.0056

> <Gold.Goldscore.Internal.Torsion.Weighted>
-0.4957

> <Gold.Goldscore.External.Vdw.Weighted>
17.3827

> <Gold.Goldscore.Internal.HBond.Weighted>
0.0000

> <Gold.Goldscore.External.HBond.Weighted>
3.0839

> <Gold.Goldscore.Internal.Correction.Weighted>
-0.7838

> <Gold.Rescore>
     Score     S(PLP)   S(hbond)     S(cho)   S(metal)  DE(clash)   DE(tors)     intcor
     20.47     -12.30       2.99       0.00       0.00       0.00       0.39       ----

> <Gold.PLP.Fitness>
20.4733

> <Gold.PLP.PLP>
-12.3005

> <Gold.PLP.part.hbond>
-4.0611

> <Gold.PLP.part.metal>
0.0000

> <Gold.PLP.part.buried>
-0.3262

> <Gold.PLP.part.nonpolar>
-8.4875

> <Gold.PLP.part.repulsive>
0.3508

> <Gold.PLP.ligand.clash>
0.0000

> <Gold.PLP.ligand.torsion>
0.3915

> <Gold.PLP.Chemscore.Hbond>
2.9853

> <Gold.PLP.Chemscore.CHOScore>
0.0000

> <Gold.PLP.Chemscore.Metal>
0.0000

> <Gold.Chemscore.Hbonds>
donor molecule, donor type, donor heavy atom, donor atom, acceptor molecule, acceptor atom, score
      L1  H    10    23       P1  8026  0.70
      P1  H  6810  6861       L1    11  0.70
      P1  H  8102  8135       L1    17  0.80

> <Gold.PLP.Chemscore.Internal.Correction>
   9.000000E+99

