#       Name:                CT1002167954
#       Creating user name   hitesit
#       Creation time:       Sun Apr 16 23:06:32 2023


#       File generated by GOLD software.
#

@<TRIPOS>MOLECULE
CT1002167954|ligand_prepared|mol2|1|dock10
    29    30     1
SMALL
NO_CHARGES


@<TRIPOS>ATOM
      1 C1         246.1774 -13.7174  45.3046 C.3            1 RES1               0.0000
      2 C2         245.7144 -14.3115  46.6505 C.ar           1 RES1               0.0000
      3 C3         244.9760 -12.9739  44.7285 C.2            1 RES1               0.0000
      4 C4         247.3699 -12.8216  45.6215 C.2            1 RES1               0.0000
      5 C5         246.6367 -14.7789  44.2781 C.3            1 RES1               0.0000
      6 C6         244.9642 -15.4831  46.6872 C.ar           1 RES1               0.0000
      7 C7         246.0313 -13.7019  47.8615 C.ar           1 RES1               0.0000
      8 N8         245.0002 -11.6108  44.7636 N.am           1 RES1               0.0000
      9 O9         244.0047 -13.5749  44.2860 O.2            1 RES1               0.0000
     10 N10        247.2332 -11.4738  45.4154 N.am           1 RES1               0.0000
     11 O11        248.4210 -13.2690  46.0634 O.2            1 RES1               0.0000
     12 C12        247.3514 -14.1944  43.0698 C.3            1 RES1               0.0000
     13 C13        244.5484 -16.0273  47.8911 C.ar           1 RES1               0.0000
     14 C14        245.6142 -14.2477  49.0643 C.ar           1 RES1               0.0000
     15 C15        246.0921 -10.8244  45.0299 C.2            1 RES1               0.0000
     16 C16        244.8734 -15.4103  49.0803 C.ar           1 RES1               0.0000
     17 O17        246.0321  -9.6033  44.9189 O.2            1 RES1               0.0000
     18 H18        247.3096 -15.4860  44.7784 H              1 RES1               0.0000
     19 H19        245.7589 -15.3387  43.9323 H              1 RES1               0.0000
     20 H20        244.6967 -15.9814  45.7614 H              1 RES1               0.0000
     21 H21        246.6122 -12.7860  47.8731 H              1 RES1               0.0000
     22 H22        244.1255 -11.1318  44.5745 H              1 RES1               0.0000
     23 H23        248.0585 -10.9016  45.5629 H              1 RES1               0.0000
     24 H24        247.6521 -14.9815  42.3816 H              1 RES1               0.0000
     25 H25        246.7022 -13.5052  42.5337 H              1 RES1               0.0000
     26 H26        248.2438 -13.6517  43.3748 H              1 RES1               0.0000
     27 H27        243.9644 -16.9417  47.8982 H              1 RES1               0.0000
     28 H28        245.8718 -13.7584  49.9978 H              1 RES1               0.0000
     29 H29        244.5479 -15.8370  50.0233 H              1 RES1               0.0000
@<TRIPOS>BOND
    1    1    2 1     
    2    1    3 1     
    3    1    4 1     
    4    1    5 1     
    5    2    6 ar    
    6    2    7 ar    
    7    3    8 1     
    8    3    9 2     
    9    4   10 1     
   10    4   11 2     
   11    5   12 1     
   12    5   18 1     
   13    5   19 1     
   14    6   13 ar    
   15    6   20 1     
   16    7   14 ar    
   17    7   21 1     
   18    8   15 1     
   19    8   22 1     
   20   10   15 1     
   21   10   23 1     
   22   12   24 1     
   23   12   25 1     
   24   12   26 1     
   25   13   16 ar    
   26   13   27 1     
   27   14   16 ar    
   28   14   28 1     
   29   15   17 2     
   30   16   29 1     
@<TRIPOS>SUBSTRUCTURE
      1 RES1           1
@<TRIPOS>SET
DONOR_HYDROGENS      STATIC     ATOMS    <user>   **** ""
2 22 23
ATOM$RED        STATIC     ATOMS    COLORGROUP SYSTEM
2 22 23
@<TRIPOS>COMMENT
> <Gold.Version>
2022.3.0

> <Gold.Id.Protein>
unknown|4v3u_clean|pdb

> <Gold.Protein.RotatedTorsions>
[ 6612 6571 6572 6573 ] final   52.44 input  122.18 | X-H torsion
[ 6698 6659 6660 6661 ] final  -54.05 input  126.07 | X-H torsion
[ 8064 8023 8024 8025 ] final   70.26 input   40.84 | X-H torsion
[ 8135 8102 8103 8104 ] final  -45.20 input  100.47 | X-H torsion
[ 8198 8164 8165 8166 ] final  116.30 input   73.50 | X-H torsion
[ 8278 8240 8241 8242 ] final  154.92 input   88.79 | X-H torsion
[ 9578 9542 9541 9539 ] final  168.63 input   60.02 | X-H torsion
[ 8331 8311 8312 8313 ] final -165.62 input   92.25 | X-H torsion
[ 7986 7938 7939 7940 ] final  163.64 input   70.73 | X-H torsion
[ 7906 7885 7886 7887 ] final   53.57 input  102.20 | X-H torsion
[ 6850 6802 6803 6804 ] final   16.11 input  120.36 | X-H torsion
[ 10224 10183 10184 10185 ] final  -30.90 input   40.62 | X-H torsion
[ 7910 7890 7889 7886 ] final  -12.87 input   60.02 | X-H torsion
[ 27200 6334 6333 6332 ] final  -96.78 input    0.00 | X-H torsion
[ 27202 6498 6497 6496 ] final   35.13 input   -0.00 | X-H torsion
[ 27205 6574 6573 6572 ] final  125.15 input   -0.00 | X-H torsion
[ 27208 7888 7887 7886 ] final  157.71 input    0.00 | X-H torsion
[ 27211 8026 8025 8024 ] final  147.52 input   -0.00 | X-H torsion
[ 27214 8105 8104 8103 ] final   45.18 input    0.00 | X-H torsion
[ 27217 8167 8166 8165 ] final  -14.37 input    0.00 | X-H torsion
[ 27222 10096 10095 10094 ] final   39.10 input   -0.00 | X-H torsion
[ 27225 10186 10185 10184 ] final -118.25 input    0.00 | X-H torsion
[ 27228 7941 7940 7939 ] final -146.60 input    0.00 | X-H torsion
[ 27230 7733 7732 7731 ] final   49.84 input   -0.00 | X-H torsion
[ 27232 7816 7815 7814 ] final   40.43 input   -0.00 | X-H torsion

> <Gold.Protein.ActiveResidues>
 ASP403  THR404  LEU406  ILE407  TYR408  ALA410  LYS411  TRP414  GLN425  TRP426 
 SER427  LYS428  LEU429  GLN430  VAL431  PHE432  ASP433  TYR453  SER462  ALA463 
 ILE464 

> <Gold.Protein.RotatedAtoms>
  241.0728   -8.0158   50.3364 H   0  0  0  0  0  0  0  0  0  0  0  0  # atno 6612 bound_to 6571
  240.5714   -7.6508   47.6531 H   0  0  0  0  0  0  0  0  0  0  0  0  # atno 6698 bound_to 6659
  240.1582   -3.9391   45.3656 H   0  0  0  0  0  0  0  0  0  0  0  0  # atno 6850 bound_to 6802
  240.8683   -7.2842   36.8071 H   0  0  0  0  0  0  0  0  0  0  0  0  # atno 7906 bound_to 7885
  239.8129   -8.5932   36.2295 H   0  0  0  0  0  0  0  0  0  0  0  0  # atno 7910 bound_to 7890
  242.0903   -9.0520   37.2803 H   0  0  0  0  0  0  0  0  0  0  0  0  # atno 7986 bound_to 7938
  244.2589   -8.6528   40.3381 H   0  0  0  0  0  0  0  0  0  0  0  0  # atno 8064 bound_to 8023
  246.9888   -7.5556   42.0922 H   0  0  0  0  0  0  0  0  0  0  0  0  # atno 8135 bound_to 8102
  247.3245   -8.7252   45.0412 H   0  0  0  0  0  0  0  0  0  0  0  0  # atno 8198 bound_to 8164
  249.9913   -6.5594   46.8301 H   0  0  0  0  0  0  0  0  0  0  0  0  # atno 8278 bound_to 8240
  249.3864   -7.2380   50.4003 H   0  0  0  0  0  0  0  0  0  0  0  0  # atno 8331 bound_to 8311
  251.1248  -10.2633   40.3850 H   0  0  0  0  0  0  0  0  0  0  0  0  # atno 9578 bound_to 9542
  250.3794   -4.0507   44.0365 H   0  0  0  0  0  0  0  0  0  0  0  0  # atno 10224 bound_to 10183
  241.6013   -9.0911   51.8164 LP  0  0  0  0  0  0  0  0  0  0  0  0  # atno 27200 bound_to 6334
  242.8482  -10.1198   51.1942 LP  0  0  0  0  0  0  0  0  0  0  0  0  # atno 27201 bound_to 6334
  241.9910   -4.5897   49.9227 LP  0  0  0  0  0  0  0  0  0  0  0  0  # atno 27202 bound_to 6498
  241.3155   -5.5464   48.6467 LP  0  0  0  0  0  0  0  0  0  0  0  0  # atno 27203 bound_to 6498
  242.6066   -7.1733   50.3689 LP  0  0  0  0  0  0  0  0  0  0  0  0  # atno 27204 bound_to 6571
  240.6870   -7.1784   45.7108 LP  0  0  0  0  0  0  0  0  0  0  0  0  # atno 27205 bound_to 6574
  241.5161   -5.9977   46.6693 LP  0  0  0  0  0  0  0  0  0  0  0  0  # atno 27206 bound_to 6574
  239.6475   -8.6034   48.7934 LP  0  0  0  0  0  0  0  0  0  0  0  0  # atno 27207 bound_to 6659
  242.7938  -10.6785   39.3531 LP  0  0  0  0  0  0  0  0  0  0  0  0  # atno 27208 bound_to 7888
  241.4016  -10.1819   40.2559 LP  0  0  0  0  0  0  0  0  0  0  0  0  # atno 27209 bound_to 7888
  245.3850   -8.5152   39.0057 LP  0  0  0  0  0  0  0  0  0  0  0  0  # atno 27210 bound_to 8023
  246.3567   -9.5195   43.1185 LP  0  0  0  0  0  0  0  0  0  0  0  0  # atno 27211 bound_to 8026
  245.0286   -8.4205   42.9512 LP  0  0  0  0  0  0  0  0  0  0  0  0  # atno 27212 bound_to 8026
  248.3095   -7.9270   41.0112 LP  0  0  0  0  0  0  0  0  0  0  0  0  # atno 27213 bound_to 8102
  248.6647   -5.8307   43.3419 LP  0  0  0  0  0  0  0  0  0  0  0  0  # atno 27214 bound_to 8105
  249.4681   -5.9689   44.8701 LP  0  0  0  0  0  0  0  0  0  0  0  0  # atno 27215 bound_to 8105
  248.8775   -7.9546   44.8205 LP  0  0  0  0  0  0  0  0  0  0  0  0  # atno 27216 bound_to 8164
  247.9854   -9.2268   48.0400 LP  0  0  0  0  0  0  0  0  0  0  0  0  # atno 27217 bound_to 8167
  249.5781   -8.9235   48.6492 LP  0  0  0  0  0  0  0  0  0  0  0  0  # atno 27218 bound_to 8167
  248.7341   -6.5231   48.0413 LP  0  0  0  0  0  0  0  0  0  0  0  0  # atno 27219 bound_to 8240
  251.6522  -11.6193   41.1132 LP  0  0  0  0  0  0  0  0  0  0  0  0  # atno 27220 bound_to 9542
  252.0727  -11.3026   39.5674 LP  0  0  0  0  0  0  0  0  0  0  0  0  # atno 27221 bound_to 9542
  249.9570   -7.0815   39.4091 LP  0  0  0  0  0  0  0  0  0  0  0  0  # atno 27222 bound_to 10096
  249.1231   -6.5508   40.8314 LP  0  0  0  0  0  0  0  0  0  0  0  0  # atno 27223 bound_to 10096
  251.0212   -7.3320   51.0091 LP  0  0  0  0  0  0  0  0  0  0  0  0  # atno 27224 bound_to 8311
  249.6542   -4.5206   47.4278 LP  0  0  0  0  0  0  0  0  0  0  0  0  # atno 27225 bound_to 10186
  250.5989   -4.7897   46.0012 LP  0  0  0  0  0  0  0  0  0  0  0  0  # atno 27226 bound_to 10186
  242.5505   -7.8731   38.4839 LP  0  0  0  0  0  0  0  0  0  0  0  0  # atno 27227 bound_to 7938
  246.6114   -7.1057   38.2496 LP  0  0  0  0  0  0  0  0  0  0  0  0  # atno 27228 bound_to 7941
  245.3129   -7.0086   37.1074 LP  0  0  0  0  0  0  0  0  0  0  0  0  # atno 27229 bound_to 7941
  243.8740   -6.2203   36.2219 LP  0  0  0  0  0  0  0  0  0  0  0  0  # atno 27230 bound_to 7733
  242.4894   -7.0638   36.8315 LP  0  0  0  0  0  0  0  0  0  0  0  0  # atno 27231 bound_to 7733
  240.9914   -5.2883   40.0013 LP  0  0  0  0  0  0  0  0  0  0  0  0  # atno 27232 bound_to 7816
  241.8300   -6.7916   39.8093 LP  0  0  0  0  0  0  0  0  0  0  0  0  # atno 27233 bound_to 7816
  240.0507   -6.4422   38.1009 LP  0  0  0  0  0  0  0  0  0  0  0  0  # atno 27234 bound_to 7885

> <Gold.Score>
     Fitness  S(hb_ext) S(vdw_ext)  S(hb_int)    S(int)      intcor
     17.28       2.30      11.58       0.00      -0.95      -0.78

> <Gold.Goldscore.Fitness>
17.2785

> <Gold.Goldscore.Internal.Vdw>
-1.1449

> <Gold.Goldscore.Internal.Torsion>
-0.5765

> <Gold.Goldscore.External.Vdw>
11.5848

> <Gold.Goldscore.Internal.HBond>
0.0000

> <Gold.Goldscore.External.HBond>
2.2954

> <Gold.Goldscore.Internal.Correction>
-0.7752

> <Gold.Goldscore.Hbonds>
donor molecule, donor type, donor heavy atom, donor atom, acceptor molecule, acceptor atom, score
      P1  H  8109  8141       L1    11  0.24
      P1  H  8164  8198       L1    17  0.91

> <Gold.Goldscore.Internal.Vdw.Weighted>
-1.1449

> <Gold.Goldscore.Internal.Torsion.Weighted>
-0.5765

> <Gold.Goldscore.External.Vdw.Weighted>
15.9291

> <Gold.Goldscore.Internal.HBond.Weighted>
0.0000

> <Gold.Goldscore.External.HBond.Weighted>
2.2954

> <Gold.Goldscore.Internal.Correction.Weighted>
-0.7752

> <Gold.Rescore>
     Score     S(PLP)   S(hbond)     S(cho)   S(metal)  DE(clash)   DE(tors)     intcor
     17.32     -13.85       1.80       0.00       0.00       0.33       0.80       ----

> <Gold.PLP.Fitness>
17.3226

> <Gold.PLP.PLP>
-13.8493

> <Gold.PLP.part.hbond>
-2.0000

> <Gold.PLP.part.metal>
0.0000

> <Gold.PLP.part.buried>
-3.2721

> <Gold.PLP.part.nonpolar>
-10.7331

> <Gold.PLP.part.repulsive>
1.4097

> <Gold.PLP.ligand.clash>
0.3313

> <Gold.PLP.ligand.torsion>
0.7977

> <Gold.PLP.Chemscore.Hbond>
1.8000

> <Gold.PLP.Chemscore.CHOScore>
0.0000

> <Gold.PLP.Chemscore.Metal>
0.0000

> <Gold.Chemscore.Hbonds>
donor molecule, donor type, donor heavy atom, donor atom, acceptor molecule, acceptor atom, score
      P1  H  8109  8141       L1    11  0.45
      P1  H  8164  8198       L1    17  0.93

> <Gold.PLP.Chemscore.Internal.Correction>
   9.000000E+99

