#       Name:                CT1002167954
#       Creating user name   hitesit
#       Creation time:       Sun Apr 16 23:06:31 2023


#       File generated by GOLD software.
#

@<TRIPOS>MOLECULE
CT1002167954|ligand_prepared|mol2|1|dock8
    29    30     1
SMALL
NO_CHARGES


@<TRIPOS>ATOM
      1 C1         247.0374  -9.9607  39.0225 C.3            1 RES1               0.0000
      2 C2         247.6377  -8.5522  38.8370 C.ar           1 RES1               0.0000
      3 C3         247.8454 -10.6283  40.1314 C.2            1 RES1               0.0000
      4 C4         245.5653  -9.7557  39.3625 C.2            1 RES1               0.0000
      5 C5         247.1166 -10.8453  37.7565 C.3            1 RES1               0.0000
      6 C6         247.3957  -7.8262  37.6747 C.ar           1 RES1               0.0000
      7 C7         248.4318  -7.9656  39.8188 C.ar           1 RES1               0.0000
      8 N8         247.2518 -10.7639  41.3517 N.am           1 RES1               0.0000
      9 O9         249.0000 -10.9943  39.9490 O.2            1 RES1               0.0000
     10 N10        245.1362 -10.1292  40.6092 N.am           1 RES1               0.0000
     11 O11        244.7766  -9.2588  38.5680 O.2            1 RES1               0.0000
     12 C12        246.7549 -12.3016  38.0024 C.3            1 RES1               0.0000
     13 C13        247.9258  -6.5584  37.5012 C.ar           1 RES1               0.0000
     14 C14        248.9612  -6.6977  39.6432 C.ar           1 RES1               0.0000
     15 C15        245.9191 -10.5956  41.6299 C.2            1 RES1               0.0000
     16 C16        248.7085  -5.9932  38.4854 C.ar           1 RES1               0.0000
     17 O17        245.4687 -10.8588  42.7412 O.2            1 RES1               0.0000
     18 H18        246.4386 -10.4365  36.9971 H              1 RES1               0.0000
     19 H19        248.1366 -10.7978  37.3557 H              1 RES1               0.0000
     20 H20        246.7842  -8.2557  36.8881 H              1 RES1               0.0000
     21 H21        248.6448  -8.5017  40.7374 H              1 RES1               0.0000
     22 H22        247.8545 -11.0136  42.1294 H              1 RES1               0.0000
     23 H23        244.1410 -10.0526  40.7933 H              1 RES1               0.0000
     24 H24        246.8267 -12.8776  37.0822 H              1 RES1               0.0000
     25 H25        247.4253 -12.7473  38.7343 H              1 RES1               0.0000
     26 H26        245.7373 -12.3882  38.3779 H              1 RES1               0.0000
     27 H27        247.7251  -6.0087  36.5876 H              1 RES1               0.0000
     28 H28        249.5771  -6.2570  40.4202 H              1 RES1               0.0000
     29 H29        249.1234  -4.9999  38.3495 H              1 RES1               0.0000
@<TRIPOS>BOND
    1    1    2 1     
    2    1    3 1     
    3    1    4 1     
    4    1    5 1     
    5    2    6 ar    
    6    2    7 ar    
    7    3    8 1     
    8    3    9 2     
    9    4   10 1     
   10    4   11 2     
   11    5   12 1     
   12    5   18 1     
   13    5   19 1     
   14    6   13 ar    
   15    6   20 1     
   16    7   14 ar    
   17    7   21 1     
   18    8   15 1     
   19    8   22 1     
   20   10   15 1     
   21   10   23 1     
   22   12   24 1     
   23   12   25 1     
   24   12   26 1     
   25   13   16 ar    
   26   13   27 1     
   27   14   16 ar    
   28   14   28 1     
   29   15   17 2     
   30   16   29 1     
@<TRIPOS>SUBSTRUCTURE
      1 RES1           1
@<TRIPOS>SET
DONOR_HYDROGENS      STATIC     ATOMS    <user>   **** ""
2 22 23
ATOM$RED        STATIC     ATOMS    COLORGROUP SYSTEM
2 22 23
@<TRIPOS>COMMENT
> <Gold.Version>
2022.3.0

> <Gold.Id.Protein>
unknown|4v3u_clean|pdb

> <Gold.Protein.RotatedTorsions>
[ 6612 6571 6572 6573 ] final  -10.53 input  122.18 | X-H torsion
[ 6698 6659 6660 6661 ] final -119.29 input  126.07 | X-H torsion
[ 8064 8023 8024 8025 ] final -138.14 input   40.84 | X-H torsion
[ 8135 8102 8103 8104 ] final   24.16 input  100.47 | X-H torsion
[ 8198 8164 8165 8166 ] final   35.70 input   73.50 | X-H torsion
[ 8278 8240 8241 8242 ] final  106.23 input   88.79 | X-H torsion
[ 9578 9542 9541 9539 ] final -106.86 input   60.02 | X-H torsion
[ 8331 8311 8312 8313 ] final   25.16 input   92.25 | X-H torsion
[ 7986 7938 7939 7940 ] final -104.56 input   70.73 | X-H torsion
[ 7906 7885 7886 7887 ] final  -39.72 input  102.20 | X-H torsion
[ 6850 6802 6803 6804 ] final   -9.09 input  120.36 | X-H torsion
[ 10224 10183 10184 10185 ] final  122.93 input   40.62 | X-H torsion
[ 7910 7890 7889 7886 ] final -134.51 input   60.02 | X-H torsion
[ 27200 6334 6333 6332 ] final  -25.14 input    0.00 | X-H torsion
[ 27202 6498 6497 6496 ] final  -60.01 input   -0.00 | X-H torsion
[ 27205 6574 6573 6572 ] final  -75.69 input   -0.00 | X-H torsion
[ 27208 7888 7887 7886 ] final   77.47 input    0.00 | X-H torsion
[ 27211 8026 8025 8024 ] final  109.76 input   -0.00 | X-H torsion
[ 27214 8105 8104 8103 ] final  135.37 input    0.00 | X-H torsion
[ 27217 8167 8166 8165 ] final -133.56 input    0.00 | X-H torsion
[ 27222 10096 10095 10094 ] final   44.60 input   -0.00 | X-H torsion
[ 27225 10186 10185 10184 ] final   -9.97 input    0.00 | X-H torsion
[ 27228 7941 7940 7939 ] final  -18.52 input    0.00 | X-H torsion
[ 27230 7733 7732 7731 ] final  135.77 input   -0.00 | X-H torsion
[ 27232 7816 7815 7814 ] final  174.04 input   -0.00 | X-H torsion

> <Gold.Protein.ActiveResidues>
 ASP403  THR404  LEU406  ILE407  TYR408  ALA410  LYS411  TRP414  GLN425  TRP426 
 SER427  LYS428  LEU429  GLN430  VAL431  PHE432  ASP433  TYR453  SER462  ALA463 
 ILE464 

> <Gold.Protein.RotatedAtoms>
  241.1319   -7.1077   50.1477 H   0  0  0  0  0  0  0  0  0  0  0  0  # atno 6612 bound_to 6571
  240.3552   -8.5709   47.5010 H   0  0  0  0  0  0  0  0  0  0  0  0  # atno 6698 bound_to 6659
  240.3690   -3.6375   45.2523 H   0  0  0  0  0  0  0  0  0  0  0  0  # atno 6850 bound_to 6802
  241.2101   -6.6226   37.8525 H   0  0  0  0  0  0  0  0  0  0  0  0  # atno 7906 bound_to 7885
  238.4191   -9.4489   36.2346 H   0  0  0  0  0  0  0  0  0  0  0  0  # atno 7910 bound_to 7890
  242.0827   -8.9932   38.5460 H   0  0  0  0  0  0  0  0  0  0  0  0  # atno 7986 bound_to 7938
  245.1195   -8.1873   38.9200 H   0  0  0  0  0  0  0  0  0  0  0  0  # atno 8064 bound_to 8023
  247.7530   -6.9368   41.8903 H   0  0  0  0  0  0  0  0  0  0  0  0  # atno 8135 bound_to 8102
  248.3522   -8.9972   45.4638 H   0  0  0  0  0  0  0  0  0  0  0  0  # atno 8198 bound_to 8164
  249.8475   -5.8973   47.0929 H   0  0  0  0  0  0  0  0  0  0  0  0  # atno 8278 bound_to 8240
  250.9992   -7.4899   51.0521 H   0  0  0  0  0  0  0  0  0  0  0  0  # atno 8331 bound_to 8311
  251.8094  -10.8022   39.4767 H   0  0  0  0  0  0  0  0  0  0  0  0  # atno 9578 bound_to 9542
  248.7102   -3.8579   43.5610 H   0  0  0  0  0  0  0  0  0  0  0  0  # atno 10224 bound_to 10183
  242.5808   -9.0596   52.0756 LP  0  0  0  0  0  0  0  0  0  0  0  0  # atno 27200 bound_to 6334
  241.8687  -10.1513   50.9350 LP  0  0  0  0  0  0  0  0  0  0  0  0  # atno 27201 bound_to 6334
  240.8289   -4.9207   49.5054 LP  0  0  0  0  0  0  0  0  0  0  0  0  # atno 27202 bound_to 6498
  242.4776   -5.2154   49.0641 LP  0  0  0  0  0  0  0  0  0  0  0  0  # atno 27203 bound_to 6498
  242.5495   -8.0515   50.5514 LP  0  0  0  0  0  0  0  0  0  0  0  0  # atno 27204 bound_to 6571
  241.2212   -5.8950   46.6953 LP  0  0  0  0  0  0  0  0  0  0  0  0  # atno 27205 bound_to 6574
  240.9818   -7.2812   45.6848 LP  0  0  0  0  0  0  0  0  0  0  0  0  # atno 27206 bound_to 6574
  239.8572   -7.7108   48.9410 LP  0  0  0  0  0  0  0  0  0  0  0  0  # atno 27207 bound_to 6659
  241.7265  -10.9912   39.2590 LP  0  0  0  0  0  0  0  0  0  0  0  0  # atno 27208 bound_to 7888
  242.4689   -9.8692   40.3500 LP  0  0  0  0  0  0  0  0  0  0  0  0  # atno 27209 bound_to 7888
  244.5509   -8.9663   40.3801 LP  0  0  0  0  0  0  0  0  0  0  0  0  # atno 27210 bound_to 8023
  246.0200   -9.7028   42.7095 LP  0  0  0  0  0  0  0  0  0  0  0  0  # atno 27211 bound_to 8026
  245.3653   -8.2372   43.3602 LP  0  0  0  0  0  0  0  0  0  0  0  0  # atno 27212 bound_to 8026
  247.5606   -8.5335   41.2090 LP  0  0  0  0  0  0  0  0  0  0  0  0  # atno 27213 bound_to 8102
  248.3449   -5.6451   44.5116 LP  0  0  0  0  0  0  0  0  0  0  0  0  # atno 27214 bound_to 8105
  249.7880   -6.1545   43.7005 LP  0  0  0  0  0  0  0  0  0  0  0  0  # atno 27215 bound_to 8105
  247.8743   -7.6891   44.4080 LP  0  0  0  0  0  0  0  0  0  0  0  0  # atno 27216 bound_to 8164
  248.8732   -8.6802   49.1099 LP  0  0  0  0  0  0  0  0  0  0  0  0  # atno 27217 bound_to 8167
  248.6903   -9.4701   47.5793 LP  0  0  0  0  0  0  0  0  0  0  0  0  # atno 27218 bound_to 8167
  248.8752   -7.1726   47.7835 LP  0  0  0  0  0  0  0  0  0  0  0  0  # atno 27219 bound_to 8240
  251.0704  -10.5136   40.8972 LP  0  0  0  0  0  0  0  0  0  0  0  0  # atno 27220 bound_to 9542
  251.9647  -11.8654   40.6985 LP  0  0  0  0  0  0  0  0  0  0  0  0  # atno 27221 bound_to 9542
  250.0274   -7.0758   39.4531 LP  0  0  0  0  0  0  0  0  0  0  0  0  # atno 27222 bound_to 10096
  249.0528   -6.5565   40.7875 LP  0  0  0  0  0  0  0  0  0  0  0  0  # atno 27223 bound_to 10096
  249.4421   -7.0854   50.3709 LP  0  0  0  0  0  0  0  0  0  0  0  0  # atno 27224 bound_to 8311
  249.5869   -4.8316   46.0606 LP  0  0  0  0  0  0  0  0  0  0  0  0  # atno 27225 bound_to 10186
  250.6663   -4.4787   47.3684 LP  0  0  0  0  0  0  0  0  0  0  0  0  # atno 27226 bound_to 10186
  242.5579   -7.9307   37.2438 LP  0  0  0  0  0  0  0  0  0  0  0  0  # atno 27227 bound_to 7938
  245.8406   -7.5345   36.9663 LP  0  0  0  0  0  0  0  0  0  0  0  0  # atno 27228 bound_to 7941
  246.0838   -6.5798   38.3908 LP  0  0  0  0  0  0  0  0  0  0  0  0  # atno 27229 bound_to 7941
  243.1495   -6.0248   37.1332 LP  0  0  0  0  0  0  0  0  0  0  0  0  # atno 27230 bound_to 7733
  243.2139   -7.2594   35.9202 LP  0  0  0  0  0  0  0  0  0  0  0  0  # atno 27231 bound_to 7733
  241.1886   -6.8678   40.0289 LP  0  0  0  0  0  0  0  0  0  0  0  0  # atno 27232 bound_to 7816
  241.6328   -5.2120   39.7817 LP  0  0  0  0  0  0  0  0  0  0  0  0  # atno 27233 bound_to 7816
  239.7160   -7.0899   37.0773 LP  0  0  0  0  0  0  0  0  0  0  0  0  # atno 27234 bound_to 7885

> <Gold.Score>
     Fitness  S(hb_ext) S(vdw_ext)  S(hb_int)    S(int)      intcor
     34.16       6.00      21.27       0.00      -1.09      -0.78

> <Gold.Goldscore.Fitness>
34.1561

> <Gold.Goldscore.Internal.Vdw>
-1.3319

> <Gold.Goldscore.Internal.Torsion>
-0.5375

> <Gold.Goldscore.External.Vdw>
21.2736

> <Gold.Goldscore.Internal.HBond>
0.0000

> <Gold.Goldscore.External.HBond>
5.9991

> <Gold.Goldscore.Internal.Correction>
-0.7752

> <Gold.Goldscore.Hbonds>
donor molecule, donor type, donor heavy atom, donor atom, acceptor molecule, acceptor atom, score
      L1  H     8    22       P1  8110  1.00

> <Gold.Goldscore.Internal.Vdw.Weighted>
-1.3319

> <Gold.Goldscore.Internal.Torsion.Weighted>
-0.5375

> <Gold.Goldscore.External.Vdw.Weighted>
29.2511

> <Gold.Goldscore.Internal.HBond.Weighted>
0.0000

> <Gold.Goldscore.External.HBond.Weighted>
5.9991

> <Gold.Goldscore.Internal.Correction.Weighted>
-0.7752

> <Gold.Rescore>
     Score     S(PLP)   S(hbond)     S(cho)   S(metal)  DE(clash)   DE(tors)     intcor
     29.89     -31.29       0.00       0.00       0.00       1.36       0.02       ----

> <Gold.PLP.Fitness>
29.8929

> <Gold.PLP.PLP>
-31.2900

> <Gold.PLP.part.hbond>
-0.8303

> <Gold.PLP.part.metal>
0.0000

> <Gold.PLP.part.buried>
-5.5765

> <Gold.PLP.part.nonpolar>
-26.4288

> <Gold.PLP.part.repulsive>
0.6899

> <Gold.PLP.ligand.clash>
1.3551

> <Gold.PLP.ligand.torsion>
0.0210

> <Gold.PLP.Chemscore.Hbond>
0.0000

> <Gold.PLP.Chemscore.CHOScore>
0.0000

> <Gold.PLP.Chemscore.Metal>
0.0000

> <Gold.Chemscore.Hbonds>
donor molecule, donor type, donor heavy atom, donor atom, acceptor molecule, acceptor atom, score
      L1  H     8    22       P1  8110  0.19

> <Gold.PLP.Chemscore.Internal.Correction>
   9.000000E+99

