#       Name:                CT1002167954
#       Creating user name   hitesit
#       Creation time:       Sun Apr 16 22:50:14 2023


#       File generated by GOLD software.
#

@<TRIPOS>MOLECULE
CT1002167954|ligand_prepared|mol2|1|dock4
    29    30     1
SMALL
NO_CHARGES


@<TRIPOS>ATOM
      1 C1          21.4434  -9.9005  -2.2720 C.3            1 RES1               0.0000
      2 C2          22.5520 -10.7568  -1.6266 C.ar           1 RES1               0.0000
      3 C3          20.3531  -9.7444  -1.2160 C.2            1 RES1               0.0000
      4 C4          22.1029  -8.5890  -2.6841 C.2            1 RES1               0.0000
      5 C5          20.8170 -10.5375  -3.5343 C.3            1 RES1               0.0000
      6 C6          23.4686 -10.1852  -0.7492 C.ar           1 RES1               0.0000
      7 C7          22.6689 -12.1178  -1.8963 C.ar           1 RES1               0.0000
      8 N8          20.2356  -8.5314  -0.6038 N.am           1 RES1               0.0000
      9 O9          19.6333 -10.6827  -0.8971 O.2            1 RES1               0.0000
     10 N10         21.7035  -7.4423  -2.0491 N.am           1 RES1               0.0000
     11 O11         22.9765  -8.5407  -3.5412 O.2            1 RES1               0.0000
     12 C12         19.9586  -9.5782  -4.3437 C.3            1 RES1               0.0000
     13 C13         24.4642 -10.9470  -0.1604 C.ar           1 RES1               0.0000
     14 C14         23.6655 -12.8778  -1.3066 C.ar           1 RES1               0.0000
     15 C15         20.8218  -7.3583  -1.0061 C.2            1 RES1               0.0000
     16 C16         24.5631 -12.2937  -0.4383 C.ar           1 RES1               0.0000
     17 O17         20.5542  -6.2967  -0.4507 O.2            1 RES1               0.0000
     18 H18         21.6225 -10.9171  -4.1751 H              1 RES1               0.0000
     19 H19         20.2002 -11.3920  -3.2296 H              1 RES1               0.0000
     20 H20         23.4080  -9.1264  -0.5204 H              1 RES1               0.0000
     21 H21         21.9745 -12.5983  -2.5771 H              1 RES1               0.0000
     22 H22         19.6586  -8.4931   0.2304 H              1 RES1               0.0000
     23 H23         22.1002  -6.5705  -2.3851 H              1 RES1               0.0000
     24 H24         19.5436 -10.0756  -5.2178 H              1 RES1               0.0000
     25 H25         19.1326  -9.2005  -3.7446 H              1 RES1               0.0000
     26 H26         20.5465  -8.7284  -4.6845 H              1 RES1               0.0000
     27 H27         25.1690 -10.4823   0.5212 H              1 RES1               0.0000
     28 H28         23.7399 -13.9372  -1.5286 H              1 RES1               0.0000
     29 H29         25.3429 -12.8904   0.0234 H              1 RES1               0.0000
@<TRIPOS>BOND
    1    1    2 1     
    2    1    3 1     
    3    1    4 1     
    4    1    5 1     
    5    2    6 ar    
    6    2    7 ar    
    7    3    8 1     
    8    3    9 2     
    9    4   10 1     
   10    4   11 2     
   11    5   12 1     
   12    5   18 1     
   13    5   19 1     
   14    6   13 ar    
   15    6   20 1     
   16    7   14 ar    
   17    7   21 1     
   18    8   15 1     
   19    8   22 1     
   20   10   15 1     
   21   10   23 1     
   22   12   24 1     
   23   12   25 1     
   24   12   26 1     
   25   13   16 ar    
   26   13   27 1     
   27   14   16 ar    
   28   14   28 1     
   29   15   17 2     
   30   16   29 1     
@<TRIPOS>SUBSTRUCTURE
      1 RES1           1
@<TRIPOS>SET
DONOR_HYDROGENS      STATIC     ATOMS    <user>   **** ""
2 22 23
ATOM$RED        STATIC     ATOMS    COLORGROUP SYSTEM
2 22 23
@<TRIPOS>COMMENT
> <Gold.Version>
2022.3.0

> <Gold.Id.Protein>
unknown|3oxt_clean|pdb

> <Gold.Protein.RotatedTorsions>
[  570  565  563  560 ] final   21.49 input   59.99 | X-H torsion
[  590  585  584  581 ] final  -51.53 input   60.02 | X-H torsion
[ 2787 2780 2778 2775 ] final   83.39 input   60.00 | X-H torsion
[ 2470 2461 2460 2458 ] final  -44.20 input   59.98 | X-H torsion
[ 2545 2534 2533 2532 ] final  -72.26 input   59.97 | X-H torsion
[ 1779 1770 1769 1767 ] final  -78.03 input   59.98 | X-H torsion
[ 5059 5050 5049 5047 ] final   70.12 input   60.00 | X-H torsion

> <Gold.Protein.ActiveResidues>
 THR48   LEU49   GLY50   THR51   GLY52   SER53   PHE54   GLY55   ARG56   VAL57  
 MET58   LEU59   VAL60   HIS68   TYR69   ALA70   MET71   LYS72   ILE73   LEU74  
 ASP75   VAL79   GLU91   LEU95   VAL104  LYS105  MET118  VAL119  MET120  GLU121 
 TYR122  VAL123  PRO124  GLY125  GLY126  GLU127  TYR164  ASP166  LYS168  GLU170 
 ASN171  LEU172  LEU173  ILE174  ASP175  GLN181  VAL182  THR183  ASP184  PHE185 
 GLY186  PHE327  ASP328  TYR330 

> <Gold.Protein.RotatedAtoms>
   21.0717  -12.3851    5.7573 H   0  0  0  0  0  0  0  0  0  0  0  0  # atno 570  bound_to 565 
   18.1749  -11.3113   -1.2769 H   0  0  0  0  0  0  0  0  0  0  0  0  # atno 590  bound_to 585 
   36.3489  -10.4743   10.4738 H   0  0  0  0  0  0  0  0  0  0  0  0  # atno 1779 bound_to 1770
   27.3746   -3.3700   -3.3620 H   0  0  0  0  0  0  0  0  0  0  0  0  # atno 2470 bound_to 2461
   19.6692   -4.1480    1.7003 H   0  0  0  0  0  0  0  0  0  0  0  0  # atno 2545 bound_to 2534
   19.4399   -3.3390    0.2714 H   0  0  0  0  0  0  0  0  0  0  0  0  # atno 2546 bound_to 2534
   20.0837   -4.8666    0.2660 H   0  0  0  0  0  0  0  0  0  0  0  0  # atno 2547 bound_to 2534
   32.4340   -7.6490   -1.0796 H   0  0  0  0  0  0  0  0  0  0  0  0  # atno 2787 bound_to 2780
   24.4371  -10.0257    8.4250 H   0  0  0  0  0  0  0  0  0  0  0  0  # atno 5059 bound_to 5050
   21.2998  -13.2057    7.1440 LP  0  0  0  0  0  0  0  0  0  0  0  0  # atno 5371 bound_to 565 
   20.0097  -13.5363    6.1991 LP  0  0  0  0  0  0  0  0  0  0  0  0  # atno 5372 bound_to 565 
   16.9355  -11.0611   -2.3018 LP  0  0  0  0  0  0  0  0  0  0  0  0  # atno 5375 bound_to 585 
   17.9106  -12.3565   -2.4963 LP  0  0  0  0  0  0  0  0  0  0  0  0  # atno 5376 bound_to 585 
   30.9413   -7.7321   -1.7222 LP  0  0  0  0  0  0  0  0  0  0  0  0  # atno 5395 bound_to 2780
   31.2129   -8.2786   -0.2075 LP  0  0  0  0  0  0  0  0  0  0  0  0  # atno 5396 bound_to 2780
   27.0689   -2.0294   -2.4917 LP  0  0  0  0  0  0  0  0  0  0  0  0  # atno 5401 bound_to 2461
   28.6097   -2.4618   -2.8162 LP  0  0  0  0  0  0  0  0  0  0  0  0  # atno 5402 bound_to 2461
   37.0920  -11.8078   11.0369 LP  0  0  0  0  0  0  0  0  0  0  0  0  # atno 5439 bound_to 1770
   35.6088  -11.9191   10.3630 LP  0  0  0  0  0  0  0  0  0  0  0  0  # atno 5440 bound_to 1770
   24.3894   -9.5684    9.9854 LP  0  0  0  0  0  0  0  0  0  0  0  0  # atno 5465 bound_to 5050
   23.0016   -9.8094    9.1592 LP  0  0  0  0  0  0  0  0  0  0  0  0  # atno 5466 bound_to 5050

> <Gold.Score>
     Fitness  S(hb_ext) S(vdw_ext)  S(hb_int)    S(int)      intcor
     41.81      13.24      20.94       0.00      -0.22      -0.77

> <Gold.Goldscore.Fitness>
41.8066

> <Gold.Goldscore.Internal.Vdw>
-0.3648

> <Gold.Goldscore.Internal.Torsion>
-0.6230

> <Gold.Goldscore.External.Vdw>
20.9383

> <Gold.Goldscore.Internal.HBond>
0.0000

> <Gold.Goldscore.External.HBond>
13.2350

> <Gold.Goldscore.Internal.Correction>
-0.7693

> <Gold.Goldscore.Hbonds>
donor molecule, donor type, donor heavy atom, donor atom, acceptor molecule, acceptor atom, score
      P1  H   580   587       L1     9  0.94
      P1  H   585   590       L1     9  0.27
      P1  H  2534  2547       L1    17  1.00
      L1  H    10    23       P1  2502  0.80

> <Gold.Goldscore.Internal.Vdw.Weighted>
-0.3648

> <Gold.Goldscore.Internal.Torsion.Weighted>
-0.6230

> <Gold.Goldscore.External.Vdw.Weighted>
28.7901

> <Gold.Goldscore.Internal.HBond.Weighted>
0.0000

> <Gold.Goldscore.External.HBond.Weighted>
13.2350

> <Gold.Goldscore.Internal.Correction.Weighted>
-0.7693

> <Gold.Rescore>
     Score     S(PLP)   S(hbond)     S(cho)   S(metal)  DE(clash)   DE(tors)     intcor
     45.38     -36.21       3.69       0.00       0.00       0.00       0.96       ----

> <Gold.PLP.Fitness>
45.3754

> <Gold.PLP.PLP>
-36.2133

> <Gold.PLP.part.hbond>
-5.0000

> <Gold.PLP.part.metal>
0.0000

> <Gold.PLP.part.buried>
-1.4314

> <Gold.PLP.part.nonpolar>
-32.0864

> <Gold.PLP.part.repulsive>
0.6082

> <Gold.PLP.ligand.clash>
0.0000

> <Gold.PLP.ligand.torsion>
0.9584

> <Gold.PLP.Chemscore.Hbond>
3.6930

> <Gold.PLP.Chemscore.CHOScore>
0.0000

> <Gold.PLP.Chemscore.Metal>
0.0000

> <Gold.Chemscore.Hbonds>
donor molecule, donor type, donor heavy atom, donor atom, acceptor molecule, acceptor atom, score
      L1  H    10    23       P1  2502  1.00
      P1  H   580   587       L1     9  0.98
      P1  H   585   590       L1     9  1.00
      P1  H  2534  2547       L1    17  1.00

> <Gold.PLP.Chemscore.Internal.Correction>
   9.000000E+99

#       Name:                CT1002167954
#       Creating user name   hitesit
#       Creation time:       Sun Apr 16 22:50:16 2023


#       File generated by GOLD software.
#

@<TRIPOS>MOLECULE
CT1002167954|ligand_prepared|mol2|1|dock6
    29    30     1
SMALL
NO_CHARGES


@<TRIPOS>ATOM
      1 C1          20.9933  -9.7983  -2.3002 C.3            1 RES1               0.0000
      2 C2          22.0395 -10.7336  -1.6602 C.ar           1 RES1               0.0000
      3 C3          19.9257  -9.5583  -1.2368 C.2            1 RES1               0.0000
      4 C4          21.7460  -8.5409  -2.7211 C.2            1 RES1               0.0000
      5 C5          20.3116 -10.3899  -3.5560 C.3            1 RES1               0.0000
      6 C6          22.2162 -12.0296  -2.1353 C.ar           1 RES1               0.0000
      7 C7          22.8356 -10.3144  -0.5976 C.ar           1 RES1               0.0000
      8 N8          19.9038  -8.3384  -0.6275 N.am           1 RES1               0.0000
      9 O9          19.1401 -10.4393  -0.9098 O.2            1 RES1               0.0000
     10 N10         21.4383  -7.3659  -2.0867 N.am           1 RES1               0.0000
     11 O11         22.6144  -8.5602  -3.5846 O.2            1 RES1               0.0000
     12 C12         19.3256  -9.4430  -4.2218 C.3            1 RES1               0.0000
     13 C13         23.1568 -12.8751  -1.5707 C.ar           1 RES1               0.0000
     14 C14         23.7756 -11.1616  -0.0343 C.ar           1 RES1               0.0000
     15 C15         20.5731  -7.2135  -1.0377 C.2            1 RES1               0.0000
     16 C16         23.9374 -12.4416  -0.5203 C.ar           1 RES1               0.0000
     17 O17         20.3898  -6.1334  -0.4836 O.2            1 RES1               0.0000
     18 H18         21.0864 -10.6617  -4.2834 H              1 RES1               0.0000
     19 H19         19.7824 -11.3076  -3.2712 H              1 RES1               0.0000
     20 H20         21.6094 -12.3892  -2.9597 H              1 RES1               0.0000
     21 H21         22.7250  -9.3119  -0.1983 H              1 RES1               0.0000
     22 H22         19.3375  -8.2549   0.2108 H              1 RES1               0.0000
     23 H23         21.8966  -6.5270  -2.4283 H              1 RES1               0.0000
     24 H24         18.8761  -9.9072  -5.0972 H              1 RES1               0.0000
     25 H25         18.5271  -9.1716  -3.5345 H              1 RES1               0.0000
     26 H26         19.8234  -8.5295  -4.5407 H              1 RES1               0.0000
     27 H27         23.2793 -13.8819  -1.9559 H              1 RES1               0.0000
     28 H28         24.3873 -10.8164   0.7927 H              1 RES1               0.0000
     29 H29         24.6744 -13.1039  -0.0784 H              1 RES1               0.0000
@<TRIPOS>BOND
    1    1    2 1     
    2    1    3 1     
    3    1    4 1     
    4    1    5 1     
    5    2    6 ar    
    6    2    7 ar    
    7    3    8 1     
    8    3    9 2     
    9    4   10 1     
   10    4   11 2     
   11    5   12 1     
   12    5   18 1     
   13    5   19 1     
   14    6   13 ar    
   15    6   20 1     
   16    7   14 ar    
   17    7   21 1     
   18    8   15 1     
   19    8   22 1     
   20   10   15 1     
   21   10   23 1     
   22   12   24 1     
   23   12   25 1     
   24   12   26 1     
   25   13   16 ar    
   26   13   27 1     
   27   14   16 ar    
   28   14   28 1     
   29   15   17 2     
   30   16   29 1     
@<TRIPOS>SUBSTRUCTURE
      1 RES1           1
@<TRIPOS>SET
DONOR_HYDROGENS      STATIC     ATOMS    <user>   **** ""
2 22 23
ATOM$RED        STATIC     ATOMS    COLORGROUP SYSTEM
2 22 23
@<TRIPOS>COMMENT
> <Gold.Version>
2022.3.0

> <Gold.Id.Protein>
unknown|3oxt_clean|pdb

> <Gold.Protein.RotatedTorsions>
[  570  565  563  560 ] final -139.35 input   59.99 | X-H torsion
[  590  585  584  581 ] final   12.18 input   60.02 | X-H torsion
[ 2787 2780 2778 2775 ] final -101.70 input   60.00 | X-H torsion
[ 2470 2461 2460 2458 ] final -158.15 input   59.98 | X-H torsion
[ 2545 2534 2533 2532 ] final  174.83 input   59.97 | X-H torsion
[ 1779 1770 1769 1767 ] final  175.76 input   59.98 | X-H torsion
[ 5059 5050 5049 5047 ] final   -7.32 input   60.00 | X-H torsion

> <Gold.Protein.ActiveResidues>
 THR48   LEU49   GLY50   THR51   GLY52   SER53   PHE54   GLY55   ARG56   VAL57  
 MET58   LEU59   VAL60   HIS68   TYR69   ALA70   MET71   LYS72   ILE73   LEU74  
 ASP75   VAL79   GLU91   LEU95   VAL104  LYS105  MET118  VAL119  MET120  GLU121 
 TYR122  VAL123  PRO124  GLY125  GLY126  GLU127  TYR164  ASP166  LYS168  GLU170 
 ASN171  LEU172  LEU173  ILE174  ASP175  GLN181  VAL182  THR183  ASP184  PHE185 
 GLY186  PHE327  ASP328  TYR330 

> <Gold.Protein.RotatedAtoms>
   20.7771  -13.6006    7.1160 H   0  0  0  0  0  0  0  0  0  0  0  0  # atno 570  bound_to 565 
   18.3972  -12.1251   -1.7921 H   0  0  0  0  0  0  0  0  0  0  0  0  # atno 590  bound_to 585 
   37.1675  -11.5951   11.0353 H   0  0  0  0  0  0  0  0  0  0  0  0  # atno 1779 bound_to 1770
   27.0017   -2.0904   -2.5319 H   0  0  0  0  0  0  0  0  0  0  0  0  # atno 2470 bound_to 2461
   20.0971   -4.9187    0.3708 H   0  0  0  0  0  0  0  0  0  0  0  0  # atno 2545 bound_to 2534
   19.6240   -4.0387    1.6939 H   0  0  0  0  0  0  0  0  0  0  0  0  # atno 2546 bound_to 2534
   19.4720   -3.3970    0.1729 H   0  0  0  0  0  0  0  0  0  0  0  0  # atno 2547 bound_to 2534
   30.6458   -8.1473   -0.8492 H   0  0  0  0  0  0  0  0  0  0  0  0  # atno 2787 bound_to 2780
   24.8273   -9.7167    9.4842 H   0  0  0  0  0  0  0  0  0  0  0  0  # atno 5059 bound_to 5050
   20.1146  -13.1034    5.7152 LP  0  0  0  0  0  0  0  0  0  0  0  0  # atno 5371 bound_to 565 
   21.4914  -12.4149    6.2602 LP  0  0  0  0  0  0  0  0  0  0  0  0  # atno 5372 bound_to 565 
   17.4867  -10.8050   -1.5140 LP  0  0  0  0  0  0  0  0  0  0  0  0  # atno 5375 bound_to 585 
   17.1356  -11.7935   -2.7655 LP  0  0  0  0  0  0  0  0  0  0  0  0  # atno 5376 bound_to 585 
   32.1826   -8.0084   -0.3324 LP  0  0  0  0  0  0  0  0  0  0  0  0  # atno 5395 bound_to 2780
   31.7725   -7.5005   -1.8292 LP  0  0  0  0  0  0  0  0  0  0  0  0  # atno 5396 bound_to 2780
   28.5861   -2.3807   -2.7636 LP  0  0  0  0  0  0  0  0  0  0  0  0  # atno 5401 bound_to 2461
   27.4679   -3.3988   -3.3799 LP  0  0  0  0  0  0  0  0  0  0  0  0  # atno 5402 bound_to 2461
   35.7326  -12.0886   10.4479 LP  0  0  0  0  0  0  0  0  0  0  0  0  # atno 5439 bound_to 1770
   36.1437  -10.5095   10.3865 LP  0  0  0  0  0  0  0  0  0  0  0  0  # atno 5440 bound_to 1770
   23.2298   -9.6287    9.7786 LP  0  0  0  0  0  0  0  0  0  0  0  0  # atno 5465 bound_to 5050
   23.7679  -10.0605    8.2985 LP  0  0  0  0  0  0  0  0  0  0  0  0  # atno 5466 bound_to 5050

> <Gold.Score>
     Fitness  S(hb_ext) S(vdw_ext)  S(hb_int)    S(int)      intcor
     41.22      12.62      21.35       0.00      -0.76      -0.77

> <Gold.Goldscore.Fitness>
41.2204

> <Gold.Goldscore.Internal.Vdw>
-1.1558

> <Gold.Goldscore.Internal.Torsion>
-0.3764

> <Gold.Goldscore.External.Vdw>
21.3528

> <Gold.Goldscore.Internal.HBond>
0.0000

> <Gold.Goldscore.External.HBond>
12.6232

> <Gold.Goldscore.Internal.Correction>
-0.7693

> <Gold.Goldscore.Hbonds>
donor molecule, donor type, donor heavy atom, donor atom, acceptor molecule, acceptor atom, score
      P1  H   580   587       L1     9  0.91
      P1  H  2534  2545       L1    17  0.95
      L1  H    10    23       P1  2502  0.85

> <Gold.Goldscore.Internal.Vdw.Weighted>
-1.1558

> <Gold.Goldscore.Internal.Torsion.Weighted>
-0.3764

> <Gold.Goldscore.External.Vdw.Weighted>
29.3602

> <Gold.Goldscore.Internal.HBond.Weighted>
0.0000

> <Gold.Goldscore.External.HBond.Weighted>
12.6232

> <Gold.Goldscore.Internal.Correction.Weighted>
-0.7693

> <Gold.Rescore>
     Score     S(PLP)   S(hbond)     S(cho)   S(metal)  DE(clash)   DE(tors)     intcor
     42.22     -35.11       2.58       0.00       0.00       0.00       0.32       ----

> <Gold.PLP.Fitness>
42.2175

> <Gold.PLP.PLP>
-35.1147

> <Gold.PLP.part.hbond>
-4.9635

> <Gold.PLP.part.metal>
0.0000

> <Gold.PLP.part.buried>
-0.6578

> <Gold.PLP.part.nonpolar>
-31.8329

> <Gold.PLP.part.repulsive>
0.6533

> <Gold.PLP.ligand.clash>
0.0000

> <Gold.PLP.ligand.torsion>
0.3186

> <Gold.PLP.Chemscore.Hbond>
2.5800

> <Gold.PLP.Chemscore.CHOScore>
0.0000

> <Gold.PLP.Chemscore.Metal>
0.0000

> <Gold.Chemscore.Hbonds>
donor molecule, donor type, donor heavy atom, donor atom, acceptor molecule, acceptor atom, score
      L1  H    10    23       P1  2502  0.99
      P1  H   580   587       L1     9  1.00
      P1  H  2534  2545       L1    17  0.78

> <Gold.PLP.Chemscore.Internal.Correction>
   9.000000E+99

#       Name:                CT1002167954
#       Creating user name   hitesit
#       Creation time:       Sun Apr 16 22:50:19 2023


#       File generated by GOLD software.
#

@<TRIPOS>MOLECULE
CT1002167954|ligand_prepared|mol2|1|dock9
    29    30     1
SMALL
NO_CHARGES


@<TRIPOS>ATOM
      1 C1          27.5378  -9.1322   2.6456 C.3            1 RES1               0.0000
      2 C2          28.8434  -9.5855   3.3303 C.ar           1 RES1               0.0000
      3 C3          26.4401 -10.0588   3.1602 C.2            1 RES1               0.0000
      4 C4          27.3440  -7.6680   3.0238 C.2            1 RES1               0.0000
      5 C5          27.5764  -9.2260   1.1025 C.3            1 RES1               0.0000
      6 C6          30.0183  -9.7206   2.5968 C.ar           1 RES1               0.0000
      7 C7          28.8890  -9.8692   4.6927 C.ar           1 RES1               0.0000
      8 N8          25.5526  -9.5477   4.0608 N.am           1 RES1               0.0000
      9 O9          26.3779 -11.2312   2.8112 O.2            1 RES1               0.0000
     10 N10         26.2678  -7.3444   3.8079 N.am           1 RES1               0.0000
     11 O11         28.1227  -6.7938   2.6636 O.2            1 RES1               0.0000
     12 C12         26.2385  -8.9435   0.4374 C.3            1 RES1               0.0000
     13 C13         31.1969 -10.1218   3.2037 C.ar           1 RES1               0.0000
     14 C14         30.0686 -10.2705   5.2976 C.ar           1 RES1               0.0000
     15 C15         25.3806  -8.2221   4.3690 C.2            1 RES1               0.0000
     16 C16         31.2230 -10.3965   4.5544 C.ar           1 RES1               0.0000
     17 O17         24.4699  -7.8596   5.1081 O.2            1 RES1               0.0000
     18 H18         28.3171  -8.5110   0.7237 H              1 RES1               0.0000
     19 H19         27.9064 -10.2328   0.8181 H              1 RES1               0.0000
     20 H20         30.0165  -9.5111   1.5323 H              1 RES1               0.0000
     21 H21         27.9928  -9.7780   5.2969 H              1 RES1               0.0000
     22 H22         24.9623 -10.2125   4.5504 H              1 RES1               0.0000
     23 H23         26.1136  -6.3578   3.9902 H              1 RES1               0.0000
     24 H24         26.3213  -9.0226  -0.6445 H              1 RES1               0.0000
     25 H25         25.4840  -9.6522   0.7722 H              1 RES1               0.0000
     26 H26         25.8922  -7.9406   0.6784 H              1 RES1               0.0000
     27 H27         32.1023 -10.2207   2.6142 H              1 RES1               0.0000
     28 H28         30.0844 -10.4863   6.3608 H              1 RES1               0.0000
     29 H29         32.1464 -10.7104   5.0297 H              1 RES1               0.0000
@<TRIPOS>BOND
    1    1    2 1     
    2    1    3 1     
    3    1    4 1     
    4    1    5 1     
    5    2    6 ar    
    6    2    7 ar    
    7    3    8 1     
    8    3    9 2     
    9    4   10 1     
   10    4   11 2     
   11    5   12 1     
   12    5   18 1     
   13    5   19 1     
   14    6   13 ar    
   15    6   20 1     
   16    7   14 ar    
   17    7   21 1     
   18    8   15 1     
   19    8   22 1     
   20   10   15 1     
   21   10   23 1     
   22   12   24 1     
   23   12   25 1     
   24   12   26 1     
   25   13   16 ar    
   26   13   27 1     
   27   14   16 ar    
   28   14   28 1     
   29   15   17 2     
   30   16   29 1     
@<TRIPOS>SUBSTRUCTURE
      1 RES1           1
@<TRIPOS>SET
DONOR_HYDROGENS      STATIC     ATOMS    <user>   **** ""
2 22 23
ATOM$RED        STATIC     ATOMS    COLORGROUP SYSTEM
2 22 23
@<TRIPOS>COMMENT
> <Gold.Version>
2022.3.0

> <Gold.Id.Protein>
unknown|3oxt_clean|pdb

> <Gold.Protein.RotatedTorsions>
[  570  565  563  560 ] final   28.80 input   59.99 | X-H torsion
[  590  585  584  581 ] final  -43.85 input   60.02 | X-H torsion
[ 2787 2780 2778 2775 ] final -142.42 input   60.00 | X-H torsion
[ 2470 2461 2460 2458 ] final  -95.39 input   59.98 | X-H torsion
[ 2545 2534 2533 2532 ] final  170.05 input   59.97 | X-H torsion
[ 1779 1770 1769 1767 ] final    3.54 input   59.98 | X-H torsion
[ 5059 5050 5049 5047 ] final  128.80 input   60.00 | X-H torsion

> <Gold.Protein.ActiveResidues>
 THR48   LEU49   GLY50   THR51   GLY52   SER53   PHE54   GLY55   ARG56   VAL57  
 MET58   LEU59   VAL60   HIS68   TYR69   ALA70   MET71   LYS72   ILE73   LEU74  
 ASP75   VAL79   GLU91   LEU95   VAL104  LYS105  MET118  VAL119  MET120  GLU121 
 TYR122  VAL123  PRO124  GLY125  GLY126  GLU127  TYR164  ASP166  LYS168  GLU170 
 ASN171  LEU172  LEU173  ILE174  ASP175  GLN181  VAL182  THR183  ASP184  PHE185 
 GLY186  PHE327  ASP328  TYR330 

> <Gold.Protein.RotatedAtoms>
   20.9753  -12.4145    5.6933 H   0  0  0  0  0  0  0  0  0  0  0  0  # atno 570  bound_to 565 
   18.2451  -11.4129   -1.2985 H   0  0  0  0  0  0  0  0  0  0  0  0  # atno 590  bound_to 585 
   35.5093  -11.3261   10.2188 H   0  0  0  0  0  0  0  0  0  0  0  0  # atno 1779 bound_to 1770
   26.8015   -2.8973   -3.0418 H   0  0  0  0  0  0  0  0  0  0  0  0  # atno 2470 bound_to 2461
   20.0885   -4.8850    0.2990 H   0  0  0  0  0  0  0  0  0  0  0  0  # atno 2545 bound_to 2534
   19.6544   -4.1122    1.7001 H   0  0  0  0  0  0  0  0  0  0  0  0  # atno 2546 bound_to 2534
   19.4501   -3.3572    0.2385 H   0  0  0  0  0  0  0  0  0  0  0  0  # atno 2547 bound_to 2534
   31.0136   -8.2737   -0.3266 H   0  0  0  0  0  0  0  0  0  0  0  0  # atno 2787 bound_to 2780
   23.5210  -10.0367    8.3872 H   0  0  0  0  0  0  0  0  0  0  0  0  # atno 5059 bound_to 5050
   21.3737  -13.1193    7.1051 LP  0  0  0  0  0  0  0  0  0  0  0  0  # atno 5371 bound_to 565 
   20.0328  -13.5930    6.3025 LP  0  0  0  0  0  0  0  0  0  0  0  0  # atno 5372 bound_to 565 
   16.9629  -10.9849   -2.2050 LP  0  0  0  0  0  0  0  0  0  0  0  0  # atno 5375 bound_to 585 
   17.8126  -12.3304   -2.5714 LP  0  0  0  0  0  0  0  0  0  0  0  0  # atno 5376 bound_to 585 
   32.4515   -7.7339   -0.8642 LP  0  0  0  0  0  0  0  0  0  0  0  0  # atno 5395 bound_to 2780
   31.1331   -7.6477   -1.8239 LP  0  0  0  0  0  0  0  0  0  0  0  0  # atno 5396 bound_to 2780
   27.8549   -1.8392   -2.3945 LP  0  0  0  0  0  0  0  0  0  0  0  0  # atno 5401 bound_to 2461
   28.4007   -3.1280   -3.2357 LP  0  0  0  0  0  0  0  0  0  0  0  0  # atno 5402 bound_to 2461
   36.8805  -10.6289   10.7493 LP  0  0  0  0  0  0  0  0  0  0  0  0  # atno 5439 bound_to 1770
   36.6660  -12.2400   10.9075 LP  0  0  0  0  0  0  0  0  0  0  0  0  # atno 5440 bound_to 1770
   24.8854   -9.7867    9.2370 LP  0  0  0  0  0  0  0  0  0  0  0  0  # atno 5465 bound_to 5050
   23.4289   -9.5800    9.9458 LP  0  0  0  0  0  0  0  0  0  0  0  0  # atno 5466 bound_to 5050

> <Gold.Score>
     Fitness  S(hb_ext) S(vdw_ext)  S(hb_int)    S(int)      intcor
     35.80       1.26      25.63       0.00      -0.70      -0.77

> <Gold.Goldscore.Fitness>
35.7999

> <Gold.Goldscore.Internal.Vdw>
-1.0196

> <Gold.Goldscore.Internal.Torsion>
-0.4516

> <Gold.Goldscore.External.Vdw>
25.6286

> <Gold.Goldscore.Internal.HBond>
0.0000

> <Gold.Goldscore.External.HBond>
1.2626

> <Gold.Goldscore.Internal.Correction>
-0.7693

> <Gold.Goldscore.Hbonds>
donor molecule, donor type, donor heavy atom, donor atom, acceptor molecule, acceptor atom, score
      L1  H    10    23       P1  2565  0.63

> <Gold.Goldscore.Internal.Vdw.Weighted>
-1.0196

> <Gold.Goldscore.Internal.Torsion.Weighted>
-0.4516

> <Gold.Goldscore.External.Vdw.Weighted>
35.2393

> <Gold.Goldscore.Internal.HBond.Weighted>
0.0000

> <Gold.Goldscore.External.HBond.Weighted>
1.2626

> <Gold.Goldscore.Internal.Correction.Weighted>
-0.7693

> <Gold.Rescore>
     Score     S(PLP)   S(hbond)     S(cho)   S(metal)  DE(clash)   DE(tors)     intcor
     35.35     -32.93       0.99       0.00       0.00       0.00       0.28       ----

> <Gold.PLP.Fitness>
35.3456

> <Gold.PLP.PLP>
-32.9252

> <Gold.PLP.part.hbond>
-1.0113

> <Gold.PLP.part.metal>
0.0000

> <Gold.PLP.part.buried>
-0.2272

> <Gold.PLP.part.nonpolar>
-33.5822

> <Gold.PLP.part.repulsive>
1.3015

> <Gold.PLP.ligand.clash>
0.0000

> <Gold.PLP.ligand.torsion>
0.2778

> <Gold.PLP.Chemscore.Hbond>
0.9920

> <Gold.PLP.Chemscore.CHOScore>
0.0000

> <Gold.PLP.Chemscore.Metal>
0.0000

> <Gold.Chemscore.Hbonds>
donor molecule, donor type, donor heavy atom, donor atom, acceptor molecule, acceptor atom, score
      L1  H    10    23       P1  2565  1.00

> <Gold.PLP.Chemscore.Internal.Correction>
   9.000000E+99

#       Name:                CT1002167954
#       Creating user name   hitesit
#       Creation time:       Sun Apr 16 22:50:17 2023


#       File generated by GOLD software.
#

@<TRIPOS>MOLECULE
CT1002167954|ligand_prepared|mol2|1|dock7
    29    30     1
SMALL
NO_CHARGES


@<TRIPOS>ATOM
      1 C1          26.7317  -8.8445   2.3685 C.3            1 RES1               0.0000
      2 C2          28.1631  -9.3147   2.0389 C.ar           1 RES1               0.0000
      3 C3          26.2316  -8.0973   1.1356 C.2            1 RES1               0.0000
      4 C4          25.9352 -10.1018   2.6994 C.2            1 RES1               0.0000
      5 C5          26.6509  -7.8937   3.5854 C.3            1 RES1               0.0000
      6 C6          28.4765  -9.7966   0.7715 C.ar           1 RES1               0.0000
      7 C7          29.1797  -9.2700   2.9893 C.ar           1 RES1               0.0000
      8 N8          25.3060  -8.7202   0.3514 N.am           1 RES1               0.0000
      9 O9          26.6721  -6.9947   0.8343 O.2            1 RES1               0.0000
     10 N10         24.9155 -10.4566   1.8556 N.am           1 RES1               0.0000
     11 O11         26.1923 -10.7976   3.6741 O.2            1 RES1               0.0000
     12 C12         25.2764  -7.2770   3.7916 C.3            1 RES1               0.0000
     13 C13         29.7603 -10.2160   0.4644 C.ar           1 RES1               0.0000
     14 C14         30.4628  -9.6901   2.6801 C.ar           1 RES1               0.0000
     15 C15         24.5846  -9.8398   0.6799 C.2            1 RES1               0.0000
     16 C16         30.7543 -10.1627   1.4182 C.ar           1 RES1               0.0000
     17 O17         23.6892 -10.2505  -0.0528 O.2            1 RES1               0.0000
     18 H18         26.9266  -8.4520   4.4886 H              1 RES1               0.0000
     19 H19         27.3832  -7.0877   3.4530 H              1 RES1               0.0000
     20 H20         27.7068  -9.8483   0.0087 H              1 RES1               0.0000
     21 H21         28.9731  -8.9030   3.9889 H              1 RES1               0.0000
     22 H22         25.1342  -8.3164  -0.5638 H              1 RES1               0.0000
     23 H23         24.3507 -11.2543   2.1293 H              1 RES1               0.0000
     24 H24         25.2749  -6.6189   4.6579 H              1 RES1               0.0000
     25 H25         24.9811  -6.6934   2.9221 H              1 RES1               0.0000
     26 H26         24.5271  -8.0496   3.9516 H              1 RES1               0.0000
     27 H27         29.9843 -10.5884  -0.5298 H              1 RES1               0.0000
     28 H28         31.2418  -9.6470   3.4341 H              1 RES1               0.0000
     29 H29         31.7600 -10.4909   1.1773 H              1 RES1               0.0000
@<TRIPOS>BOND
    1    1    2 1     
    2    1    3 1     
    3    1    4 1     
    4    1    5 1     
    5    2    6 ar    
    6    2    7 ar    
    7    3    8 1     
    8    3    9 2     
    9    4   10 1     
   10    4   11 2     
   11    5   12 1     
   12    5   18 1     
   13    5   19 1     
   14    6   13 ar    
   15    6   20 1     
   16    7   14 ar    
   17    7   21 1     
   18    8   15 1     
   19    8   22 1     
   20   10   15 1     
   21   10   23 1     
   22   12   24 1     
   23   12   25 1     
   24   12   26 1     
   25   13   16 ar    
   26   13   27 1     
   27   14   16 ar    
   28   14   28 1     
   29   15   17 2     
   30   16   29 1     
@<TRIPOS>SUBSTRUCTURE
      1 RES1           1
@<TRIPOS>SET
DONOR_HYDROGENS      STATIC     ATOMS    <user>   **** ""
2 22 23
ATOM$RED        STATIC     ATOMS    COLORGROUP SYSTEM
2 22 23
@<TRIPOS>COMMENT
> <Gold.Version>
2022.3.0

> <Gold.Id.Protein>
unknown|3oxt_clean|pdb

> <Gold.Protein.RotatedTorsions>
[  570  565  563  560 ] final  128.46 input   59.99 | X-H torsion
[  590  585  584  581 ] final  -78.52 input   60.02 | X-H torsion
[ 2787 2780 2778 2775 ] final  153.56 input   60.00 | X-H torsion
[ 2470 2461 2460 2458 ] final  -92.17 input   59.98 | X-H torsion
[ 2545 2534 2533 2532 ] final -153.41 input   59.97 | X-H torsion
[ 1779 1770 1769 1767 ] final  -32.75 input   59.98 | X-H torsion
[ 5059 5050 5049 5047 ] final   93.29 input   60.00 | X-H torsion

> <Gold.Protein.ActiveResidues>
 THR48   LEU49   GLY50   THR51   GLY52   SER53   PHE54   GLY55   ARG56   VAL57  
 MET58   LEU59   VAL60   HIS68   TYR69   ALA70   MET71   LYS72   ILE73   LEU74  
 ASP75   VAL79   GLU91   LEU95   VAL104  LYS105  MET118  VAL119  MET120  GLU121 
 TYR122  VAL123  PRO124  GLY125  GLY126  GLU127  TYR164  ASP166  LYS168  GLU170 
 ASN171  LEU172  LEU173  ILE174  ASP175  GLN181  VAL182  THR183  ASP184  PHE185 
 GLY186  PHE327  ASP328  TYR330 

> <Gold.Protein.RotatedAtoms>
   20.0071  -13.4153    6.0235 H   0  0  0  0  0  0  0  0  0  0  0  0  # atno 570  bound_to 565 
   17.8664  -11.0030   -1.3075 H   0  0  0  0  0  0  0  0  0  0  0  0  # atno 590  bound_to 585 
   35.7452  -10.7935   10.2434 H   0  0  0  0  0  0  0  0  0  0  0  0  # atno 1779 bound_to 1770
   26.8204   -2.9383   -3.0686 H   0  0  0  0  0  0  0  0  0  0  0  0  # atno 2470 bound_to 2461
   20.0886   -4.9940    0.8891 H   0  0  0  0  0  0  0  0  0  0  0  0  # atno 2545 bound_to 2534
   19.4498   -3.5877    1.4917 H   0  0  0  0  0  0  0  0  0  0  0  0  # atno 2546 bound_to 2534
   19.6547   -3.7725   -0.1429 H   0  0  0  0  0  0  0  0  0  0  0  0  # atno 2547 bound_to 2534
   31.9840   -8.0995   -0.2120 H   0  0  0  0  0  0  0  0  0  0  0  0  # atno 2787 bound_to 2780
   24.0845  -10.0621    8.3004 H   0  0  0  0  0  0  0  0  0  0  0  0  # atno 5059 bound_to 5050
   21.2328  -12.3527    5.8933 LP  0  0  0  0  0  0  0  0  0  0  0  0  # atno 5371 bound_to 565 
   21.1484  -13.3521    7.1819 LP  0  0  0  0  0  0  0  0  0  0  0  0  # atno 5372 bound_to 565 
   16.9456  -11.3918   -2.5920 LP  0  0  0  0  0  0  0  0  0  0  0  0  # atno 5375 bound_to 585 
   18.2110  -12.3361   -2.1753 LP  0  0  0  0  0  0  0  0  0  0  0  0  # atno 5376 bound_to 585 
   31.9983   -7.4924   -1.7217 LP  0  0  0  0  0  0  0  0  0  0  0  0  # atno 5395 bound_to 2780
   30.6091   -8.0646   -1.0818 LP  0  0  0  0  0  0  0  0  0  0  0  0  # atno 5396 bound_to 2780
   27.8027   -1.8330   -2.3889 LP  0  0  0  0  0  0  0  0  0  0  0  0  # atno 5401 bound_to 2461
   28.4339   -3.0928   -3.2143 LP  0  0  0  0  0  0  0  0  0  0  0  0  # atno 5402 bound_to 2461
   37.1752  -11.0908   10.9608 LP  0  0  0  0  0  0  0  0  0  0  0  0  # atno 5439 bound_to 1770
   36.1336  -12.3146   10.6712 LP  0  0  0  0  0  0  0  0  0  0  0  0  # atno 5440 bound_to 1770
   24.6804   -9.6362    9.7529 LP  0  0  0  0  0  0  0  0  0  0  0  0  # atno 5465 bound_to 5050
   23.0660   -9.7049    9.5175 LP  0  0  0  0  0  0  0  0  0  0  0  0  # atno 5466 bound_to 5050

> <Gold.Score>
     Fitness  S(hb_ext) S(vdw_ext)  S(hb_int)    S(int)      intcor
     35.57       3.15      23.78       0.00      -0.28      -0.77

> <Gold.Goldscore.Fitness>
35.5738

> <Gold.Goldscore.Internal.Vdw>
-0.5775

> <Gold.Goldscore.Internal.Torsion>
-0.4747

> <Gold.Goldscore.External.Vdw>
23.7848

> <Gold.Goldscore.Internal.HBond>
0.0000

> <Gold.Goldscore.External.HBond>
3.1525

> <Gold.Goldscore.Internal.Correction>
-0.7693

> <Gold.Goldscore.Hbonds>
donor molecule, donor type, donor heavy atom, donor atom, acceptor molecule, acceptor atom, score
      L1  H     8    22       P1  2794  0.53

> <Gold.Goldscore.Internal.Vdw.Weighted>
-0.5775

> <Gold.Goldscore.Internal.Torsion.Weighted>
-0.4747

> <Gold.Goldscore.External.Vdw.Weighted>
32.7041

> <Gold.Goldscore.Internal.HBond.Weighted>
0.0000

> <Gold.Goldscore.External.HBond.Weighted>
3.1525

> <Gold.Goldscore.Internal.Correction.Weighted>
-0.7693

> <Gold.Rescore>
     Score     S(PLP)   S(hbond)     S(cho)   S(metal)  DE(clash)   DE(tors)     intcor
     27.33     -26.89       0.77       0.00       0.00       0.00       0.93       ----

> <Gold.PLP.Fitness>
27.3346

> <Gold.PLP.PLP>
-26.8937

> <Gold.PLP.part.hbond>
-1.0000

> <Gold.PLP.part.metal>
0.0000

> <Gold.PLP.part.buried>
-2.1243

> <Gold.PLP.part.nonpolar>
-28.1175

> <Gold.PLP.part.repulsive>
3.8337

> <Gold.PLP.ligand.clash>
0.0000

> <Gold.PLP.ligand.torsion>
0.9322

> <Gold.PLP.Chemscore.Hbond>
0.7684

> <Gold.PLP.Chemscore.CHOScore>
0.0000

> <Gold.PLP.Chemscore.Metal>
0.0000

> <Gold.Chemscore.Hbonds>
donor molecule, donor type, donor heavy atom, donor atom, acceptor molecule, acceptor atom, score
      L1  H     8    22       P1  2794  1.00

> <Gold.PLP.Chemscore.Internal.Correction>
   9.000000E+99

#       Name:                CT1002167954
#       Creating user name   hitesit
#       Creation time:       Sun Apr 16 22:50:20 2023


#       File generated by GOLD software.
#

@<TRIPOS>MOLECULE
CT1002167954|ligand_prepared|mol2|1|dock10
    29    30     1
SMALL
NO_CHARGES


@<TRIPOS>ATOM
      1 C1          26.8811  -9.3733   2.2961 C.3            1 RES1               0.0000
      2 C2          28.3059  -9.5099   1.7216 C.ar           1 RES1               0.0000
      3 C3          25.9409  -9.2988   1.0966 C.2            1 RES1               0.0000
      4 C4          26.6607 -10.5926   3.1846 C.2            1 RES1               0.0000
      5 C5          26.6748  -8.1082   3.1612 C.3            1 RES1               0.0000
      6 C6          29.4155  -9.4645   2.5604 C.ar           1 RES1               0.0000
      7 C7          28.5262  -9.6841   0.3579 C.ar           1 RES1               0.0000
      8 N8          25.1811 -10.3971   0.8202 N.am           1 RES1               0.0000
      9 O9          25.8958  -8.3060   0.3807 O.2            1 RES1               0.0000
     10 N10         25.7078 -11.5008   2.8037 N.am           1 RES1               0.0000
     11 O11         27.3150 -10.7835   4.2022 O.2            1 RES1               0.0000
     12 C12         25.2479  -7.9292   3.6551 C.3            1 RES1               0.0000
     13 C13         30.6986  -9.5917   2.0547 C.ar           1 RES1               0.0000
     14 C14         29.8102  -9.8108  -0.1458 C.ar           1 RES1               0.0000
     15 C15         24.9795 -11.4740   1.6456 C.2            1 RES1               0.0000
     16 C16         30.8968  -9.7653   0.7015 C.ar           1 RES1               0.0000
     17 O17         24.1799 -12.3564   1.3471 O.2            1 RES1               0.0000
     18 H18         27.3447  -8.1603   4.0283 H              1 RES1               0.0000
     19 H19         26.9574  -7.2273   2.5716 H              1 RES1               0.0000
     20 H20         29.2792  -9.3261   3.6278 H              1 RES1               0.0000
     21 H21         27.6863  -9.7218  -0.3276 H              1 RES1               0.0000
     22 H22         24.7204 -10.4199  -0.0840 H              1 RES1               0.0000
     23 H23         25.5244 -12.2678   3.4427 H              1 RES1               0.0000
     24 H24         25.1583  -7.0271   4.2567 H              1 RES1               0.0000
     25 H25         24.5572  -7.8484   2.8183 H              1 RES1               0.0000
     26 H26         24.9422  -8.7758   4.2663 H              1 RES1               0.0000
     27 H27         31.5505  -9.5538   2.7256 H              1 RES1               0.0000
     28 H28         29.9615  -9.9467  -1.2116 H              1 RES1               0.0000
     29 H29         31.9020  -9.8653   0.3056 H              1 RES1               0.0000
@<TRIPOS>BOND
    1    1    2 1     
    2    1    3 1     
    3    1    4 1     
    4    1    5 1     
    5    2    6 ar    
    6    2    7 ar    
    7    3    8 1     
    8    3    9 2     
    9    4   10 1     
   10    4   11 2     
   11    5   12 1     
   12    5   18 1     
   13    5   19 1     
   14    6   13 ar    
   15    6   20 1     
   16    7   14 ar    
   17    7   21 1     
   18    8   15 1     
   19    8   22 1     
   20   10   15 1     
   21   10   23 1     
   22   12   24 1     
   23   12   25 1     
   24   12   26 1     
   25   13   16 ar    
   26   13   27 1     
   27   14   16 ar    
   28   14   28 1     
   29   15   17 2     
   30   16   29 1     
@<TRIPOS>SUBSTRUCTURE
      1 RES1           1
@<TRIPOS>SET
DONOR_HYDROGENS      STATIC     ATOMS    <user>   **** ""
2 22 23
ATOM$RED        STATIC     ATOMS    COLORGROUP SYSTEM
2 22 23
@<TRIPOS>COMMENT
> <Gold.Version>
2022.3.0

> <Gold.Id.Protein>
unknown|3oxt_clean|pdb

> <Gold.Protein.RotatedTorsions>
[  570  565  563  560 ] final  -69.90 input   59.99 | X-H torsion
[  590  585  584  581 ] final -142.32 input   60.02 | X-H torsion
[ 2787 2780 2778 2775 ] final   71.76 input   60.00 | X-H torsion
[ 2470 2461 2460 2458 ] final -128.09 input   59.98 | X-H torsion
[ 2545 2534 2533 2532 ] final   76.86 input   59.97 | X-H torsion
[ 1779 1770 1769 1767 ] final -111.59 input   59.98 | X-H torsion
[ 5059 5050 5049 5047 ] final   98.65 input   60.00 | X-H torsion

> <Gold.Protein.ActiveResidues>
 THR48   LEU49   GLY50   THR51   GLY52   SER53   PHE54   GLY55   ARG56   VAL57  
 MET58   LEU59   VAL60   HIS68   TYR69   ALA70   MET71   LYS72   ILE73   LEU74  
 ASP75   VAL79   GLU91   LEU95   VAL104  LYS105  MET118  VAL119  MET120  GLU121 
 TYR122  VAL123  PRO124  GLY125  GLY126  GLU127  TYR164  ASP166  LYS168  GLU170 
 ASN171  LEU172  LEU173  ILE174  ASP175  GLN181  VAL182  THR183  ASP184  PHE185 
 GLY186  PHE327  ASP328  TYR330 

> <Gold.Protein.RotatedAtoms>
   21.5282  -12.8685    6.9209 H   0  0  0  0  0  0  0  0  0  0  0  0  # atno 570  bound_to 565 
   17.1076  -10.8374   -1.9212 H   0  0  0  0  0  0  0  0  0  0  0  0  # atno 590  bound_to 585 
   36.8192  -10.5930   10.7122 H   0  0  0  0  0  0  0  0  0  0  0  0  # atno 1779 bound_to 1770
   26.7723   -2.4541   -2.7575 H   0  0  0  0  0  0  0  0  0  0  0  0  # atno 2470 bound_to 2461
   19.5929   -3.6398   -0.0715 H   0  0  0  0  0  0  0  0  0  0  0  0  # atno 2545 bound_to 2534
   20.1038   -4.9996    0.7277 H   0  0  0  0  0  0  0  0  0  0  0  0  # atno 2546 bound_to 2534
   19.4963   -3.7147    1.5809 H   0  0  0  0  0  0  0  0  0  0  0  0  # atno 2547 bound_to 2534
   32.3841   -7.5907   -1.2531 H   0  0  0  0  0  0  0  0  0  0  0  0  # atno 2787 bound_to 2780
   23.9975  -10.0646    8.2916 H   0  0  0  0  0  0  0  0  0  0  0  0  # atno 5059 bound_to 5050
   20.1684  -13.7044    6.6037 LP  0  0  0  0  0  0  0  0  0  0  0  0  # atno 5371 bound_to 565 
   20.6814  -12.5509    5.5680 LP  0  0  0  0  0  0  0  0  0  0  0  0  # atno 5372 bound_to 565 
   17.5302  -12.1875   -2.7260 LP  0  0  0  0  0  0  0  0  0  0  0  0  # atno 5375 bound_to 585 
   18.3902  -11.7071   -1.4235 LP  0  0  0  0  0  0  0  0  0  0  0  0  # atno 5376 bound_to 585 
   30.8104   -7.8085   -1.6057 LP  0  0  0  0  0  0  0  0  0  0  0  0  # atno 5395 bound_to 2780
   31.3940   -8.2609   -0.1492 LP  0  0  0  0  0  0  0  0  0  0  0  0  # atno 5396 bound_to 2780
   28.3286   -2.0343   -2.5340 LP  0  0  0  0  0  0  0  0  0  0  0  0  # atno 5401 bound_to 2461
   27.9565   -3.3790   -3.3825 LP  0  0  0  0  0  0  0  0  0  0  0  0  # atno 5402 bound_to 2461
   36.7324  -12.2029   10.9325 LP  0  0  0  0  0  0  0  0  0  0  0  0  # atno 5439 bound_to 1770
   35.4948  -11.4044   10.2273 LP  0  0  0  0  0  0  0  0  0  0  0  0  # atno 5440 bound_to 1770
   24.7322   -9.6562    9.6843 LP  0  0  0  0  0  0  0  0  0  0  0  0  # atno 5465 bound_to 5050
   23.1019   -9.6823    9.5948 LP  0  0  0  0  0  0  0  0  0  0  0  0  # atno 5466 bound_to 5050

> <Gold.Score>
     Fitness  S(hb_ext) S(vdw_ext)  S(hb_int)    S(int)      intcor
     35.07       0.08      26.86       0.00      -1.93      -0.76

> <Gold.Goldscore.Fitness>
35.0740

> <Gold.Goldscore.Internal.Vdw>
-2.2977

> <Gold.Goldscore.Internal.Torsion>
-0.3902

> <Gold.Goldscore.External.Vdw>
26.8559

> <Gold.Goldscore.Internal.HBond>
0.0000

> <Gold.Goldscore.External.HBond>
0.0765

> <Gold.Goldscore.Internal.Correction>
-0.7585

> <Gold.Goldscore.Hbonds>
donor molecule, donor type, donor heavy atom, donor atom, acceptor molecule, acceptor atom, score
      L1  H    10    23       P1   555  0.04

> <Gold.Goldscore.Internal.Vdw.Weighted>
-2.2977

> <Gold.Goldscore.Internal.Torsion.Weighted>
-0.3902

> <Gold.Goldscore.External.Vdw.Weighted>
36.9269

> <Gold.Goldscore.Internal.HBond.Weighted>
0.0000

> <Gold.Goldscore.External.HBond.Weighted>
0.0765

> <Gold.Goldscore.Internal.Correction.Weighted>
-0.7585

> <Gold.Rescore>
     Score     S(PLP)   S(hbond)     S(cho)   S(metal)  DE(clash)   DE(tors)     intcor
     29.42     -30.86       0.00       0.00       0.00       1.21       0.12       ----

> <Gold.PLP.Fitness>
29.4161

> <Gold.PLP.PLP>
-30.8616

> <Gold.PLP.part.hbond>
0.0000

> <Gold.PLP.part.metal>
0.0000

> <Gold.PLP.part.buried>
0.3209

> <Gold.PLP.part.nonpolar>
-32.3300

> <Gold.PLP.part.repulsive>
0.5950

> <Gold.PLP.ligand.clash>
1.2061

> <Gold.PLP.ligand.torsion>
0.1197

> <Gold.PLP.Chemscore.Hbond>
0.0000

> <Gold.PLP.Chemscore.CHOScore>
0.0000

> <Gold.PLP.Chemscore.Metal>
0.0000

> <Gold.PLP.Chemscore.Internal.Correction>
   9.000000E+99

#       Name:                CT1002167954
#       Creating user name   hitesit
#       Creation time:       Sun Apr 16 22:50:18 2023


#       File generated by GOLD software.
#

@<TRIPOS>MOLECULE
CT1002167954|ligand_prepared|mol2|1|dock8
    29    30     1
SMALL
NO_CHARGES


@<TRIPOS>ATOM
      1 C1          25.1158  -9.7684   1.4445 C.3            1 RES1               0.0000
      2 C2          24.7420 -11.0374   0.6515 C.ar           1 RES1               0.0000
      3 C3          23.8441  -8.9301   1.5358 C.2            1 RES1               0.0000
      4 C4          25.6431 -10.2476   2.7924 C.2            1 RES1               0.0000
      5 C5          26.2191  -8.9160   0.7755 C.3            1 RES1               0.0000
      6 C6          24.4679 -12.2310   1.3125 C.ar           1 RES1               0.0000
      7 C7          24.6647 -11.0293  -0.7386 C.ar           1 RES1               0.0000
      8 N8          23.2032  -8.8833   2.7387 N.am           1 RES1               0.0000
      9 O9          23.3888  -8.3511   0.5571 O.2            1 RES1               0.0000
     10 N10         24.9192  -9.9349   3.9131 N.am           1 RES1               0.0000
     11 O11         26.6703 -10.9073   2.8925 O.2            1 RES1               0.0000
     12 C12         26.7568  -7.8038   1.6621 C.3            1 RES1               0.0000
     13 C13         24.1261 -13.3743   0.6096 C.ar           1 RES1               0.0000
     14 C14         24.3229 -12.1739  -1.4397 C.ar           1 RES1               0.0000
     15 C15         23.7071  -9.3009   3.9443 C.2            1 RES1               0.0000
     16 C16         24.0529 -13.3465  -0.7668 C.ar           1 RES1               0.0000
     17 O17         23.0909  -9.1037   4.9876 O.2            1 RES1               0.0000
     18 H18         27.0497  -9.5736   0.4911 H              1 RES1               0.0000
     19 H19         25.8141  -8.4714  -0.1420 H              1 RES1               0.0000
     20 H20         24.5229 -12.2727   2.3953 H              1 RES1               0.0000
     21 H21         24.8740 -10.1183  -1.2891 H              1 RES1               0.0000
     22 H22         22.2622  -8.5027   2.7421 H              1 RES1               0.0000
     23 H23         25.3212 -10.1992   4.8069 H              1 RES1               0.0000
     24 H24         27.5278  -7.2367   1.1447 H              1 RES1               0.0000
     25 H25         25.9618  -7.1164   1.9436 H              1 RES1               0.0000
     26 H26         27.1901  -8.2121   2.5729 H              1 RES1               0.0000
     27 H27         23.9159 -14.2950   1.1438 H              1 RES1               0.0000
     28 H28         24.2671 -12.1475  -2.5230 H              1 RES1               0.0000
     29 H29         23.7847 -14.2422  -1.3173 H              1 RES1               0.0000
@<TRIPOS>BOND
    1    1    2 1     
    2    1    3 1     
    3    1    4 1     
    4    1    5 1     
    5    2    6 ar    
    6    2    7 ar    
    7    3    8 1     
    8    3    9 2     
    9    4   10 1     
   10    4   11 2     
   11    5   12 1     
   12    5   18 1     
   13    5   19 1     
   14    6   13 ar    
   15    6   20 1     
   16    7   14 ar    
   17    7   21 1     
   18    8   15 1     
   19    8   22 1     
   20   10   15 1     
   21   10   23 1     
   22   12   24 1     
   23   12   25 1     
   24   12   26 1     
   25   13   16 ar    
   26   13   27 1     
   27   14   16 ar    
   28   14   28 1     
   29   15   17 2     
   30   16   29 1     
@<TRIPOS>SUBSTRUCTURE
      1 RES1           1
@<TRIPOS>SET
DONOR_HYDROGENS      STATIC     ATOMS    <user>   **** ""
2 22 23
ATOM$RED        STATIC     ATOMS    COLORGROUP SYSTEM
2 22 23
@<TRIPOS>COMMENT
> <Gold.Version>
2022.3.0

> <Gold.Id.Protein>
unknown|3oxt_clean|pdb

> <Gold.Protein.RotatedTorsions>
[  570  565  563  560 ] final   16.02 input   59.99 | X-H torsion
[  590  585  584  581 ] final   48.93 input   60.02 | X-H torsion
[ 2787 2780 2778 2775 ] final  -64.83 input   60.00 | X-H torsion
[ 2470 2461 2460 2458 ] final  135.44 input   59.98 | X-H torsion
[ 2545 2534 2533 2532 ] final -127.93 input   59.97 | X-H torsion
[ 1779 1770 1769 1767 ] final  -23.11 input   59.98 | X-H torsion
[ 5059 5050 5049 5047 ] final   91.81 input   60.00 | X-H torsion

> <Gold.Protein.ActiveResidues>
 THR48   LEU49   GLY50   THR51   GLY52   SER53   PHE54   GLY55   ARG56   VAL57  
 MET58   LEU59   VAL60   HIS68   TYR69   ALA70   MET71   LYS72   ILE73   LEU74  
 ASP75   VAL79   GLU91   LEU95   VAL104  LYS105  MET118  VAL119  MET120  GLU121 
 TYR122  VAL123  PRO124  GLY125  GLY126  GLU127  TYR164  ASP166  LYS168  GLU170 
 ASN171  LEU172  LEU173  ILE174  ASP175  GLN181  VAL182  THR183  ASP184  PHE185 
 GLY186  PHE327  ASP328  TYR330 

> <Gold.Protein.RotatedAtoms>
   21.1410  -12.3700    5.8118 H   0  0  0  0  0  0  0  0  0  0  0  0  # atno 570  bound_to 565 
   18.1329  -12.3553   -2.2674 H   0  0  0  0  0  0  0  0  0  0  0  0  # atno 590  bound_to 585 
   35.6538  -10.9195   10.2210 H   0  0  0  0  0  0  0  0  0  0  0  0  # atno 1779 bound_to 1770
   27.9983   -1.8737   -2.4244 H   0  0  0  0  0  0  0  0  0  0  0  0  # atno 2470 bound_to 2461
   20.0030   -4.8631    1.2811 H   0  0  0  0  0  0  0  0  0  0  0  0  # atno 2545 bound_to 2534
   19.3692   -3.3357    1.1627 H   0  0  0  0  0  0  0  0  0  0  0  0  # atno 2546 bound_to 2534
   19.8207   -4.1552   -0.2058 H   0  0  0  0  0  0  0  0  0  0  0  0  # atno 2547 bound_to 2534
   30.6818   -7.9201   -1.3947 H   0  0  0  0  0  0  0  0  0  0  0  0  # atno 2787 bound_to 2780
   24.1083  -10.0610    8.3041 H   0  0  0  0  0  0  0  0  0  0  0  0  # atno 5059 bound_to 5050
   21.2390  -13.2687    7.1650 LP  0  0  0  0  0  0  0  0  0  0  0  0  # atno 5371 bound_to 565 
   20.0007  -13.4885    6.1233 LP  0  0  0  0  0  0  0  0  0  0  0  0  # atno 5372 bound_to 565 
   17.9622  -11.0735   -1.2790 LP  0  0  0  0  0  0  0  0  0  0  0  0  # atno 5375 bound_to 585 
   16.9262  -11.2932   -2.5221 LP  0  0  0  0  0  0  0  0  0  0  0  0  # atno 5376 bound_to 585 
   31.6603   -8.2094   -0.1271 LP  0  0  0  0  0  0  0  0  0  0  0  0  # atno 5395 bound_to 2780
   32.2586   -7.5283   -1.4852 LP  0  0  0  0  0  0  0  0  0  0  0  0  # atno 5396 bound_to 2780
   28.2941   -3.2192   -3.2907 LP  0  0  0  0  0  0  0  0  0  0  0  0  # atno 5401 bound_to 2461
   26.7566   -2.7784   -2.9610 LP  0  0  0  0  0  0  0  0  0  0  0  0  # atno 5402 bound_to 2461
   37.1255  -10.9476   10.9146 LP  0  0  0  0  0  0  0  0  0  0  0  0  # atno 5439 bound_to 1770
   36.2754  -12.3309   10.7400 LP  0  0  0  0  0  0  0  0  0  0  0  0  # atno 5440 bound_to 1770
   24.6650   -9.6310    9.7709 LP  0  0  0  0  0  0  0  0  0  0  0  0  # atno 5465 bound_to 5050
   23.0574   -9.7113    9.4956 LP  0  0  0  0  0  0  0  0  0  0  0  0  # atno 5466 bound_to 5050

> <Gold.Score>
     Fitness  S(hb_ext) S(vdw_ext)  S(hb_int)    S(int)      intcor
     34.05       0.00      25.53       0.00      -1.06      -0.77

> <Gold.Goldscore.Fitness>
34.0480

> <Gold.Goldscore.Internal.Vdw>
-1.3055

> <Gold.Goldscore.Internal.Torsion>
-0.5224

> <Gold.Goldscore.External.Vdw>
25.5320

> <Gold.Goldscore.Internal.HBond>
0.0000

> <Gold.Goldscore.External.HBond>
0.0000

> <Gold.Goldscore.Internal.Correction>
-0.7693

> <Gold.Goldscore.Internal.Vdw.Weighted>
-1.3055

> <Gold.Goldscore.Internal.Torsion.Weighted>
-0.5224

> <Gold.Goldscore.External.Vdw.Weighted>
35.1065

> <Gold.Goldscore.Internal.HBond.Weighted>
0.0000

> <Gold.Goldscore.External.HBond.Weighted>
0.0000

> <Gold.Goldscore.Internal.Correction.Weighted>
-0.7693

> <Gold.Rescore>
     Score     S(PLP)   S(hbond)     S(cho)   S(metal)  DE(clash)   DE(tors)     intcor
     31.53     -34.17       0.00       0.00       0.00       1.88       0.38       ----

> <Gold.PLP.Fitness>
31.5302

> <Gold.PLP.PLP>
-34.1716

> <Gold.PLP.part.hbond>
-0.9835

> <Gold.PLP.part.metal>
0.0000

> <Gold.PLP.part.buried>
-3.7766

> <Gold.PLP.part.nonpolar>
-30.5826

> <Gold.PLP.part.repulsive>
0.5405

> <Gold.PLP.ligand.clash>
1.8829

> <Gold.PLP.ligand.torsion>
0.3793

> <Gold.PLP.Chemscore.Hbond>
0.0000

> <Gold.PLP.Chemscore.CHOScore>
0.0000

> <Gold.PLP.Chemscore.Metal>
0.0000

> <Gold.PLP.Chemscore.Internal.Correction>
   9.000000E+99

#       Name:                CT1002167954
#       Creating user name   hitesit
#       Creation time:       Sun Apr 16 22:50:15 2023


#       File generated by GOLD software.
#

@<TRIPOS>MOLECULE
CT1002167954|ligand_prepared|mol2|1|dock5
    29    30     1
SMALL
NO_CHARGES


@<TRIPOS>ATOM
      1 C1          25.0523  -8.9012   2.1372 C.3            1 RES1               0.0000
      2 C2          24.8138 -10.3907   1.8156 C.ar           1 RES1               0.0000
      3 C3          25.2146  -8.1937   0.7951 C.2            1 RES1               0.0000
      4 C4          23.8422  -8.4394   2.9417 C.2            1 RES1               0.0000
      5 C5          26.3182  -8.6403   2.9863 C.3            1 RES1               0.0000
      6 C6          24.3051 -10.7759   0.5788 C.ar           1 RES1               0.0000
      7 C7          25.0996 -11.3893   2.7428 C.ar           1 RES1               0.0000
      8 N8          24.1818  -7.4154   0.3622 N.am           1 RES1               0.0000
      9 O9          26.2171  -8.3480   0.1086 O.2            1 RES1               0.0000
     10 N10         23.0152  -7.5038   2.3774 N.am           1 RES1               0.0000
     11 O11         23.5882  -8.8896   4.0521 O.2            1 RES1               0.0000
     12 C12         26.6834  -7.1692   3.1064 C.3            1 RES1               0.0000
     13 C13         24.0926 -12.1112   0.2787 C.ar           1 RES1               0.0000
     14 C14         24.8861 -12.7241   2.4407 C.ar           1 RES1               0.0000
     15 C15         23.1131  -6.9935   1.1116 C.2            1 RES1               0.0000
     16 C16         24.3833 -13.0861   1.2091 C.ar           1 RES1               0.0000
     17 O17         22.2988  -6.1959   0.6557 O.2            1 RES1               0.0000
     18 H18         26.1589  -9.0479   3.9922 H              1 RES1               0.0000
     19 H19         27.1621  -9.1779   2.5364 H              1 RES1               0.0000
     20 H20         24.0681 -10.0226  -0.1651 H              1 RES1               0.0000
     21 H21         25.4949 -11.1277   3.7185 H              1 RES1               0.0000
     22 H22         24.2063  -7.1197  -0.6085 H              1 RES1               0.0000
     23 H23         22.2563  -7.1553   2.9545 H              1 RES1               0.0000
     24 H24         27.5785  -7.0421   3.7118 H              1 RES1               0.0000
     25 H25         26.8734  -6.7375   2.1259 H              1 RES1               0.0000
     26 H26         25.8763  -6.6083   3.5730 H              1 RES1               0.0000
     27 H27         23.6954 -12.3909  -0.6915 H              1 RES1               0.0000
     28 H28         25.1157 -13.4879   3.1762 H              1 RES1               0.0000
     29 H29         24.2171 -14.1321   0.9736 H              1 RES1               0.0000
@<TRIPOS>BOND
    1    1    2 1     
    2    1    3 1     
    3    1    4 1     
    4    1    5 1     
    5    2    6 ar    
    6    2    7 ar    
    7    3    8 1     
    8    3    9 2     
    9    4   10 1     
   10    4   11 2     
   11    5   12 1     
   12    5   18 1     
   13    5   19 1     
   14    6   13 ar    
   15    6   20 1     
   16    7   14 ar    
   17    7   21 1     
   18    8   15 1     
   19    8   22 1     
   20   10   15 1     
   21   10   23 1     
   22   12   24 1     
   23   12   25 1     
   24   12   26 1     
   25   13   16 ar    
   26   13   27 1     
   27   14   16 ar    
   28   14   28 1     
   29   15   17 2     
   30   16   29 1     
@<TRIPOS>SUBSTRUCTURE
      1 RES1           1
@<TRIPOS>SET
DONOR_HYDROGENS      STATIC     ATOMS    <user>   **** ""
2 22 23
ATOM$RED        STATIC     ATOMS    COLORGROUP SYSTEM
2 22 23
@<TRIPOS>COMMENT
> <Gold.Version>
2022.3.0

> <Gold.Id.Protein>
unknown|3oxt_clean|pdb

> <Gold.Protein.RotatedTorsions>
[  570  565  563  560 ] final   40.94 input   59.99 | X-H torsion
[  590  585  584  581 ] final -121.02 input   60.02 | X-H torsion
[ 2787 2780 2778 2775 ] final   22.50 input   60.00 | X-H torsion
[ 2470 2461 2460 2458 ] final  -94.06 input   59.98 | X-H torsion
[ 2545 2534 2533 2532 ] final  -75.66 input   59.97 | X-H torsion
[ 1779 1770 1769 1767 ] final  154.23 input   59.98 | X-H torsion
[ 5059 5050 5049 5047 ] final   65.12 input   60.00 | X-H torsion

> <Gold.Protein.ActiveResidues>
 THR48   LEU49   GLY50   THR51   GLY52   SER53   PHE54   GLY55   ARG56   VAL57  
 MET58   LEU59   VAL60   HIS68   TYR69   ALA70   MET71   LYS72   ILE73   LEU74  
 ASP75   VAL79   GLU91   LEU95   VAL104  LYS105  MET118  VAL119  MET120  GLU121 
 TYR122  VAL123  PRO124  GLY125  GLY126  GLU127  TYR164  ASP166  LYS168  GLU170 
 ASN171  LEU172  LEU173  ILE174  ASP175  GLN181  VAL182  THR183  ASP184  PHE185 
 GLY186  PHE327  ASP328  TYR330 

> <Gold.Protein.RotatedAtoms>
   20.8096  -12.4857    5.6115 H   0  0  0  0  0  0  0  0  0  0  0  0  # atno 570  bound_to 565 
   17.3255  -10.7878   -1.6568 H   0  0  0  0  0  0  0  0  0  0  0  0  # atno 590  bound_to 585 
   37.0240  -11.9137   11.0194 H   0  0  0  0  0  0  0  0  0  0  0  0  # atno 1779 bound_to 1770
   26.8089   -2.9142   -3.0529 H   0  0  0  0  0  0  0  0  0  0  0  0  # atno 2470 bound_to 2461
   19.6913   -4.2002    1.6984 H   0  0  0  0  0  0  0  0  0  0  0  0  # atno 2545 bound_to 2534
   19.4262   -3.3158    0.3213 H   0  0  0  0  0  0  0  0  0  0  0  0  # atno 2546 bound_to 2534
   20.0753   -4.8377    0.2180 H   0  0  0  0  0  0  0  0  0  0  0  0  # atno 2547 bound_to 2534
   31.8344   -7.4963   -1.7988 H   0  0  0  0  0  0  0  0  0  0  0  0  # atno 2787 bound_to 2780
   24.5045  -10.0128    8.4692 H   0  0  0  0  0  0  0  0  0  0  0  0  # atno 5059 bound_to 5050
   21.4751  -12.9737    7.0142 LP  0  0  0  0  0  0  0  0  0  0  0  0  # atno 5371 bound_to 565 
   20.0982  -13.6670    6.4757 LP  0  0  0  0  0  0  0  0  0  0  0  0  # atno 5372 bound_to 565 
   17.2706  -11.9620   -2.7826 LP  0  0  0  0  0  0  0  0  0  0  0  0  # atno 5375 bound_to 585 
   18.4305  -11.9826   -1.6332 LP  0  0  0  0  0  0  0  0  0  0  0  0  # atno 5376 bound_to 585 
   30.6251   -8.1289   -0.9126 LP  0  0  0  0  0  0  0  0  0  0  0  0  # atno 5395 bound_to 2780
   32.1330   -8.0356   -0.2928 LP  0  0  0  0  0  0  0  0  0  0  0  0  # atno 5396 bound_to 2780
   27.8335   -1.8364   -2.3920 LP  0  0  0  0  0  0  0  0  0  0  0  0  # atno 5401 bound_to 2461
   28.4146   -3.1137   -3.2270 LP  0  0  0  0  0  0  0  0  0  0  0  0  # atno 5402 bound_to 2461
   35.5577  -11.8101   10.3217 LP  0  0  0  0  0  0  0  0  0  0  0  0  # atno 5439 bound_to 1770
   36.4633  -10.4671   10.5287 LP  0  0  0  0  0  0  0  0  0  0  0  0  # atno 5440 bound_to 1770
   24.3153   -9.5584   10.0197 LP  0  0  0  0  0  0  0  0  0  0  0  0  # atno 5465 bound_to 5050
   23.0078   -9.8324    9.0805 LP  0  0  0  0  0  0  0  0  0  0  0  0  # atno 5466 bound_to 5050

> <Gold.Score>
     Fitness  S(hb_ext) S(vdw_ext)  S(hb_int)    S(int)      intcor
     33.36       1.88      23.60       0.00      -0.97      -0.77

> <Gold.Goldscore.Fitness>
33.3590

> <Gold.Goldscore.Internal.Vdw>
-1.2164

> <Gold.Goldscore.Internal.Torsion>
-0.5199

> <Gold.Goldscore.External.Vdw>
23.5979

> <Gold.Goldscore.Internal.HBond>
0.0000

> <Gold.Goldscore.External.HBond>
1.8790

> <Gold.Goldscore.Internal.Correction>
-0.7693

> <Gold.Goldscore.Hbonds>
donor molecule, donor type, donor heavy atom, donor atom, acceptor molecule, acceptor atom, score
      L1  H     8    22       P1  2794  0.31

> <Gold.Goldscore.Internal.Vdw.Weighted>
-1.2164

> <Gold.Goldscore.Internal.Torsion.Weighted>
-0.5199

> <Gold.Goldscore.External.Vdw.Weighted>
32.4471

> <Gold.Goldscore.Internal.HBond.Weighted>
0.0000

> <Gold.Goldscore.External.HBond.Weighted>
1.8790

> <Gold.Goldscore.Internal.Correction.Weighted>
-0.7693

> <Gold.Rescore>
     Score     S(PLP)   S(hbond)     S(cho)   S(metal)  DE(clash)   DE(tors)     intcor
     29.03     -28.43       0.99       0.00       0.00       1.66       0.36       ----

> <Gold.PLP.Fitness>
29.0309

> <Gold.PLP.PLP>
-28.4308

> <Gold.PLP.part.hbond>
-2.0465

> <Gold.PLP.part.metal>
0.0000

> <Gold.PLP.part.buried>
-1.5105

> <Gold.PLP.part.nonpolar>
-26.6254

> <Gold.PLP.part.repulsive>
1.0069

> <Gold.PLP.ligand.clash>
1.6620

> <Gold.PLP.ligand.torsion>
0.3570

> <Gold.PLP.Chemscore.Hbond>
0.9920

> <Gold.PLP.Chemscore.CHOScore>
0.0000

> <Gold.PLP.Chemscore.Metal>
0.0000

> <Gold.Chemscore.Hbonds>
donor molecule, donor type, donor heavy atom, donor atom, acceptor molecule, acceptor atom, score
      L1  H     8    22       P1  2794  0.62

> <Gold.PLP.Chemscore.Internal.Correction>
   9.000000E+99

#       Name:                CT1002167954
#       Creating user name   hitesit
#       Creation time:       Sun Apr 16 22:50:10 2023


#       File generated by GOLD software.
#

@<TRIPOS>MOLECULE
CT1002167954|ligand_prepared|mol2|1|dock1
    29    30     1
SMALL
NO_CHARGES


@<TRIPOS>ATOM
      1 C1          25.5577  -9.7447   1.5941 C.3            1 RES1               0.0000
      2 C2          25.0219 -10.9156   0.7453 C.ar           1 RES1               0.0000
      3 C3          25.6596 -10.2644   3.0251 C.2            1 RES1               0.0000
      4 C4          26.8956  -9.3492   0.9791 C.2            1 RES1               0.0000
      5 C5          24.6421  -8.4984   1.5881 C.3            1 RES1               0.0000
      6 C6          24.9140 -12.1927   1.2876 C.ar           1 RES1               0.0000
      7 C7          24.6298 -10.7340  -0.5783 C.ar           1 RES1               0.0000
      8 N8          26.9050 -10.5281   3.5144 N.am           1 RES1               0.0000
      9 O9          24.6601 -10.4770   3.7004 O.2            1 RES1               0.0000
     10 N10         28.0279  -9.5424   1.7264 N.am           1 RES1               0.0000
     11 O11         26.9811  -8.8875  -0.1522 O.2            1 RES1               0.0000
     12 C12         25.1422  -7.3660   2.4712 C.3            1 RES1               0.0000
     13 C13         24.4289 -13.2494   0.5350 C.ar           1 RES1               0.0000
     14 C14         24.1451 -11.7922  -1.3292 C.ar           1 RES1               0.0000
     15 C15         28.0962 -10.1424   2.9542 C.2            1 RES1               0.0000
     16 C16         24.0437 -13.0498  -0.7736 C.ar           1 RES1               0.0000
     17 O17         29.1586 -10.3298   3.5401 O.2            1 RES1               0.0000
     18 H18         24.5533  -8.1304   0.5585 H              1 RES1               0.0000
     19 H19         23.6412  -8.7940   1.9261 H              1 RES1               0.0000
     20 H20         25.2145 -12.3695   2.3150 H              1 RES1               0.0000
     21 H21         24.7017  -9.7535  -1.0366 H              1 RES1               0.0000
     22 H22         26.9552 -11.0616   4.3765 H              1 RES1               0.0000
     23 H23         28.9007  -9.2077   1.3307 H              1 RES1               0.0000
     24 H24         24.4634  -6.5167   2.4306 H              1 RES1               0.0000
     25 H25         25.2184  -7.6896   3.5072 H              1 RES1               0.0000
     26 H26         26.1252  -7.0300   2.1478 H              1 RES1               0.0000
     27 H27         24.3524 -14.2376   0.9765 H              1 RES1               0.0000
     28 H28         23.8437 -11.6306  -2.3589 H              1 RES1               0.0000
     29 H29         23.6634 -13.8777  -1.3628 H              1 RES1               0.0000
@<TRIPOS>BOND
    1    1    2 1     
    2    1    3 1     
    3    1    4 1     
    4    1    5 1     
    5    2    6 ar    
    6    2    7 ar    
    7    3    8 1     
    8    3    9 2     
    9    4   10 1     
   10    4   11 2     
   11    5   12 1     
   12    5   18 1     
   13    5   19 1     
   14    6   13 ar    
   15    6   20 1     
   16    7   14 ar    
   17    7   21 1     
   18    8   15 1     
   19    8   22 1     
   20   10   15 1     
   21   10   23 1     
   22   12   24 1     
   23   12   25 1     
   24   12   26 1     
   25   13   16 ar    
   26   13   27 1     
   27   14   16 ar    
   28   14   28 1     
   29   15   17 2     
   30   16   29 1     
@<TRIPOS>SUBSTRUCTURE
      1 RES1           1
@<TRIPOS>SET
DONOR_HYDROGENS      STATIC     ATOMS    <user>   **** ""
2 22 23
ATOM$RED        STATIC     ATOMS    COLORGROUP SYSTEM
2 22 23
@<TRIPOS>COMMENT
> <Gold.Version>
2022.3.0

> <Gold.Id.Protein>
unknown|3oxt_clean|pdb

> <Gold.Protein.RotatedTorsions>
[  570  565  563  560 ] final   82.88 input   59.99 | X-H torsion
[  590  585  584  581 ] final  -53.16 input   60.02 | X-H torsion
[ 2787 2780 2778 2775 ] final -106.01 input   60.00 | X-H torsion
[ 2470 2461 2460 2458 ] final  -67.55 input   59.98 | X-H torsion
[ 2545 2534 2533 2532 ] final  112.29 input   59.97 | X-H torsion
[ 1779 1770 1769 1767 ] final   -6.58 input   59.98 | X-H torsion
[ 5059 5050 5049 5047 ] final   85.16 input   60.00 | X-H torsion

> <Gold.Protein.ActiveResidues>
 THR48   LEU49   GLY50   THR51   GLY52   SER53   PHE54   GLY55   ARG56   VAL57  
 MET58   LEU59   VAL60   HIS68   TYR69   ALA70   MET71   LYS72   ILE73   LEU74  
 ASP75   VAL79   GLU91   LEU95   VAL104  LYS105  MET118  VAL119  MET120  GLU121 
 TYR122  VAL123  PRO124  GLY125  GLY126  GLU127  TYR164  ASP166  LYS168  GLU170 
 ASN171  LEU172  LEU173  ILE174  ASP175  GLN181  VAL182  THR183  ASP184  PHE185 
 GLY186  PHE327  ASP328  TYR330 

> <Gold.Protein.RotatedAtoms>
   20.2781  -12.8940    5.5981 H   0  0  0  0  0  0  0  0  0  0  0  0  # atno 570  bound_to 565 
   18.1587  -11.2903   -1.2740 H   0  0  0  0  0  0  0  0  0  0  0  0  # atno 590  bound_to 585 
   35.5439  -11.1650   10.2091 H   0  0  0  0  0  0  0  0  0  0  0  0  # atno 1779 bound_to 1770
   27.0496   -3.2103   -3.2497 H   0  0  0  0  0  0  0  0  0  0  0  0  # atno 2470 bound_to 2461
   19.8217   -4.1582   -0.2060 H   0  0  0  0  0  0  0  0  0  0  0  0  # atno 2545 bound_to 2534
   20.0023   -4.8615    1.2845 H   0  0  0  0  0  0  0  0  0  0  0  0  # atno 2546 bound_to 2534
   19.3691   -3.3346    1.1586 H   0  0  0  0  0  0  0  0  0  0  0  0  # atno 2547 bound_to 2534
   30.6660   -8.1684   -0.7852 H   0  0  0  0  0  0  0  0  0  0  0  0  # atno 2787 bound_to 2780
   24.2138  -10.0539    8.3283 H   0  0  0  0  0  0  0  0  0  0  0  0  # atno 5059 bound_to 5050
   21.5745  -12.5326    6.5131 LP  0  0  0  0  0  0  0  0  0  0  0  0  # atno 5371 bound_to 565 
   20.5338  -13.6970    6.9904 LP  0  0  0  0  0  0  0  0  0  0  0  0  # atno 5372 bound_to 565 
   16.9314  -11.0786   -2.3219 LP  0  0  0  0  0  0  0  0  0  0  0  0  # atno 5375 bound_to 585 
   17.9310  -12.3602   -2.4792 LP  0  0  0  0  0  0  0  0  0  0  0  0  # atno 5376 bound_to 585 
   32.2299   -7.9798   -0.3769 LP  0  0  0  0  0  0  0  0  0  0  0  0  # atno 5395 bound_to 2780
   31.7048   -7.5077   -1.8493 LP  0  0  0  0  0  0  0  0  0  0  0  0  # atno 5396 bound_to 2780
   27.4024   -1.8686   -2.3992 LP  0  0  0  0  0  0  0  0  0  0  0  0  # atno 5401 bound_to 2461
   28.6033   -2.7834   -3.0217 LP  0  0  0  0  0  0  0  0  0  0  0  0  # atno 5402 bound_to 2461
   36.9903  -10.7337   10.8173 LP  0  0  0  0  0  0  0  0  0  0  0  0  # atno 5439 bound_to 1770
   36.5213  -12.2976   10.8493 LP  0  0  0  0  0  0  0  0  0  0  0  0  # atno 5440 bound_to 1770
   24.5898   -9.6087    9.8471 LP  0  0  0  0  0  0  0  0  0  0  0  0  # atno 5465 bound_to 5050
   23.0262   -9.7406    9.3950 LP  0  0  0  0  0  0  0  0  0  0  0  0  # atno 5466 bound_to 5050

> <Gold.Score>
     Fitness  S(hb_ext) S(vdw_ext)  S(hb_int)    S(int)      intcor
     32.91       0.00      25.55       0.00      -2.23      -0.79

> <Gold.Goldscore.Fitness>
32.9073

> <Gold.Goldscore.Internal.Vdw>
-2.6363

> <Gold.Goldscore.Internal.Torsion>
-0.3771

> <Gold.Goldscore.External.Vdw>
25.5525

> <Gold.Goldscore.Internal.HBond>
0.0000

> <Gold.Goldscore.External.HBond>
0.0000

> <Gold.Goldscore.Internal.Correction>
-0.7859

> <Gold.Goldscore.Internal.Vdw.Weighted>
-2.6363

> <Gold.Goldscore.Internal.Torsion.Weighted>
-0.3771

> <Gold.Goldscore.External.Vdw.Weighted>
35.1347

> <Gold.Goldscore.Internal.HBond.Weighted>
0.0000

> <Gold.Goldscore.External.HBond.Weighted>
0.0000

> <Gold.Goldscore.Internal.Correction.Weighted>
-0.7859

> <Gold.Rescore>
     Score     S(PLP)   S(hbond)     S(cho)   S(metal)  DE(clash)   DE(tors)     intcor
     31.87     -35.03       0.00       0.00       0.00       2.06       0.55       ----

> <Gold.PLP.Fitness>
31.8745

> <Gold.PLP.PLP>
-35.0300

> <Gold.PLP.part.hbond>
-1.0000

> <Gold.PLP.part.metal>
0.0000

> <Gold.PLP.part.buried>
-5.9388

> <Gold.PLP.part.nonpolar>
-30.4349

> <Gold.PLP.part.repulsive>
1.3640

> <Gold.PLP.ligand.clash>
2.0643

> <Gold.PLP.ligand.torsion>
0.5456

> <Gold.PLP.Chemscore.Hbond>
0.0000

> <Gold.PLP.Chemscore.CHOScore>
0.0000

> <Gold.PLP.Chemscore.Metal>
0.0000

> <Gold.PLP.Chemscore.Internal.Correction>
   9.000000E+99

#       Name:                CT1002167954
#       Creating user name   hitesit
#       Creation time:       Sun Apr 16 22:50:13 2023


#       File generated by GOLD software.
#

@<TRIPOS>MOLECULE
CT1002167954|ligand_prepared|mol2|1|dock3
    29    30     1
SMALL
NO_CHARGES


@<TRIPOS>ATOM
      1 C1          21.3046  -8.8118  -0.2586 C.3            1 RES1               0.0000
      2 C2          22.2985  -9.9034  -0.7054 C.ar           1 RES1               0.0000
      3 C3          21.8277  -7.4968  -0.8289 C.2            1 RES1               0.0000
      4 C4          19.9420  -9.2273  -0.8021 C.2            1 RES1               0.0000
      5 C5          21.1831  -8.6678   1.2763 C.3            1 RES1               0.0000
      6 C6          22.1536 -10.5318  -1.9386 C.ar           1 RES1               0.0000
      7 C7          23.3647 -10.2900   0.1023 C.ar           1 RES1               0.0000
      8 N8          21.1620  -6.9594  -1.8910 N.am           1 RES1               0.0000
      9 O9          22.8324  -6.9598  -0.3788 O.2            1 RES1               0.0000
     10 N10         19.3627  -8.4340  -1.7576 N.am           1 RES1               0.0000
     11 O11         19.3723 -10.2434  -0.4236 O.2            1 RES1               0.0000
     12 C12         20.0406  -7.7674   1.7191 C.3            1 RES1               0.0000
     13 C13         23.0441 -11.5092  -2.3509 C.ar           1 RES1               0.0000
     14 C14         24.2540 -11.2678  -0.3119 C.ar           1 RES1               0.0000
     15 C15         19.9248  -7.3356  -2.3488 C.2            1 RES1               0.0000
     16 C16         24.0950 -11.8776  -1.5381 C.ar           1 RES1               0.0000
     17 O17         19.3639  -6.7052  -3.2405 O.2            1 RES1               0.0000
     18 H18         21.0381  -9.6632   1.7140 H              1 RES1               0.0000
     19 H19         22.1241  -8.2629   1.6686 H              1 RES1               0.0000
     20 H20         21.3313 -10.2568  -2.5906 H              1 RES1               0.0000
     21 H21         23.5087  -9.8247   1.0715 H              1 RES1               0.0000
     22 H22         21.6270  -6.2084  -2.3911 H              1 RES1               0.0000
     23 H23         18.4256  -8.6856  -2.0555 H              1 RES1               0.0000
     24 H24         20.0002  -7.7009   2.8043 H              1 RES1               0.0000
     25 H25         20.1658  -6.7620   1.3224 H              1 RES1               0.0000
     26 H26         19.0862  -8.1541   1.3675 H              1 RES1               0.0000
     27 H27         22.9138 -11.9870  -3.3162 H              1 RES1               0.0000
     28 H28         25.0793 -11.5550   0.3313 H              1 RES1               0.0000
     29 H29         24.7927 -12.6430  -1.8615 H              1 RES1               0.0000
@<TRIPOS>BOND
    1    1    2 1     
    2    1    3 1     
    3    1    4 1     
    4    1    5 1     
    5    2    6 ar    
    6    2    7 ar    
    7    3    8 1     
    8    3    9 2     
    9    4   10 1     
   10    4   11 2     
   11    5   12 1     
   12    5   18 1     
   13    5   19 1     
   14    6   13 ar    
   15    6   20 1     
   16    7   14 ar    
   17    7   21 1     
   18    8   15 1     
   19    8   22 1     
   20   10   15 1     
   21   10   23 1     
   22   12   24 1     
   23   12   25 1     
   24   12   26 1     
   25   13   16 ar    
   26   13   27 1     
   27   14   16 ar    
   28   14   28 1     
   29   15   17 2     
   30   16   29 1     
@<TRIPOS>SUBSTRUCTURE
      1 RES1           1
@<TRIPOS>SET
DONOR_HYDROGENS      STATIC     ATOMS    <user>   **** ""
2 22 23
ATOM$RED        STATIC     ATOMS    COLORGROUP SYSTEM
2 22 23
@<TRIPOS>COMMENT
> <Gold.Version>
2022.3.0

> <Gold.Id.Protein>
unknown|3oxt_clean|pdb

> <Gold.Protein.RotatedTorsions>
[  570  565  563  560 ] final   63.04 input   59.99 | X-H torsion
[  590  585  584  581 ] final -157.57 input   60.02 | X-H torsion
[ 2787 2780 2778 2775 ] final  175.95 input   60.00 | X-H torsion
[ 2470 2461 2460 2458 ] final  -39.39 input   59.98 | X-H torsion
[ 2545 2534 2533 2532 ] final  149.63 input   59.97 | X-H torsion
[ 1779 1770 1769 1767 ] final  -23.48 input   59.98 | X-H torsion
[ 5059 5050 5049 5047 ] final  -67.62 input   60.00 | X-H torsion

> <Gold.Protein.ActiveResidues>
 THR48   LEU49   GLY50   THR51   GLY52   SER53   PHE54   GLY55   ARG56   VAL57  
 MET58   LEU59   VAL60   HIS68   TYR69   ALA70   MET71   LYS72   ILE73   LEU74  
 ASP75   VAL79   GLU91   LEU95   VAL104  LYS105  MET118  VAL119  MET120  GLU121 
 TYR122  VAL123  PRO124  GLY125  GLY126  GLU127  TYR164  ASP166  LYS168  GLU170 
 ASN171  LEU172  LEU173  ILE174  ASP175  GLN181  VAL182  THR183  ASP184  PHE185 
 GLY186  PHE327  ASP328  TYR330 

> <Gold.Protein.RotatedAtoms>
   20.5114  -12.6762    5.5507 H   0  0  0  0  0  0  0  0  0  0  0  0  # atno 570  bound_to 565 
   16.9979  -10.9359   -2.1213 H   0  0  0  0  0  0  0  0  0  0  0  0  # atno 590  bound_to 585 
   35.6569  -10.9145   10.2216 H   0  0  0  0  0  0  0  0  0  0  0  0  # atno 1779 bound_to 1770
   27.4498   -3.3882   -3.3759 H   0  0  0  0  0  0  0  0  0  0  0  0  # atno 2470 bound_to 2461
   20.0248   -4.6846    0.0328 H   0  0  0  0  0  0  0  0  0  0  0  0  # atno 2545 bound_to 2534
   19.7880   -4.4205    1.6524 H   0  0  0  0  0  0  0  0  0  0  0  0  # atno 2546 bound_to 2534
   19.3803   -3.2493    0.5523 H   0  0  0  0  0  0  0  0  0  0  0  0  # atno 2547 bound_to 2534
   31.6464   -8.2083   -0.1318 H   0  0  0  0  0  0  0  0  0  0  0  0  # atno 2787 bound_to 2780
   24.1138   -9.5455   10.0714 H   0  0  0  0  0  0  0  0  0  0  0  0  # atno 5059 bound_to 5050
   21.5793  -12.7207    6.7779 LP  0  0  0  0  0  0  0  0  0  0  0  0  # atno 5371 bound_to 565 
   20.2942  -13.7282    6.7732 LP  0  0  0  0  0  0  0  0  0  0  0  0  # atno 5372 bound_to 565 
   17.7305  -12.2990   -2.6256 LP  0  0  0  0  0  0  0  0  0  0  0  0  # atno 5375 bound_to 585 
   18.3005  -11.4965   -1.3226 LP  0  0  0  0  0  0  0  0  0  0  0  0  # atno 5376 bound_to 585 
   32.2663   -7.5306   -1.4752 LP  0  0  0  0  0  0  0  0  0  0  0  0  # atno 5395 bound_to 2780
   30.6811   -7.9169   -1.4090 LP  0  0  0  0  0  0  0  0  0  0  0  0  # atno 5396 bound_to 2780
   27.0112   -2.0757   -2.5195 LP  0  0  0  0  0  0  0  0  0  0  0  0  # atno 5401 bound_to 2461
   28.5918   -2.3972   -2.7743 LP  0  0  0  0  0  0  0  0  0  0  0  0  # atno 5402 bound_to 2461
   37.1278  -10.9528   10.9165 LP  0  0  0  0  0  0  0  0  0  0  0  0  # atno 5439 bound_to 1770
   36.2700  -12.3308   10.7374 LP  0  0  0  0  0  0  0  0  0  0  0  0  # atno 5440 bound_to 1770
   23.0555   -9.8894    8.8849 LP  0  0  0  0  0  0  0  0  0  0  0  0  # atno 5465 bound_to 5050
   24.6613   -9.9724    8.6003 LP  0  0  0  0  0  0  0  0  0  0  0  0  # atno 5466 bound_to 5050

> <Gold.Score>
     Fitness  S(hb_ext) S(vdw_ext)  S(hb_int)    S(int)      intcor
     31.90       8.08      17.54       0.00      -0.30      -0.77

> <Gold.Goldscore.Fitness>
31.8970

> <Gold.Goldscore.Internal.Vdw>
-0.5535

> <Gold.Goldscore.Internal.Torsion>
-0.5183

> <Gold.Goldscore.External.Vdw>
17.5434

> <Gold.Goldscore.Internal.HBond>
0.0000

> <Gold.Goldscore.External.HBond>
8.0773

> <Gold.Goldscore.Internal.Correction>
-0.7693

> <Gold.Goldscore.Hbonds>
donor molecule, donor type, donor heavy atom, donor atom, acceptor molecule, acceptor atom, score
      P1  H   580   587       L1    11  1.00
      P1  H  2583  2589       L1     9  0.04
      L1  H     8    22       P1  2502  1.00

> <Gold.Goldscore.Internal.Vdw.Weighted>
-0.5535

> <Gold.Goldscore.Internal.Torsion.Weighted>
-0.5183

> <Gold.Goldscore.External.Vdw.Weighted>
24.1222

> <Gold.Goldscore.Internal.HBond.Weighted>
0.0000

> <Gold.Goldscore.External.HBond.Weighted>
8.0773

> <Gold.Goldscore.Internal.Correction.Weighted>
-0.7693

> <Gold.Rescore>
     Score     S(PLP)   S(hbond)     S(cho)   S(metal)  DE(clash)   DE(tors)     intcor
     27.89     -24.54       1.81       0.00       0.00       0.01       1.03       ----

> <Gold.PLP.Fitness>
27.8942

> <Gold.PLP.PLP>
-24.5408

> <Gold.PLP.part.hbond>
-2.9127

> <Gold.PLP.part.metal>
0.0000

> <Gold.PLP.part.buried>
-4.8094

> <Gold.PLP.part.nonpolar>
-18.6910

> <Gold.PLP.part.repulsive>
1.4446

> <Gold.PLP.ligand.clash>
0.0143

> <Gold.PLP.ligand.torsion>
1.0349

> <Gold.PLP.Chemscore.Hbond>
1.8125

> <Gold.PLP.Chemscore.CHOScore>
0.0000

> <Gold.PLP.Chemscore.Metal>
0.0000

> <Gold.Chemscore.Hbonds>
donor molecule, donor type, donor heavy atom, donor atom, acceptor molecule, acceptor atom, score
      L1  H     8    22       P1  2502  1.00
      P1  H   580   587       L1    11  1.00

> <Gold.PLP.Chemscore.Internal.Correction>
   9.000000E+99

#       Name:                CT1002167954
#       Creating user name   hitesit
#       Creation time:       Sun Apr 16 22:50:11 2023


#       File generated by GOLD software.
#

@<TRIPOS>MOLECULE
CT1002167954|ligand_prepared|mol2|1|dock2
    29    30     1
SMALL
NO_CHARGES


@<TRIPOS>ATOM
      1 C1          25.2905  -9.8710   1.9735 C.3            1 RES1               0.0000
      2 C2          24.8477 -10.9832   1.0010 C.ar           1 RES1               0.0000
      3 C3          25.6771 -10.5684   3.2745 C.2            1 RES1               0.0000
      4 C4          26.4433  -9.1423   1.2919 C.2            1 RES1               0.0000
      5 C5          24.1854  -8.8341   2.2817 C.3            1 RES1               0.0000
      6 C6          24.3931 -10.6682  -0.2760 C.ar           1 RES1               0.0000
      7 C7          24.8905 -12.3264   1.3650 C.ar           1 RES1               0.0000
      8 N8          27.0049 -10.6610   3.5713 N.am           1 RES1               0.0000
      9 O9          24.8319 -11.0645   4.0092 O.2            1 RES1               0.0000
     10 N10         27.6848  -9.2261   1.8659 N.am           1 RES1               0.0000
     11 O11         26.2911  -8.5102   0.2539 O.2            1 RES1               0.0000
     12 C12         24.6279  -7.7294   3.2284 C.3            1 RES1               0.0000
     13 C13         23.9984 -11.6601  -1.1584 C.ar           1 RES1               0.0000
     14 C14         24.4952 -13.3169   0.4811 C.ar           1 RES1               0.0000
     15 C15         28.0239  -9.9777   2.9578 C.2            1 RES1               0.0000
     16 C16         24.0496 -12.9850  -0.7807 C.ar           1 RES1               0.0000
     17 O17         29.1738 -10.0451   3.3825 O.2            1 RES1               0.0000
     18 H18         23.8544  -8.3801   1.3395 H              1 RES1               0.0000
     19 H19         23.3263  -9.3542   2.7232 H              1 RES1               0.0000
     20 H20         24.3435  -9.6309  -0.5901 H              1 RES1               0.0000
     21 H21         25.2365 -12.6109   2.3529 H              1 RES1               0.0000
     22 H22         27.2643 -11.2972   4.3186 H              1 RES1               0.0000
     23 H23         28.4247  -8.6771   1.4397 H              1 RES1               0.0000
     24 H24         23.8153  -7.0294   3.4110 H              1 RES1               0.0000
     25 H25         24.9401  -8.1433   4.1850 H              1 RES1               0.0000
     26 H26         25.4651  -7.1750   2.8095 H              1 RES1               0.0000
     27 H27         23.6472 -11.3936  -2.1498 H              1 RES1               0.0000
     28 H28         24.5365 -14.3583   0.7828 H              1 RES1               0.0000
     29 H29         23.7408 -13.7619  -1.4722 H              1 RES1               0.0000
@<TRIPOS>BOND
    1    1    2 1     
    2    1    3 1     
    3    1    4 1     
    4    1    5 1     
    5    2    6 ar    
    6    2    7 ar    
    7    3    8 1     
    8    3    9 2     
    9    4   10 1     
   10    4   11 2     
   11    5   12 1     
   12    5   18 1     
   13    5   19 1     
   14    6   13 ar    
   15    6   20 1     
   16    7   14 ar    
   17    7   21 1     
   18    8   15 1     
   19    8   22 1     
   20   10   15 1     
   21   10   23 1     
   22   12   24 1     
   23   12   25 1     
   24   12   26 1     
   25   13   16 ar    
   26   13   27 1     
   27   14   16 ar    
   28   14   28 1     
   29   15   17 2     
   30   16   29 1     
@<TRIPOS>SUBSTRUCTURE
      1 RES1           1
@<TRIPOS>SET
DONOR_HYDROGENS      STATIC     ATOMS    <user>   **** ""
2 22 23
ATOM$RED        STATIC     ATOMS    COLORGROUP SYSTEM
2 22 23
@<TRIPOS>COMMENT
> <Gold.Version>
2022.3.0

> <Gold.Id.Protein>
unknown|3oxt_clean|pdb

> <Gold.Protein.RotatedTorsions>
[  570  565  563  560 ] final -142.58 input   59.99 | X-H torsion
[  590  585  584  581 ] final  103.14 input   60.02 | X-H torsion
[ 2787 2780 2778 2775 ] final -170.06 input   60.00 | X-H torsion
[ 2470 2461 2460 2458 ] final   16.79 input   59.98 | X-H torsion
[ 2545 2534 2533 2532 ] final   58.50 input   59.97 | X-H torsion
[ 1779 1770 1769 1767 ] final   83.49 input   59.98 | X-H torsion
[ 5059 5050 5049 5047 ] final   19.19 input   60.00 | X-H torsion

> <Gold.Protein.ActiveResidues>
 THR48   LEU49   GLY50   THR51   GLY52   SER53   PHE54   GLY55   ARG56   VAL57  
 MET58   LEU59   VAL60   HIS68   TYR69   ALA70   MET71   LYS72   ILE73   LEU74  
 ASP75   VAL79   GLU91   LEU95   VAL104  LYS105  MET118  VAL119  MET120  GLU121 
 TYR122  VAL123  PRO124  GLY125  GLY126  GLU127  TYR164  ASP166  LYS168  GLU170 
 ASN171  LEU172  LEU173  ILE174  ASP175  GLN181  VAL182  THR183  ASP184  PHE185 
 GLY186  PHE327  ASP328  TYR330 

> <Gold.Protein.RotatedAtoms>
   20.7326  -13.6220    7.0972 H   0  0  0  0  0  0  0  0  0  0  0  0  # atno 570  bound_to 565 
   17.4603  -12.1342   -2.7440 H   0  0  0  0  0  0  0  0  0  0  0  0  # atno 590  bound_to 585 
   36.0827  -12.2952   10.6416 H   0  0  0  0  0  0  0  0  0  0  0  0  # atno 1779 bound_to 1770
   28.3064   -3.2012   -3.2830 H   0  0  0  0  0  0  0  0  0  0  0  0  # atno 2470 bound_to 2461
   19.4895   -3.4306    0.1254 H   0  0  0  0  0  0  0  0  0  0  0  0  # atno 2545 bound_to 2534
   20.1025   -4.9411    0.4278 H   0  0  0  0  0  0  0  0  0  0  0  0  # atno 2546 bound_to 2534
   19.6010   -3.9823    1.6838 H   0  0  0  0  0  0  0  0  0  0  0  0  # atno 2547 bound_to 2534
   31.4233   -8.2522   -0.1485 H   0  0  0  0  0  0  0  0  0  0  0  0  # atno 2787 bound_to 2780
   24.8720   -9.8362    9.0746 H   0  0  0  0  0  0  0  0  0  0  0  0  # atno 5059 bound_to 5050
   20.1390  -13.0646    5.6881 LP  0  0  0  0  0  0  0  0  0  0  0  0  # atno 5371 bound_to 565 
   21.5118  -12.4322    6.3062 LP  0  0  0  0  0  0  0  0  0  0  0  0  # atno 5372 bound_to 565 
   18.4103  -11.7810   -1.4704 LP  0  0  0  0  0  0  0  0  0  0  0  0  # atno 5375 bound_to 585 
   17.1551  -10.8082   -1.8509 LP  0  0  0  0  0  0  0  0  0  0  0  0  # atno 5376 bound_to 585 
   32.3794   -7.5824   -1.2822 LP  0  0  0  0  0  0  0  0  0  0  0  0  # atno 5395 bound_to 2780
   30.7926   -7.8208   -1.5852 LP  0  0  0  0  0  0  0  0  0  0  0  0  # atno 5396 bound_to 2780
   26.7609   -2.7968   -2.9729 LP  0  0  0  0  0  0  0  0  0  0  0  0  # atno 5401 bound_to 2461
   27.9796   -1.8644   -2.4145 LP  0  0  0  0  0  0  0  0  0  0  0  0  # atno 5402 bound_to 2461
   35.7806  -10.7438   10.2547 LP  0  0  0  0  0  0  0  0  0  0  0  0  # atno 5439 bound_to 1770
   37.1883  -11.1492   10.9763 LP  0  0  0  0  0  0  0  0  0  0  0  0  # atno 5440 bound_to 1770
   23.5796   -9.5576   10.0225 LP  0  0  0  0  0  0  0  0  0  0  0  0  # atno 5465 bound_to 5050
   23.3730  -10.0112    8.4674 LP  0  0  0  0  0  0  0  0  0  0  0  0  # atno 5466 bound_to 5050

> <Gold.Score>
     Fitness  S(hb_ext) S(vdw_ext)  S(hb_int)    S(int)      intcor
     31.23       0.00      24.70       0.00      -2.73      -0.77

> <Gold.Goldscore.Fitness>
31.2291

> <Gold.Goldscore.Internal.Vdw>
-3.1307

> <Gold.Goldscore.Internal.Torsion>
-0.3676

> <Gold.Goldscore.External.Vdw>
24.6968

> <Gold.Goldscore.Internal.HBond>
0.0000

> <Gold.Goldscore.External.HBond>
0.0000

> <Gold.Goldscore.Internal.Correction>
-0.7693

> <Gold.Goldscore.Internal.Vdw.Weighted>
-3.1307

> <Gold.Goldscore.Internal.Torsion.Weighted>
-0.3676

> <Gold.Goldscore.External.Vdw.Weighted>
33.9581

> <Gold.Goldscore.Internal.HBond.Weighted>
0.0000

> <Gold.Goldscore.External.HBond.Weighted>
0.0000

> <Gold.Goldscore.Internal.Correction.Weighted>
-0.7693

> <Gold.Rescore>
     Score     S(PLP)   S(hbond)     S(cho)   S(metal)  DE(clash)   DE(tors)     intcor
     31.67     -33.86       0.00       0.00       0.00       1.20       0.49       ----

> <Gold.PLP.Fitness>
31.6733

> <Gold.PLP.PLP>
-33.8613

> <Gold.PLP.part.hbond>
-1.0000

> <Gold.PLP.part.metal>
0.0000

> <Gold.PLP.part.buried>
-4.4060

> <Gold.PLP.part.nonpolar>
-30.4122

> <Gold.PLP.part.repulsive>
1.6617

> <Gold.PLP.ligand.clash>
1.2028

> <Gold.PLP.ligand.torsion>
0.4926

> <Gold.PLP.Chemscore.Hbond>
0.0000

> <Gold.PLP.Chemscore.CHOScore>
0.0000

> <Gold.PLP.Chemscore.Metal>
0.0000

> <Gold.PLP.Chemscore.Internal.Correction>
   9.000000E+99

