#       Name:                GA Fitting Points
#       Creating user name   hitesit
#       Creation time:       Sun Apr 16 22:50:05 2023


#       Fitting Points Used by GA Software.
#

@<TRIPOS>MOLECULE
GA Fitting Points
  8009    0    0
SMALL
NO_CHARGES


@<TRIPOS>ATOM
      1 ****        16.7500  -5.5000  -1.2500 Du        
      2 ****        16.7500  -5.5000  -1.0000 Du        
      3 ****        16.7500  -5.5000  -0.7500 Du        
      4 ****        16.7500  -5.2500  -0.7500 Du        
      5 ****        17.0000  -5.5000  -1.2500 Du        
      6 ****        17.0000  -5.5000  -1.0000 Du        
      7 ****        17.2500  -6.0000  -2.0000 Du        
      8 ****        17.2500  -6.0000  -1.7500 Du        
      9 ****        17.2500  -5.7500  -2.2500 Du        
     10 ****        17.2500  -5.7500  -2.0000 Du        
     11 ****        17.2500  -5.7500  -1.7500 Du        
     12 ****        17.2500  -5.7500  -1.5000 Du        
     13 ****        17.2500  -5.5000  -2.2500 Du        
     14 ****        17.2500  -5.5000  -2.0000 Du        
     15 ****        17.2500  -5.5000  -1.7500 Du        
     16 ****        17.2500  -5.5000  -1.5000 Du        
     17 ****        17.2500  -5.5000  -1.2500 Du        
     18 ****        17.2500  -5.2500  -2.0000 Du        
     19 ****        17.2500  -5.2500  -1.7500 Du        
     20 ****        17.2500  -5.2500  -1.5000 Du        
     21 ****        17.2500  -5.2500  -1.2500 Du        
     22 ****        17.5000 -17.0000   3.0000 Du        
     23 ****        17.5000 -16.7500   2.7500 Du        
     24 ****        17.5000 -16.7500   3.0000 Du        
     25 ****        17.5000 -16.7500   3.2500 Du        
     26 ****        17.5000 -16.5000   3.0000 Du        
     27 ****        17.5000 -16.5000   3.2500 Du        
     28 ****        17.5000  -6.0000  -2.0000 Du        
     29 ****        17.5000  -6.0000  -1.7500 Du        
     30 ****        17.5000  -5.7500  -2.0000 Du        
     31 ****        17.5000  -5.7500  -1.7500 Du        
     32 ****        17.5000  -5.7500  -1.5000 Du        
     33 ****        17.5000  -5.5000  -2.2500 Du        
     34 ****        17.5000  -5.5000  -2.0000 Du        
     35 ****        17.5000  -5.5000  -1.7500 Du        
     36 ****        17.5000  -5.5000  -1.5000 Du        
     37 ****        17.5000  -5.2500  -2.0000 Du        
     38 ****        17.5000  -5.2500  -1.7500 Du        
     39 ****        17.5000  -5.2500  -1.5000 Du        
     40 ****        17.7500 -17.2500   2.7500 Du        
     41 ****        17.7500 -17.2500   3.0000 Du        
     42 ****        17.7500 -17.2500   3.2500 Du        
     43 ****        17.7500 -17.0000   2.7500 Du        
     44 ****        17.7500 -17.0000   3.0000 Du        
     45 ****        17.7500 -17.0000   3.2500 Du        
     46 ****        17.7500 -17.0000   3.5000 Du        
     47 ****        17.7500 -16.7500   2.7500 Du        
     48 ****        17.7500 -16.7500   3.0000 Du        
     49 ****        17.7500 -16.7500   3.2500 Du        
     50 ****        17.7500 -16.7500   3.5000 Du        
     51 ****        17.7500 -16.5000   3.2500 Du        
     52 ****        17.7500  -6.0000  -2.0000 Du        
     53 ****        17.7500  -6.0000  -1.7500 Du        
     54 ****        17.7500  -5.7500  -2.0000 Du        
     55 ****        17.7500  -5.7500  -1.7500 Du        
     56 ****        17.7500  -5.5000  -2.2500 Du        
     57 ****        17.7500  -5.5000  -2.0000 Du        
     58 ****        17.7500  -5.5000  -1.7500 Du        
     59 ****        17.7500  -5.5000  -1.5000 Du        
     60 ****        17.7500  -5.2500  -2.0000 Du        
     61 ****        17.7500  -5.2500  -1.7500 Du        
     62 ****        18.0000 -17.5000   2.7500 Du        
     63 ****        18.0000 -17.5000   3.0000 Du        
     64 ****        18.0000 -17.5000   3.2500 Du        
     65 ****        18.0000 -17.2500   2.2500 Du        
     66 ****        18.0000 -17.2500   2.5000 Du        
     67 ****        18.0000 -17.2500   2.7500 Du        
     68 ****        18.0000 -17.2500   3.0000 Du        
     69 ****        18.0000 -17.2500   3.2500 Du        
     70 ****        18.0000 -17.2500   3.5000 Du        
     71 ****        18.0000 -17.2500   3.7500 Du        
     72 ****        18.0000 -17.0000   2.2500 Du        
     73 ****        18.0000 -17.0000   2.5000 Du        
     74 ****        18.0000 -17.0000   2.7500 Du        
     75 ****        18.0000 -17.0000   3.0000 Du        
     76 ****        18.0000 -17.0000   3.2500 Du        
     77 ****        18.0000 -17.0000   3.5000 Du        
     78 ****        18.0000 -17.0000   3.7500 Du        
     79 ****        18.0000 -16.7500   3.0000 Du        
     80 ****        18.0000 -16.7500   3.2500 Du        
     81 ****        18.0000 -16.7500   3.5000 Du        
     82 ****        18.0000 -16.7500   3.7500 Du        
     83 ****        18.0000 -16.5000   3.5000 Du        
     84 ****        18.0000 -16.5000   3.7500 Du        
     85 ****        18.0000  -6.0000  -2.0000 Du        
     86 ****        18.0000  -6.0000  -1.7500 Du        
     87 ****        18.0000  -5.7500  -2.0000 Du        
     88 ****        18.0000  -5.7500  -1.7500 Du        
     89 ****        18.0000  -5.5000  -2.0000 Du        
     90 ****        18.0000  -5.5000  -1.7500 Du        
     91 ****        18.2500 -17.7500   2.7500 Du        
     92 ****        18.2500 -17.7500   3.0000 Du        
     93 ****        18.2500 -17.7500   3.2500 Du        
     94 ****        18.2500 -17.5000   2.2500 Du        
     95 ****        18.2500 -17.5000   2.5000 Du        
     96 ****        18.2500 -17.5000   2.7500 Du        
     97 ****        18.2500 -17.5000   3.0000 Du        
     98 ****        18.2500 -17.5000   3.2500 Du        
     99 ****        18.2500 -17.5000   3.5000 Du        
    100 ****        18.2500 -17.5000   3.7500 Du        
    101 ****        18.2500 -17.2500   2.0000 Du        
    102 ****        18.2500 -17.2500   2.2500 Du        
    103 ****        18.2500 -17.2500   2.5000 Du        
    104 ****        18.2500 -17.2500   2.7500 Du        
    105 ****        18.2500 -17.2500   3.0000 Du        
    106 ****        18.2500 -17.2500   3.2500 Du        
    107 ****        18.2500 -17.2500   3.5000 Du        
    108 ****        18.2500 -17.2500   3.7500 Du        
    109 ****        18.2500 -17.2500   4.0000 Du        
    110 ****        18.2500 -17.0000   2.5000 Du        
    111 ****        18.2500 -17.0000   2.7500 Du        
    112 ****        18.2500 -17.0000   3.0000 Du        
    113 ****        18.2500 -17.0000   3.2500 Du        
    114 ****        18.2500 -17.0000   3.5000 Du        
    115 ****        18.2500 -17.0000   3.7500 Du        
    116 ****        18.2500 -17.0000   4.0000 Du        
    117 ****        18.2500 -16.7500   3.0000 Du        
    118 ****        18.2500 -16.7500   3.2500 Du        
    119 ****        18.2500 -16.7500   3.5000 Du        
    120 ****        18.2500 -16.7500   3.7500 Du        
    121 ****        18.2500 -16.7500   4.0000 Du        
    122 ****        18.2500 -16.5000   3.7500 Du        
    123 ****        18.2500 -16.5000   4.0000 Du        
    124 ****        18.2500  -6.0000  -2.0000 Du        
    125 ****        18.5000 -18.2500   3.2500 Du        
    126 ****        18.5000 -18.0000   2.5000 Du        
    127 ****        18.5000 -18.0000   2.7500 Du        
    128 ****        18.5000 -18.0000   3.0000 Du        
    129 ****        18.5000 -18.0000   3.2500 Du        
    130 ****        18.5000 -18.0000   3.5000 Du        
    131 ****        18.5000 -18.0000   3.7500 Du        
    132 ****        18.5000 -17.7500   2.2500 Du        
    133 ****        18.5000 -17.7500   2.5000 Du        
    134 ****        18.5000 -17.7500   2.7500 Du        
    135 ****        18.5000 -17.7500   3.0000 Du        
    136 ****        18.5000 -17.7500   3.2500 Du        
    137 ****        18.5000 -17.7500   3.5000 Du        
    138 ****        18.5000 -17.7500   3.7500 Du        
    139 ****        18.5000 -17.7500   4.0000 Du        
    140 ****        18.5000 -17.5000   2.0000 Du        
    141 ****        18.5000 -17.5000   2.2500 Du        
    142 ****        18.5000 -17.5000   2.5000 Du        
    143 ****        18.5000 -17.5000   2.7500 Du        
    144 ****        18.5000 -17.5000   3.0000 Du        
    145 ****        18.5000 -17.5000   3.2500 Du        
    146 ****        18.5000 -17.5000   3.5000 Du        
    147 ****        18.5000 -17.5000   3.7500 Du        
    148 ****        18.5000 -17.5000   4.0000 Du        
    149 ****        18.5000 -17.2500   2.0000 Du        
    150 ****        18.5000 -17.2500   2.2500 Du        
    151 ****        18.5000 -17.2500   2.5000 Du        
    152 ****        18.5000 -17.2500   2.7500 Du        
    153 ****        18.5000 -17.2500   3.0000 Du        
    154 ****        18.5000 -17.2500   3.2500 Du        
    155 ****        18.5000 -17.2500   3.5000 Du        
    156 ****        18.5000 -17.2500   3.7500 Du        
    157 ****        18.5000 -17.2500   4.0000 Du        
    158 ****        18.5000 -17.2500   4.2500 Du        
    159 ****        18.5000 -17.0000   2.5000 Du        
    160 ****        18.5000 -17.0000   2.7500 Du        
    161 ****        18.5000 -17.0000   3.0000 Du        
    162 ****        18.5000 -17.0000   3.2500 Du        
    163 ****        18.5000 -17.0000   3.5000 Du        
    164 ****        18.5000 -17.0000   3.7500 Du        
    165 ****        18.5000 -17.0000   4.0000 Du        
    166 ****        18.5000 -17.0000   4.2500 Du        
    167 ****        18.5000 -16.7500   3.2500 Du        
    168 ****        18.5000 -16.7500   3.5000 Du        
    169 ****        18.5000 -16.7500   3.7500 Du        
    170 ****        18.5000 -16.7500   4.0000 Du        
    171 ****        18.5000 -16.7500   4.2500 Du        
    172 ****        18.5000 -16.5000   3.7500 Du        
    173 ****        18.5000 -16.5000   4.0000 Du        
    174 ****        18.5000 -16.5000   4.2500 Du        
    175 ****        18.7500 -18.5000   3.0000 Du        
    176 ****        18.7500 -18.5000   3.2500 Du        
    177 ****        18.7500 -18.2500   2.5000 Du        
    178 ****        18.7500 -18.2500   2.7500 Du        
    179 ****        18.7500 -18.2500   3.0000 Du        
    180 ****        18.7500 -18.2500   3.2500 Du        
    181 ****        18.7500 -18.2500   3.5000 Du        
    182 ****        18.7500 -18.2500   3.7500 Du        
    183 ****        18.7500 -18.0000   2.0000 Du        
    184 ****        18.7500 -18.0000   2.2500 Du        
    185 ****        18.7500 -18.0000   2.5000 Du        
    186 ****        18.7500 -18.0000   2.7500 Du        
    187 ****        18.7500 -18.0000   3.0000 Du        
    188 ****        18.7500 -18.0000   3.2500 Du        
    189 ****        18.7500 -18.0000   3.5000 Du        
    190 ****        18.7500 -18.0000   3.7500 Du        
    191 ****        18.7500 -18.0000   4.0000 Du        
    192 ****        18.7500 -17.7500   1.7500 Du        
    193 ****        18.7500 -17.7500   2.0000 Du        
    194 ****        18.7500 -17.7500   2.2500 Du        
    195 ****        18.7500 -17.7500   2.5000 Du        
    196 ****        18.7500 -17.7500   2.7500 Du        
    197 ****        18.7500 -17.7500   3.0000 Du        
    198 ****        18.7500 -17.7500   3.2500 Du        
    199 ****        18.7500 -17.7500   3.5000 Du        
    200 ****        18.7500 -17.7500   3.7500 Du        
    201 ****        18.7500 -17.7500   4.0000 Du        
    202 ****        18.7500 -17.7500   4.2500 Du        
    203 ****        18.7500 -17.5000   1.7500 Du        
    204 ****        18.7500 -17.5000   2.0000 Du        
    205 ****        18.7500 -17.5000   2.2500 Du        
    206 ****        18.7500 -17.5000   2.5000 Du        
    207 ****        18.7500 -17.5000   2.7500 Du        
    208 ****        18.7500 -17.5000   3.0000 Du        
    209 ****        18.7500 -17.5000   3.2500 Du        
    210 ****        18.7500 -17.5000   3.5000 Du        
    211 ****        18.7500 -17.5000   3.7500 Du        
    212 ****        18.7500 -17.5000   4.0000 Du        
    213 ****        18.7500 -17.5000   4.2500 Du        
    214 ****        18.7500 -17.2500   2.0000 Du        
    215 ****        18.7500 -17.2500   2.2500 Du        
    216 ****        18.7500 -17.2500   2.5000 Du        
    217 ****        18.7500 -17.2500   2.7500 Du        
    218 ****        18.7500 -17.2500   3.0000 Du        
    219 ****        18.7500 -17.2500   3.2500 Du        
    220 ****        18.7500 -17.2500   3.5000 Du        
    221 ****        18.7500 -17.2500   3.7500 Du        
    222 ****        18.7500 -17.2500   4.0000 Du        
    223 ****        18.7500 -17.2500   4.2500 Du        
    224 ****        18.7500 -17.0000   2.5000 Du        
    225 ****        18.7500 -17.0000   2.7500 Du        
    226 ****        18.7500 -17.0000   3.0000 Du        
    227 ****        18.7500 -17.0000   3.2500 Du        
    228 ****        18.7500 -17.0000   3.5000 Du        
    229 ****        18.7500 -17.0000   3.7500 Du        
    230 ****        18.7500 -17.0000   4.0000 Du        
    231 ****        18.7500 -17.0000   4.2500 Du        
    232 ****        18.7500 -16.7500   3.2500 Du        
    233 ****        18.7500 -16.7500   3.5000 Du        
    234 ****        18.7500 -16.7500   3.7500 Du        
    235 ****        18.7500 -16.7500   4.0000 Du        
    236 ****        18.7500 -16.7500   4.2500 Du        
    237 ****        18.7500 -16.5000   3.7500 Du        
    238 ****        18.7500 -16.5000   4.0000 Du        
    239 ****        19.0000 -19.0000   3.2500 Du        
    240 ****        19.0000 -18.7500   3.0000 Du        
    241 ****        19.0000 -18.7500   3.2500 Du        
    242 ****        19.0000 -18.5000   2.5000 Du        
    243 ****        19.0000 -18.5000   2.7500 Du        
    244 ****        19.0000 -18.5000   3.0000 Du        
    245 ****        19.0000 -18.5000   3.2500 Du        
    246 ****        19.0000 -18.5000   3.5000 Du        
    247 ****        19.0000 -18.5000   3.7500 Du        
    248 ****        19.0000 -18.5000   4.0000 Du        
    249 ****        19.0000 -18.2500   2.0000 Du        
    250 ****        19.0000 -18.2500   2.2500 Du        
    251 ****        19.0000 -18.2500   2.5000 Du        
    252 ****        19.0000 -18.2500   2.7500 Du        
    253 ****        19.0000 -18.2500   3.0000 Du        
    254 ****        19.0000 -18.2500   3.2500 Du        
    255 ****        19.0000 -18.2500   3.5000 Du        
    256 ****        19.0000 -18.2500   3.7500 Du        
    257 ****        19.0000 -18.2500   4.0000 Du        
    258 ****        19.0000 -18.0000   1.7500 Du        
    259 ****        19.0000 -18.0000   2.0000 Du        
    260 ****        19.0000 -18.0000   2.2500 Du        
    261 ****        19.0000 -18.0000   2.5000 Du        
    262 ****        19.0000 -18.0000   2.7500 Du        
    263 ****        19.0000 -18.0000   3.0000 Du        
    264 ****        19.0000 -18.0000   3.2500 Du        
    265 ****        19.0000 -18.0000   3.5000 Du        
    266 ****        19.0000 -18.0000   3.7500 Du        
    267 ****        19.0000 -18.0000   4.0000 Du        
    268 ****        19.0000 -18.0000   4.2500 Du        
    269 ****        19.0000 -17.7500   1.5000 Du        
    270 ****        19.0000 -17.7500   1.7500 Du        
    271 ****        19.0000 -17.7500   2.0000 Du        
    272 ****        19.0000 -17.7500   2.2500 Du        
    273 ****        19.0000 -17.7500   2.5000 Du        
    274 ****        19.0000 -17.7500   2.7500 Du        
    275 ****        19.0000 -17.7500   3.0000 Du        
    276 ****        19.0000 -17.7500   3.2500 Du        
    277 ****        19.0000 -17.7500   3.5000 Du        
    278 ****        19.0000 -17.7500   3.7500 Du        
    279 ****        19.0000 -17.7500   4.0000 Du        
    280 ****        19.0000 -17.7500   4.2500 Du        
    281 ****        19.0000 -17.5000   1.7500 Du        
    282 ****        19.0000 -17.5000   2.0000 Du        
    283 ****        19.0000 -17.5000   2.2500 Du        
    284 ****        19.0000 -17.5000   2.5000 Du        
    285 ****        19.0000 -17.5000   2.7500 Du        
    286 ****        19.0000 -17.5000   3.0000 Du        
    287 ****        19.0000 -17.5000   3.2500 Du        
    288 ****        19.0000 -17.5000   3.5000 Du        
    289 ****        19.0000 -17.5000   3.7500 Du        
    290 ****        19.0000 -17.5000   4.0000 Du        
    291 ****        19.0000 -17.5000   4.2500 Du        
    292 ****        19.0000 -17.2500   2.0000 Du        
    293 ****        19.0000 -17.2500   2.2500 Du        
    294 ****        19.0000 -17.2500   2.5000 Du        
    295 ****        19.0000 -17.2500   2.7500 Du        
    296 ****        19.0000 -17.2500   3.0000 Du        
    297 ****        19.0000 -17.2500   3.2500 Du        
    298 ****        19.0000 -17.2500   3.5000 Du        
    299 ****        19.0000 -17.2500   3.7500 Du        
    300 ****        19.0000 -17.2500   4.0000 Du        
    301 ****        19.0000 -17.2500   4.2500 Du        
    302 ****        19.0000 -17.2500   9.0000 Du        
    303 ****        19.0000 -17.0000   2.7500 Du        
    304 ****        19.0000 -17.0000   3.0000 Du        
    305 ****        19.0000 -17.0000   3.2500 Du        
    306 ****        19.0000 -17.0000   3.5000 Du        
    307 ****        19.0000 -17.0000   3.7500 Du        
    308 ****        19.0000 -17.0000   4.0000 Du        
    309 ****        19.0000 -17.0000   4.2500 Du        
    310 ****        19.0000 -17.0000   9.0000 Du        
    311 ****        19.0000 -16.7500   3.2500 Du        
    312 ****        19.0000 -16.7500   3.5000 Du        
    313 ****        19.0000 -16.7500   3.7500 Du        
    314 ****        19.0000 -16.7500   4.0000 Du        
    315 ****        19.0000 -16.7500   4.2500 Du        
    316 ****        19.0000 -16.7500   9.2500 Du        
    317 ****        19.0000  -9.2500  -3.5000 Du        
    318 ****        19.0000  -9.2500  -3.2500 Du        
    319 ****        19.2500 -19.2500   3.2500 Du        
    320 ****        19.2500 -19.0000   3.0000 Du        
    321 ****        19.2500 -19.0000   3.2500 Du        
    322 ****        19.2500 -18.7500   2.7500 Du        
    323 ****        19.2500 -18.7500   3.0000 Du        
    324 ****        19.2500 -18.7500   3.2500 Du        
    325 ****        19.2500 -18.5000   2.0000 Du        
    326 ****        19.2500 -18.5000   2.2500 Du        
    327 ****        19.2500 -18.5000   2.5000 Du        
    328 ****        19.2500 -18.5000   2.7500 Du        
    329 ****        19.2500 -18.5000   3.0000 Du        
    330 ****        19.2500 -18.5000   3.2500 Du        
    331 ****        19.2500 -18.5000   3.5000 Du        
    332 ****        19.2500 -18.5000   3.7500 Du        
    333 ****        19.2500 -18.5000   4.0000 Du        
    334 ****        19.2500 -18.2500   1.7500 Du        
    335 ****        19.2500 -18.2500   2.0000 Du        
    336 ****        19.2500 -18.2500   2.2500 Du        
    337 ****        19.2500 -18.2500   2.5000 Du        
    338 ****        19.2500 -18.2500   2.7500 Du        
    339 ****        19.2500 -18.2500   3.0000 Du        
    340 ****        19.2500 -18.2500   3.2500 Du        
    341 ****        19.2500 -18.2500   3.5000 Du        
    342 ****        19.2500 -18.2500   3.7500 Du        
    343 ****        19.2500 -18.2500   4.0000 Du        
    344 ****        19.2500 -18.2500   4.2500 Du        
    345 ****        19.2500 -18.0000   1.5000 Du        
    346 ****        19.2500 -18.0000   1.7500 Du        
    347 ****        19.2500 -18.0000   2.0000 Du        
    348 ****        19.2500 -18.0000   2.2500 Du        
    349 ****        19.2500 -18.0000   2.5000 Du        
    350 ****        19.2500 -18.0000   2.7500 Du        
    351 ****        19.2500 -18.0000   3.0000 Du        
    352 ****        19.2500 -18.0000   3.2500 Du        
    353 ****        19.2500 -18.0000   3.5000 Du        
    354 ****        19.2500 -18.0000   3.7500 Du        
    355 ****        19.2500 -18.0000   4.0000 Du        
    356 ****        19.2500 -18.0000   4.2500 Du        
    357 ****        19.2500 -18.0000   8.5000 Du        
    358 ****        19.2500 -17.7500   1.5000 Du        
    359 ****        19.2500 -17.7500   1.7500 Du        
    360 ****        19.2500 -17.7500   2.0000 Du        
    361 ****        19.2500 -17.7500   2.2500 Du        
    362 ****        19.2500 -17.7500   2.5000 Du        
    363 ****        19.2500 -17.7500   2.7500 Du        
    364 ****        19.2500 -17.7500   3.0000 Du        
    365 ****        19.2500 -17.7500   3.2500 Du        
    366 ****        19.2500 -17.7500   3.5000 Du        
    367 ****        19.2500 -17.7500   3.7500 Du        
    368 ****        19.2500 -17.7500   4.0000 Du        
    369 ****        19.2500 -17.7500   4.2500 Du        
    370 ****        19.2500 -17.7500   8.5000 Du        
    371 ****        19.2500 -17.7500   8.7500 Du        
    372 ****        19.2500 -17.7500   9.0000 Du        
    373 ****        19.2500 -17.5000   1.7500 Du        
    374 ****        19.2500 -17.5000   2.0000 Du        
    375 ****        19.2500 -17.5000   2.2500 Du        
    376 ****        19.2500 -17.5000   2.5000 Du        
    377 ****        19.2500 -17.5000   2.7500 Du        
    378 ****        19.2500 -17.5000   3.0000 Du        
    379 ****        19.2500 -17.5000   3.2500 Du        
    380 ****        19.2500 -17.5000   3.5000 Du        
    381 ****        19.2500 -17.5000   3.7500 Du        
    382 ****        19.2500 -17.5000   4.0000 Du        
    383 ****        19.2500 -17.5000   4.2500 Du        
    384 ****        19.2500 -17.5000   8.7500 Du        
    385 ****        19.2500 -17.5000   9.0000 Du        
    386 ****        19.2500 -17.2500   2.0000 Du        
    387 ****        19.2500 -17.2500   2.2500 Du        
    388 ****        19.2500 -17.2500   2.5000 Du        
    389 ****        19.2500 -17.2500   2.7500 Du        
    390 ****        19.2500 -17.2500   3.0000 Du        
    391 ****        19.2500 -17.2500   3.2500 Du        
    392 ****        19.2500 -17.2500   3.5000 Du        
    393 ****        19.2500 -17.2500   3.7500 Du        
    394 ****        19.2500 -17.2500   4.0000 Du        
    395 ****        19.2500 -17.2500   4.2500 Du        
    396 ****        19.2500 -17.2500   8.7500 Du        
    397 ****        19.2500 -17.2500   9.0000 Du        
    398 ****        19.2500 -17.2500   9.2500 Du        
    399 ****        19.2500 -17.0000   2.7500 Du        
    400 ****        19.2500 -17.0000   3.0000 Du        
    401 ****        19.2500 -17.0000   3.2500 Du        
    402 ****        19.2500 -17.0000   3.5000 Du        
    403 ****        19.2500 -17.0000   3.7500 Du        
    404 ****        19.2500 -17.0000   4.0000 Du        
    405 ****        19.2500 -17.0000   4.2500 Du        
    406 ****        19.2500 -17.0000   8.7500 Du        
    407 ****        19.2500 -17.0000   9.0000 Du        
    408 ****        19.2500 -17.0000   9.2500 Du        
    409 ****        19.2500 -16.7500   3.2500 Du        
    410 ****        19.2500 -16.7500   3.5000 Du        
    411 ****        19.2500 -16.7500   3.7500 Du        
    412 ****        19.2500 -16.7500   4.0000 Du        
    413 ****        19.2500 -16.7500   4.2500 Du        
    414 ****        19.2500 -16.7500   9.0000 Du        
    415 ****        19.2500 -16.7500   9.2500 Du        
    416 ****        19.2500 -16.7500   9.5000 Du        
    417 ****        19.2500 -16.5000   9.5000 Du        
    418 ****        19.2500 -16.2500   9.5000 Du        
    419 ****        19.2500 -16.2500   9.7500 Du        
    420 ****        19.2500  -9.2500  -3.7500 Du        
    421 ****        19.2500  -9.2500  -3.5000 Du        
    422 ****        19.2500  -9.2500  -3.2500 Du        
    423 ****        19.2500  -9.2500  -3.0000 Du        
    424 ****        19.2500  -9.0000  -3.7500 Du        
    425 ****        19.2500  -9.0000  -3.2500 Du        
    426 ****        19.5000 -19.5000   3.0000 Du        
    427 ****        19.5000 -19.5000   3.2500 Du        
    428 ****        19.5000 -19.2500   2.7500 Du        
    429 ****        19.5000 -19.2500   3.0000 Du        
    430 ****        19.5000 -19.2500   3.2500 Du        
    431 ****        19.5000 -19.0000   2.2500 Du        
    432 ****        19.5000 -19.0000   2.5000 Du        
    433 ****        19.5000 -19.0000   2.7500 Du        
    434 ****        19.5000 -19.0000   3.0000 Du        
    435 ****        19.5000 -19.0000   3.2500 Du        
    436 ****        19.5000 -19.0000   3.5000 Du        
    437 ****        19.5000 -18.7500   2.0000 Du        
    438 ****        19.5000 -18.7500   2.2500 Du        
    439 ****        19.5000 -18.7500   2.5000 Du        
    440 ****        19.5000 -18.7500   2.7500 Du        
    441 ****        19.5000 -18.7500   3.0000 Du        
    442 ****        19.5000 -18.7500   3.2500 Du        
    443 ****        19.5000 -18.7500   3.5000 Du        
    444 ****        19.5000 -18.7500   3.7500 Du        
    445 ****        19.5000 -18.7500   4.0000 Du        
    446 ****        19.5000 -18.5000   1.7500 Du        
    447 ****        19.5000 -18.5000   2.0000 Du        
    448 ****        19.5000 -18.5000   2.2500 Du        
    449 ****        19.5000 -18.5000   2.5000 Du        
    450 ****        19.5000 -18.5000   2.7500 Du        
    451 ****        19.5000 -18.5000   3.0000 Du        
    452 ****        19.5000 -18.5000   3.2500 Du        
    453 ****        19.5000 -18.5000   3.5000 Du        
    454 ****        19.5000 -18.5000   3.7500 Du        
    455 ****        19.5000 -18.5000   4.0000 Du        
    456 ****        19.5000 -18.2500   1.5000 Du        
    457 ****        19.5000 -18.2500   1.7500 Du        
    458 ****        19.5000 -18.2500   2.0000 Du        
    459 ****        19.5000 -18.2500   2.2500 Du        
    460 ****        19.5000 -18.2500   2.5000 Du        
    461 ****        19.5000 -18.2500   2.7500 Du        
    462 ****        19.5000 -18.2500   3.0000 Du        
    463 ****        19.5000 -18.2500   3.2500 Du        
    464 ****        19.5000 -18.2500   3.5000 Du        
    465 ****        19.5000 -18.2500   3.7500 Du        
    466 ****        19.5000 -18.2500   4.0000 Du        
    467 ****        19.5000 -18.2500   4.2500 Du        
    468 ****        19.5000 -18.2500   8.5000 Du        
    469 ****        19.5000 -18.0000   1.5000 Du        
    470 ****        19.5000 -18.0000   1.7500 Du        
    471 ****        19.5000 -18.0000   2.0000 Du        
    472 ****        19.5000 -18.0000   2.2500 Du        
    473 ****        19.5000 -18.0000   2.5000 Du        
    474 ****        19.5000 -18.0000   2.7500 Du        
    475 ****        19.5000 -18.0000   3.0000 Du        
    476 ****        19.5000 -18.0000   3.2500 Du        
    477 ****        19.5000 -18.0000   3.5000 Du        
    478 ****        19.5000 -18.0000   3.7500 Du        
    479 ****        19.5000 -18.0000   4.0000 Du        
    480 ****        19.5000 -18.0000   4.2500 Du        
    481 ****        19.5000 -18.0000   4.5000 Du        
    482 ****        19.5000 -18.0000   8.5000 Du        
    483 ****        19.5000 -17.7500   1.7500 Du        
    484 ****        19.5000 -17.7500   2.0000 Du        
    485 ****        19.5000 -17.7500   2.2500 Du        
    486 ****        19.5000 -17.7500   2.5000 Du        
    487 ****        19.5000 -17.7500   2.7500 Du        
    488 ****        19.5000 -17.7500   3.0000 Du        
    489 ****        19.5000 -17.7500   3.2500 Du        
    490 ****        19.5000 -17.7500   3.5000 Du        
    491 ****        19.5000 -17.7500   3.7500 Du        
    492 ****        19.5000 -17.7500   4.0000 Du        
    493 ****        19.5000 -17.7500   4.2500 Du        
    494 ****        19.5000 -17.7500   4.5000 Du        
    495 ****        19.5000 -17.7500   4.7500 Du        
    496 ****        19.5000 -17.7500   8.5000 Du        
    497 ****        19.5000 -17.7500   8.7500 Du        
    498 ****        19.5000 -17.7500   9.0000 Du        
    499 ****        19.5000 -17.5000   2.0000 Du        
    500 ****        19.5000 -17.5000   2.2500 Du        
    501 ****        19.5000 -17.5000   2.5000 Du        
    502 ****        19.5000 -17.5000   2.7500 Du        
    503 ****        19.5000 -17.5000   3.0000 Du        
    504 ****        19.5000 -17.5000   3.2500 Du        
    505 ****        19.5000 -17.5000   3.5000 Du        
    506 ****        19.5000 -17.5000   3.7500 Du        
    507 ****        19.5000 -17.5000   4.0000 Du        
    508 ****        19.5000 -17.5000   4.2500 Du        
    509 ****        19.5000 -17.5000   4.5000 Du        
    510 ****        19.5000 -17.5000   4.7500 Du        
    511 ****        19.5000 -17.5000   8.5000 Du        
    512 ****        19.5000 -17.5000   8.7500 Du        
    513 ****        19.5000 -17.5000   9.0000 Du        
    514 ****        19.5000 -17.2500   2.2500 Du        
    515 ****        19.5000 -17.2500   2.5000 Du        
    516 ****        19.5000 -17.2500   2.7500 Du        
    517 ****        19.5000 -17.2500   3.0000 Du        
    518 ****        19.5000 -17.2500   3.2500 Du        
    519 ****        19.5000 -17.2500   3.5000 Du        
    520 ****        19.5000 -17.2500   3.7500 Du        
    521 ****        19.5000 -17.2500   4.0000 Du        
    522 ****        19.5000 -17.2500   4.2500 Du        
    523 ****        19.5000 -17.2500   8.7500 Du        
    524 ****        19.5000 -17.2500   9.0000 Du        
    525 ****        19.5000 -17.2500   9.2500 Du        
    526 ****        19.5000 -17.0000   2.7500 Du        
    527 ****        19.5000 -17.0000   3.0000 Du        
    528 ****        19.5000 -17.0000   3.2500 Du        
    529 ****        19.5000 -17.0000   3.5000 Du        
    530 ****        19.5000 -17.0000   3.7500 Du        
    531 ****        19.5000 -17.0000   4.0000 Du        
    532 ****        19.5000 -17.0000   4.2500 Du        
    533 ****        19.5000 -17.0000   8.7500 Du        
    534 ****        19.5000 -17.0000   9.0000 Du        
    535 ****        19.5000 -17.0000   9.2500 Du        
    536 ****        19.5000 -17.0000   9.5000 Du        
    537 ****        19.5000 -16.7500   3.5000 Du        
    538 ****        19.5000 -16.7500   3.7500 Du        
    539 ****        19.5000 -16.7500   4.0000 Du        
    540 ****        19.5000 -16.7500   9.0000 Du        
    541 ****        19.5000 -16.7500   9.2500 Du        
    542 ****        19.5000 -16.7500   9.5000 Du        
    543 ****        19.5000 -16.7500   9.7500 Du        
    544 ****        19.5000 -16.5000   9.0000 Du        
    545 ****        19.5000 -16.5000   9.2500 Du        
    546 ****        19.5000 -16.5000   9.5000 Du        
    547 ****        19.5000 -16.5000   9.7500 Du        
    548 ****        19.5000 -16.2500   9.2500 Du        
    549 ****        19.5000 -16.2500   9.5000 Du        
    550 ****        19.5000 -16.2500   9.7500 Du        
    551 ****        19.5000  -9.2500  -3.7500 Du        
    552 ****        19.5000  -9.2500  -3.5000 Du        
    553 ****        19.5000  -9.2500  -3.2500 Du        
    554 ****        19.5000  -9.2500  -3.0000 Du        
    555 ****        19.5000  -9.0000  -4.0000 Du        
    556 ****        19.5000  -9.0000  -3.7500 Du        
    557 ****        19.5000  -9.0000  -3.5000 Du        
    558 ****        19.5000  -9.0000  -3.2500 Du        
    559 ****        19.5000  -9.0000  -3.0000 Du        
    560 ****        19.5000  -9.0000  -2.7500 Du        
    561 ****        19.5000  -9.0000  -2.5000 Du        
    562 ****        19.5000  -8.7500  -3.7500 Du        
    563 ****        19.5000  -8.7500  -3.5000 Du        
    564 ****        19.5000  -8.7500  -3.2500 Du        
    565 ****        19.5000  -8.7500  -3.0000 Du        
    566 ****        19.7500 -19.7500   3.0000 Du        
    567 ****        19.7500 -19.7500   3.2500 Du        
    568 ****        19.7500 -19.5000   2.7500 Du        
    569 ****        19.7500 -19.5000   3.0000 Du        
    570 ****        19.7500 -19.5000   3.2500 Du        
    571 ****        19.7500 -19.2500   2.2500 Du        
    572 ****        19.7500 -19.2500   2.5000 Du        
    573 ****        19.7500 -19.2500   2.7500 Du        
    574 ****        19.7500 -19.2500   3.0000 Du        
    575 ****        19.7500 -19.2500   3.2500 Du        
    576 ****        19.7500 -19.2500   3.5000 Du        
    577 ****        19.7500 -19.0000   2.0000 Du        
    578 ****        19.7500 -19.0000   2.2500 Du        
    579 ****        19.7500 -19.0000   2.5000 Du        
    580 ****        19.7500 -19.0000   2.7500 Du        
    581 ****        19.7500 -19.0000   3.0000 Du        
    582 ****        19.7500 -19.0000   3.2500 Du        
    583 ****        19.7500 -19.0000   3.5000 Du        
    584 ****        19.7500 -18.7500   1.7500 Du        
    585 ****        19.7500 -18.7500   2.0000 Du        
    586 ****        19.7500 -18.7500   2.2500 Du        
    587 ****        19.7500 -18.7500   2.5000 Du        
    588 ****        19.7500 -18.7500   2.7500 Du        
    589 ****        19.7500 -18.7500   3.0000 Du        
    590 ****        19.7500 -18.7500   3.2500 Du        
    591 ****        19.7500 -18.7500   3.5000 Du        
    592 ****        19.7500 -18.7500   3.7500 Du        
    593 ****        19.7500 -18.5000   1.5000 Du        
    594 ****        19.7500 -18.5000   1.7500 Du        
    595 ****        19.7500 -18.5000   2.0000 Du        
    596 ****        19.7500 -18.5000   2.2500 Du        
    597 ****        19.7500 -18.5000   2.5000 Du        
    598 ****        19.7500 -18.5000   2.7500 Du        
    599 ****        19.7500 -18.5000   3.0000 Du        
    600 ****        19.7500 -18.5000   3.2500 Du        
    601 ****        19.7500 -18.5000   3.5000 Du        
    602 ****        19.7500 -18.5000   3.7500 Du        
    603 ****        19.7500 -18.2500   1.5000 Du        
    604 ****        19.7500 -18.2500   1.7500 Du        
    605 ****        19.7500 -18.2500   2.0000 Du        
    606 ****        19.7500 -18.2500   2.2500 Du        
    607 ****        19.7500 -18.2500   2.5000 Du        
    608 ****        19.7500 -18.2500   2.7500 Du        
    609 ****        19.7500 -18.2500   3.0000 Du        
    610 ****        19.7500 -18.2500   3.2500 Du        
    611 ****        19.7500 -18.2500   3.5000 Du        
    612 ****        19.7500 -18.2500   3.7500 Du        
    613 ****        19.7500 -18.2500   4.0000 Du        
    614 ****        19.7500 -18.0000   1.7500 Du        
    615 ****        19.7500 -18.0000   2.0000 Du        
    616 ****        19.7500 -18.0000   2.2500 Du        
    617 ****        19.7500 -18.0000   2.5000 Du        
    618 ****        19.7500 -18.0000   2.7500 Du        
    619 ****        19.7500 -18.0000   3.0000 Du        
    620 ****        19.7500 -18.0000   3.2500 Du        
    621 ****        19.7500 -18.0000   3.5000 Du        
    622 ****        19.7500 -18.0000   3.7500 Du        
    623 ****        19.7500 -18.0000   4.0000 Du        
    624 ****        19.7500 -18.0000   4.2500 Du        
    625 ****        19.7500 -18.0000   8.5000 Du        
    626 ****        19.7500 -18.0000   8.7500 Du        
    627 ****        19.7500 -18.0000   9.0000 Du        
    628 ****        19.7500 -17.7500   2.0000 Du        
    629 ****        19.7500 -17.7500   2.2500 Du        
    630 ****        19.7500 -17.7500   2.5000 Du        
    631 ****        19.7500 -17.7500   2.7500 Du        
    632 ****        19.7500 -17.7500   3.0000 Du        
    633 ****        19.7500 -17.7500   3.2500 Du        
    634 ****        19.7500 -17.7500   3.5000 Du        
    635 ****        19.7500 -17.7500   3.7500 Du        
    636 ****        19.7500 -17.7500   4.0000 Du        
    637 ****        19.7500 -17.7500   4.2500 Du        
    638 ****        19.7500 -17.7500   4.5000 Du        
    639 ****        19.7500 -17.7500   8.5000 Du        
    640 ****        19.7500 -17.7500   8.7500 Du        
    641 ****        19.7500 -17.7500   9.0000 Du        
    642 ****        19.7500 -17.5000   2.2500 Du        
    643 ****        19.7500 -17.5000   2.5000 Du        
    644 ****        19.7500 -17.5000   2.7500 Du        
    645 ****        19.7500 -17.5000   3.0000 Du        
    646 ****        19.7500 -17.5000   3.2500 Du        
    647 ****        19.7500 -17.5000   3.5000 Du        
    648 ****        19.7500 -17.5000   3.7500 Du        
    649 ****        19.7500 -17.5000   4.0000 Du        
    650 ****        19.7500 -17.5000   4.2500 Du        
    651 ****        19.7500 -17.5000   4.5000 Du        
    652 ****        19.7500 -17.5000   8.7500 Du        
    653 ****        19.7500 -17.5000   9.0000 Du        
    654 ****        19.7500 -17.5000   9.2500 Du        
    655 ****        19.7500 -17.2500   2.5000 Du        
    656 ****        19.7500 -17.2500   2.7500 Du        
    657 ****        19.7500 -17.2500   3.0000 Du        
    658 ****        19.7500 -17.2500   3.2500 Du        
    659 ****        19.7500 -17.2500   3.5000 Du        
    660 ****        19.7500 -17.2500   3.7500 Du        
    661 ****        19.7500 -17.2500   4.0000 Du        
    662 ****        19.7500 -17.2500   4.2500 Du        
    663 ****        19.7500 -17.2500   8.7500 Du        
    664 ****        19.7500 -17.2500   9.0000 Du        
    665 ****        19.7500 -17.2500   9.2500 Du        
    666 ****        19.7500 -17.0000   3.0000 Du        
    667 ****        19.7500 -17.0000   3.2500 Du        
    668 ****        19.7500 -17.0000   3.5000 Du        
    669 ****        19.7500 -17.0000   3.7500 Du        
    670 ****        19.7500 -17.0000   4.0000 Du        
    671 ****        19.7500 -17.0000   9.0000 Du        
    672 ****        19.7500 -17.0000   9.2500 Du        
    673 ****        19.7500 -17.0000   9.5000 Du        
    674 ****        19.7500 -16.7500   9.0000 Du        
    675 ****        19.7500 -16.7500   9.2500 Du        
    676 ****        19.7500 -16.7500   9.5000 Du        
    677 ****        19.7500 -16.5000   9.2500 Du        
    678 ****        19.7500 -16.5000   9.5000 Du        
    679 ****        19.7500 -16.2500   9.5000 Du        
    680 ****        19.7500  -9.5000  -3.5000 Du        
    681 ****        19.7500  -9.5000  -3.2500 Du        
    682 ****        19.7500  -9.5000  -3.0000 Du        
    683 ****        19.7500  -9.5000  -2.7500 Du        
    684 ****        19.7500  -9.2500  -4.2500 Du        
    685 ****        19.7500  -9.2500  -4.0000 Du        
    686 ****        19.7500  -9.2500  -3.7500 Du        
    687 ****        19.7500  -9.2500  -3.5000 Du        
    688 ****        19.7500  -9.2500  -3.2500 Du        
    689 ****        19.7500  -9.2500  -3.0000 Du        
    690 ****        19.7500  -9.2500  -2.7500 Du        
    691 ****        19.7500  -9.2500  -2.5000 Du        
    692 ****        19.7500  -9.0000  -4.2500 Du        
    693 ****        19.7500  -9.0000  -4.0000 Du        
    694 ****        19.7500  -9.0000  -3.7500 Du        
    695 ****        19.7500  -9.0000  -3.5000 Du        
    696 ****        19.7500  -9.0000  -3.2500 Du        
    697 ****        19.7500  -9.0000  -3.0000 Du        
    698 ****        19.7500  -9.0000  -2.7500 Du        
    699 ****        19.7500  -9.0000  -2.5000 Du        
    700 ****        19.7500  -9.0000  -2.2500 Du        
    701 ****        19.7500  -8.7500  -4.0000 Du        
    702 ****        19.7500  -8.7500  -3.7500 Du        
    703 ****        19.7500  -8.7500  -3.5000 Du        
    704 ****        19.7500  -8.7500  -3.2500 Du        
    705 ****        19.7500  -8.7500  -3.0000 Du        
    706 ****        19.7500  -8.7500  -2.7500 Du        
    707 ****        20.0000 -20.0000   2.7500 Du        
    708 ****        20.0000 -20.0000   3.0000 Du        
    709 ****        20.0000 -19.7500   2.2500 Du        
    710 ****        20.0000 -19.7500   2.5000 Du        
    711 ****        20.0000 -19.7500   2.7500 Du        
    712 ****        20.0000 -19.7500   3.0000 Du        
    713 ****        20.0000 -19.7500   3.2500 Du        
    714 ****        20.0000 -19.5000   2.0000 Du        
    715 ****        20.0000 -19.5000   2.2500 Du        
    716 ****        20.0000 -19.5000   2.5000 Du        
    717 ****        20.0000 -19.5000   2.7500 Du        
    718 ****        20.0000 -19.5000   3.0000 Du        
    719 ****        20.0000 -19.5000   3.2500 Du        
    720 ****        20.0000 -19.2500   1.7500 Du        
    721 ****        20.0000 -19.2500   2.0000 Du        
    722 ****        20.0000 -19.2500   2.2500 Du        
    723 ****        20.0000 -19.2500   2.5000 Du        
    724 ****        20.0000 -19.2500   2.7500 Du        
    725 ****        20.0000 -19.2500   3.0000 Du        
    726 ****        20.0000 -19.2500   3.2500 Du        
    727 ****        20.0000 -19.0000   1.7500 Du        
    728 ****        20.0000 -19.0000   2.0000 Du        
    729 ****        20.0000 -19.0000   2.2500 Du        
    730 ****        20.0000 -19.0000   2.5000 Du        
    731 ****        20.0000 -19.0000   2.7500 Du        
    732 ****        20.0000 -19.0000   3.0000 Du        
    733 ****        20.0000 -19.0000   3.2500 Du        
    734 ****        20.0000 -19.0000   3.5000 Du        
    735 ****        20.0000 -18.7500   1.7500 Du        
    736 ****        20.0000 -18.7500   2.0000 Du        
    737 ****        20.0000 -18.7500   2.2500 Du        
    738 ****        20.0000 -18.7500   2.5000 Du        
    739 ****        20.0000 -18.7500   2.7500 Du        
    740 ****        20.0000 -18.7500   3.0000 Du        
    741 ****        20.0000 -18.7500   3.2500 Du        
    742 ****        20.0000 -18.7500   3.5000 Du        
    743 ****        20.0000 -18.5000   1.7500 Du        
    744 ****        20.0000 -18.5000   2.0000 Du        
    745 ****        20.0000 -18.5000   2.2500 Du        
    746 ****        20.0000 -18.5000   2.5000 Du        
    747 ****        20.0000 -18.5000   2.7500 Du        
    748 ****        20.0000 -18.5000   3.0000 Du        
    749 ****        20.0000 -18.5000   3.2500 Du        
    750 ****        20.0000 -18.5000   3.5000 Du        
    751 ****        20.0000 -18.2500   1.7500 Du        
    752 ****        20.0000 -18.2500   2.0000 Du        
    753 ****        20.0000 -18.2500   2.2500 Du        
    754 ****        20.0000 -18.2500   2.5000 Du        
    755 ****        20.0000 -18.2500   2.7500 Du        
    756 ****        20.0000 -18.2500   3.0000 Du        
    757 ****        20.0000 -18.2500   3.2500 Du        
    758 ****        20.0000 -18.2500   3.5000 Du        
    759 ****        20.0000 -18.2500   3.7500 Du        
    760 ****        20.0000 -18.0000   2.0000 Du        
    761 ****        20.0000 -18.0000   2.2500 Du        
    762 ****        20.0000 -18.0000   2.5000 Du        
    763 ****        20.0000 -18.0000   2.7500 Du        
    764 ****        20.0000 -18.0000   3.0000 Du        
    765 ****        20.0000 -18.0000   3.2500 Du        
    766 ****        20.0000 -18.0000   3.5000 Du        
    767 ****        20.0000 -18.0000   3.7500 Du        
    768 ****        20.0000 -18.0000   4.0000 Du        
    769 ****        20.0000 -18.0000   8.7500 Du        
    770 ****        20.0000 -17.7500   2.2500 Du        
    771 ****        20.0000 -17.7500   2.5000 Du        
    772 ****        20.0000 -17.7500   2.7500 Du        
    773 ****        20.0000 -17.7500   3.0000 Du        
    774 ****        20.0000 -17.7500   3.2500 Du        
    775 ****        20.0000 -17.7500   3.5000 Du        
    776 ****        20.0000 -17.7500   3.7500 Du        
    777 ****        20.0000 -17.7500   4.0000 Du        
    778 ****        20.0000 -17.7500   4.2500 Du        
    779 ****        20.0000 -17.7500   8.7500 Du        
    780 ****        20.0000 -17.7500   9.0000 Du        
    781 ****        20.0000 -17.5000   2.5000 Du        
    782 ****        20.0000 -17.5000   2.7500 Du        
    783 ****        20.0000 -17.5000   3.0000 Du        
    784 ****        20.0000 -17.5000   3.2500 Du        
    785 ****        20.0000 -17.5000   3.5000 Du        
    786 ****        20.0000 -17.5000   3.7500 Du        
    787 ****        20.0000 -17.5000   4.0000 Du        
    788 ****        20.0000 -17.5000   4.2500 Du        
    789 ****        20.0000 -17.5000   8.7500 Du        
    790 ****        20.0000 -17.5000   9.0000 Du        
    791 ****        20.0000 -17.2500   2.7500 Du        
    792 ****        20.0000 -17.2500   3.0000 Du        
    793 ****        20.0000 -17.2500   3.2500 Du        
    794 ****        20.0000 -17.2500   3.5000 Du        
    795 ****        20.0000 -17.2500   3.7500 Du        
    796 ****        20.0000 -17.2500   4.0000 Du        
    797 ****        20.0000 -17.2500   8.7500 Du        
    798 ****        20.0000 -17.2500   9.0000 Du        
    799 ****        20.0000 -17.2500   9.2500 Du        
    800 ****        20.0000 -17.0000   3.2500 Du        
    801 ****        20.0000 -17.0000   3.5000 Du        
    802 ****        20.0000 -17.0000   3.7500 Du        
    803 ****        20.0000 -17.0000   9.0000 Du        
    804 ****        20.0000 -17.0000   9.2500 Du        
    805 ****        20.0000 -16.7500   9.2500 Du        
    806 ****        20.0000 -16.7500   9.5000 Du        
    807 ****        20.0000 -10.0000  -2.7500 Du        
    808 ****        20.0000  -9.7500  -3.2500 Du        
    809 ****        20.0000  -9.7500  -3.0000 Du        
    810 ****        20.0000  -9.7500  -2.7500 Du        
    811 ****        20.0000  -9.5000  -3.7500 Du        
    812 ****        20.0000  -9.5000  -3.5000 Du        
    813 ****        20.0000  -9.5000  -3.2500 Du        
    814 ****        20.0000  -9.5000  -3.0000 Du        
    815 ****        20.0000  -9.5000  -2.7500 Du        
    816 ****        20.0000  -9.5000  -2.5000 Du        
    817 ****        20.0000  -9.2500  -4.2500 Du        
    818 ****        20.0000  -9.2500  -4.0000 Du        
    819 ****        20.0000  -9.2500  -3.7500 Du        
    820 ****        20.0000  -9.2500  -3.5000 Du        
    821 ****        20.0000  -9.2500  -3.2500 Du        
    822 ****        20.0000  -9.2500  -3.0000 Du        
    823 ****        20.0000  -9.2500  -2.7500 Du        
    824 ****        20.0000  -9.2500  -2.5000 Du        
    825 ****        20.0000  -9.2500  -2.2500 Du        
    826 ****        20.0000  -9.0000  -4.7500 Du        
    827 ****        20.0000  -9.0000  -4.5000 Du        
    828 ****        20.0000  -9.0000  -4.2500 Du        
    829 ****        20.0000  -9.0000  -4.0000 Du        
    830 ****        20.0000  -9.0000  -3.7500 Du        
    831 ****        20.0000  -9.0000  -3.5000 Du        
    832 ****        20.0000  -9.0000  -3.2500 Du        
    833 ****        20.0000  -9.0000  -3.0000 Du        
    834 ****        20.0000  -9.0000  -2.7500 Du        
    835 ****        20.0000  -9.0000  -2.5000 Du        
    836 ****        20.0000  -9.0000  -2.2500 Du        
    837 ****        20.0000  -8.7500  -4.2500 Du        
    838 ****        20.0000  -8.7500  -4.0000 Du        
    839 ****        20.0000  -8.7500  -3.7500 Du        
    840 ****        20.0000  -8.7500  -3.5000 Du        
    841 ****        20.0000  -8.7500  -3.2500 Du        
    842 ****        20.0000  -8.7500  -3.0000 Du        
    843 ****        20.0000  -8.7500  -2.7500 Du        
    844 ****        20.0000  -8.5000  -3.2500 Du        
    845 ****        20.0000  -8.5000  -3.0000 Du        
    846 ****        20.0000  -8.2500  -3.0000 Du        
    847 ****        20.0000  -8.2500  -2.7500 Du        
    848 ****        20.0000  -8.0000  -3.0000 Du        
    849 ****        20.2500 -20.0000   2.0000 Du        
    850 ****        20.2500 -20.0000   2.2500 Du        
    851 ****        20.2500 -20.0000   2.5000 Du        
    852 ****        20.2500 -20.0000   2.7500 Du        
    853 ****        20.2500 -20.0000   3.0000 Du        
    854 ****        20.2500 -19.7500   1.7500 Du        
    855 ****        20.2500 -19.7500   2.0000 Du        
    856 ****        20.2500 -19.7500   2.2500 Du        
    857 ****        20.2500 -19.7500   2.5000 Du        
    858 ****        20.2500 -19.7500   2.7500 Du        
    859 ****        20.2500 -19.7500   3.0000 Du        
    860 ****        20.2500 -19.5000   1.7500 Du        
    861 ****        20.2500 -19.5000   2.0000 Du        
    862 ****        20.2500 -19.5000   2.2500 Du        
    863 ****        20.2500 -19.5000   2.5000 Du        
    864 ****        20.2500 -19.5000   2.7500 Du        
    865 ****        20.2500 -19.5000   3.0000 Du        
    866 ****        20.2500 -19.2500   1.7500 Du        
    867 ****        20.2500 -19.2500   2.0000 Du        
    868 ****        20.2500 -19.2500   2.2500 Du        
    869 ****        20.2500 -19.2500   2.5000 Du        
    870 ****        20.2500 -19.2500   2.7500 Du        
    871 ****        20.2500 -19.2500   3.0000 Du        
    872 ****        20.2500 -19.0000   1.7500 Du        
    873 ****        20.2500 -19.0000   2.0000 Du        
    874 ****        20.2500 -19.0000   2.2500 Du        
    875 ****        20.2500 -19.0000   2.5000 Du        
    876 ****        20.2500 -19.0000   2.7500 Du        
    877 ****        20.2500 -19.0000   3.0000 Du        
    878 ****        20.2500 -19.0000   3.2500 Du        
    879 ****        20.2500 -18.7500   1.7500 Du        
    880 ****        20.2500 -18.7500   2.0000 Du        
    881 ****        20.2500 -18.7500   2.2500 Du        
    882 ****        20.2500 -18.7500   2.5000 Du        
    883 ****        20.2500 -18.7500   2.7500 Du        
    884 ****        20.2500 -18.7500   3.0000 Du        
    885 ****        20.2500 -18.7500   3.2500 Du        
    886 ****        20.2500 -18.5000   2.0000 Du        
    887 ****        20.2500 -18.5000   2.2500 Du        
    888 ****        20.2500 -18.5000   2.5000 Du        
    889 ****        20.2500 -18.5000   2.7500 Du        
    890 ****        20.2500 -18.5000   3.0000 Du        
    891 ****        20.2500 -18.5000   3.2500 Du        
    892 ****        20.2500 -18.2500   2.0000 Du        
    893 ****        20.2500 -18.2500   2.2500 Du        
    894 ****        20.2500 -18.2500   2.5000 Du        
    895 ****        20.2500 -18.2500   2.7500 Du        
    896 ****        20.2500 -18.2500   3.0000 Du        
    897 ****        20.2500 -18.2500   3.2500 Du        
    898 ****        20.2500 -18.2500   3.5000 Du        
    899 ****        20.2500 -18.0000   2.2500 Du        
    900 ****        20.2500 -18.0000   2.5000 Du        
    901 ****        20.2500 -18.0000   2.7500 Du        
    902 ****        20.2500 -18.0000   3.0000 Du        
    903 ****        20.2500 -18.0000   3.2500 Du        
    904 ****        20.2500 -18.0000   3.5000 Du        
    905 ****        20.2500 -18.0000   3.7500 Du        
    906 ****        20.2500 -17.7500   2.5000 Du        
    907 ****        20.2500 -17.7500   2.7500 Du        
    908 ****        20.2500 -17.7500   3.0000 Du        
    909 ****        20.2500 -17.7500   3.2500 Du        
    910 ****        20.2500 -17.7500   3.5000 Du        
    911 ****        20.2500 -17.7500   3.7500 Du        
    912 ****        20.2500 -17.5000   3.0000 Du        
    913 ****        20.2500 -17.5000   3.2500 Du        
    914 ****        20.2500 -17.5000   3.5000 Du        
    915 ****        20.2500 -17.5000   3.7500 Du        
    916 ****        20.2500 -17.2500   3.2500 Du        
    917 ****        20.2500 -17.2500   3.5000 Du        
    918 ****        20.2500 -17.2500   3.7500 Du        
    919 ****        20.2500 -17.2500   9.0000 Du        
    920 ****        20.2500 -10.0000  -3.0000 Du        
    921 ****        20.2500 -10.0000  -2.7500 Du        
    922 ****        20.2500 -10.0000  -2.5000 Du        
    923 ****        20.2500 -10.0000  -2.2500 Du        
    924 ****        20.2500  -9.7500  -3.2500 Du        
    925 ****        20.2500  -9.7500  -3.0000 Du        
    926 ****        20.2500  -9.7500  -2.7500 Du        
    927 ****        20.2500  -9.7500  -2.5000 Du        
    928 ****        20.2500  -9.5000  -3.7500 Du        
    929 ****        20.2500  -9.5000  -3.5000 Du        
    930 ****        20.2500  -9.5000  -3.2500 Du        
    931 ****        20.2500  -9.5000  -3.0000 Du        
    932 ****        20.2500  -9.5000  -2.7500 Du        
    933 ****        20.2500  -9.5000  -2.5000 Du        
    934 ****        20.2500  -9.5000  -2.2500 Du        
    935 ****        20.2500  -9.2500  -4.2500 Du        
    936 ****        20.2500  -9.2500  -4.0000 Du        
    937 ****        20.2500  -9.2500  -3.7500 Du        
    938 ****        20.2500  -9.2500  -3.5000 Du        
    939 ****        20.2500  -9.2500  -3.2500 Du        
    940 ****        20.2500  -9.2500  -3.0000 Du        
    941 ****        20.2500  -9.2500  -2.7500 Du        
    942 ****        20.2500  -9.2500  -2.5000 Du        
    943 ****        20.2500  -9.2500  -2.2500 Du        
    944 ****        20.2500  -9.2500  -2.0000 Du        
    945 ****        20.2500  -9.0000  -5.0000 Du        
    946 ****        20.2500  -9.0000  -4.7500 Du        
    947 ****        20.2500  -9.0000  -4.5000 Du        
    948 ****        20.2500  -9.0000  -4.2500 Du        
    949 ****        20.2500  -9.0000  -4.0000 Du        
    950 ****        20.2500  -9.0000  -3.7500 Du        
    951 ****        20.2500  -9.0000  -3.5000 Du        
    952 ****        20.2500  -9.0000  -3.2500 Du        
    953 ****        20.2500  -9.0000  -3.0000 Du        
    954 ****        20.2500  -9.0000  -2.7500 Du        
    955 ****        20.2500  -9.0000  -2.5000 Du        
    956 ****        20.2500  -9.0000  -2.2500 Du        
    957 ****        20.2500  -8.7500  -4.7500 Du        
    958 ****        20.2500  -8.7500  -4.5000 Du        
    959 ****        20.2500  -8.7500  -4.2500 Du        
    960 ****        20.2500  -8.7500  -4.0000 Du        
    961 ****        20.2500  -8.7500  -3.7500 Du        
    962 ****        20.2500  -8.7500  -3.5000 Du        
    963 ****        20.2500  -8.7500  -3.2500 Du        
    964 ****        20.2500  -8.7500  -3.0000 Du        
    965 ****        20.2500  -8.7500  -2.7500 Du        
    966 ****        20.2500  -8.5000  -4.0000 Du        
    967 ****        20.2500  -8.5000  -3.7500 Du        
    968 ****        20.2500  -8.5000  -3.5000 Du        
    969 ****        20.2500  -8.5000  -3.2500 Du        
    970 ****        20.2500  -8.5000  -3.0000 Du        
    971 ****        20.2500  -8.5000  -2.7500 Du        
    972 ****        20.2500  -8.2500  -3.2500 Du        
    973 ****        20.2500  -8.2500  -3.0000 Du        
    974 ****        20.2500  -8.2500  -2.7500 Du        
    975 ****        20.2500  -8.0000  -3.2500 Du        
    976 ****        20.2500  -8.0000  -3.0000 Du        
    977 ****        20.2500  -8.0000  -2.7500 Du        
    978 ****        20.2500  -7.7500  -2.7500 Du        
    979 ****        20.2500  -7.5000  -2.7500 Du        
    980 ****        20.2500  -7.2500  -2.7500 Du        
    981 ****        20.5000 -20.0000   1.5000 Du        
    982 ****        20.5000 -20.0000   1.7500 Du        
    983 ****        20.5000 -20.0000   2.0000 Du        
    984 ****        20.5000 -20.0000   2.2500 Du        
    985 ****        20.5000 -20.0000   2.5000 Du        
    986 ****        20.5000 -20.0000   2.7500 Du        
    987 ****        20.5000 -19.7500   1.5000 Du        
    988 ****        20.5000 -19.7500   1.7500 Du        
    989 ****        20.5000 -19.7500   2.0000 Du        
    990 ****        20.5000 -19.7500   2.2500 Du        
    991 ****        20.5000 -19.7500   2.5000 Du        
    992 ****        20.5000 -19.7500   2.7500 Du        
    993 ****        20.5000 -19.5000   1.5000 Du        
    994 ****        20.5000 -19.5000   1.7500 Du        
    995 ****        20.5000 -19.5000   2.0000 Du        
    996 ****        20.5000 -19.5000   2.2500 Du        
    997 ****        20.5000 -19.5000   2.5000 Du        
    998 ****        20.5000 -19.5000   2.7500 Du        
    999 ****        20.5000 -19.2500   1.7500 Du        
   1000 ****        20.5000 -19.2500   2.0000 Du        
   1001 ****        20.5000 -19.2500   2.2500 Du        
   1002 ****        20.5000 -19.2500   2.5000 Du        
   1003 ****        20.5000 -19.2500   2.7500 Du        
   1004 ****        20.5000 -19.2500   3.0000 Du        
   1005 ****        20.5000 -19.0000   1.7500 Du        
   1006 ****        20.5000 -19.0000   2.0000 Du        
   1007 ****        20.5000 -19.0000   2.2500 Du        
   1008 ****        20.5000 -19.0000   2.5000 Du        
   1009 ****        20.5000 -19.0000   2.7500 Du        
   1010 ****        20.5000 -19.0000   3.0000 Du        
   1011 ****        20.5000 -18.7500   2.0000 Du        
   1012 ****        20.5000 -18.7500   2.2500 Du        
   1013 ****        20.5000 -18.7500   2.5000 Du        
   1014 ****        20.5000 -18.7500   2.7500 Du        
   1015 ****        20.5000 -18.7500   3.0000 Du        
   1016 ****        20.5000 -18.5000   2.2500 Du        
   1017 ****        20.5000 -18.5000   2.5000 Du        
   1018 ****        20.5000 -18.5000   2.7500 Du        
   1019 ****        20.5000 -18.5000   3.0000 Du        
   1020 ****        20.5000 -18.2500   2.2500 Du        
   1021 ****        20.5000 -18.2500   2.5000 Du        
   1022 ****        20.5000 -18.2500   2.7500 Du        
   1023 ****        20.5000 -18.2500   3.0000 Du        
   1024 ****        20.5000 -18.2500   3.2500 Du        
   1025 ****        20.5000 -18.0000   2.7500 Du        
   1026 ****        20.5000 -18.0000   3.0000 Du        
   1027 ****        20.5000 -18.0000   3.2500 Du        
   1028 ****        20.5000 -17.7500   3.0000 Du        
   1029 ****        20.5000 -17.7500   3.2500 Du        
   1030 ****        20.5000 -10.2500  -2.7500 Du        
   1031 ****        20.5000 -10.2500  -2.5000 Du        
   1032 ****        20.5000 -10.2500  -2.2500 Du        
   1033 ****        20.5000 -10.0000  -3.0000 Du        
   1034 ****        20.5000 -10.0000  -2.7500 Du        
   1035 ****        20.5000 -10.0000  -2.5000 Du        
   1036 ****        20.5000 -10.0000  -2.2500 Du        
   1037 ****        20.5000 -10.0000  -2.0000 Du        
   1038 ****        20.5000  -9.7500  -3.2500 Du        
   1039 ****        20.5000  -9.7500  -3.0000 Du        
   1040 ****        20.5000  -9.7500  -2.7500 Du        
   1041 ****        20.5000  -9.7500  -2.5000 Du        
   1042 ****        20.5000  -9.7500  -2.2500 Du        
   1043 ****        20.5000  -9.7500  -2.0000 Du        
   1044 ****        20.5000  -9.5000  -3.5000 Du        
   1045 ****        20.5000  -9.5000  -3.2500 Du        
   1046 ****        20.5000  -9.5000  -3.0000 Du        
   1047 ****        20.5000  -9.5000  -2.7500 Du        
   1048 ****        20.5000  -9.5000  -2.5000 Du        
   1049 ****        20.5000  -9.2500  -4.5000 Du        
   1050 ****        20.5000  -9.2500  -4.2500 Du        
   1051 ****        20.5000  -9.2500  -4.0000 Du        
   1052 ****        20.5000  -9.2500  -3.7500 Du        
   1053 ****        20.5000  -9.2500  -3.5000 Du        
   1054 ****        20.5000  -9.2500  -3.2500 Du        
   1055 ****        20.5000  -9.2500  -3.0000 Du        
   1056 ****        20.5000  -9.2500  -2.7500 Du        
   1057 ****        20.5000  -9.2500  -2.5000 Du        
   1058 ****        20.5000  -9.0000  -5.2500 Du        
   1059 ****        20.5000  -9.0000  -5.0000 Du        
   1060 ****        20.5000  -9.0000  -4.7500 Du        
   1061 ****        20.5000  -9.0000  -4.5000 Du        
   1062 ****        20.5000  -9.0000  -4.2500 Du        
   1063 ****        20.5000  -9.0000  -4.0000 Du        
   1064 ****        20.5000  -9.0000  -3.7500 Du        
   1065 ****        20.5000  -9.0000  -3.5000 Du        
   1066 ****        20.5000  -9.0000  -3.2500 Du        
   1067 ****        20.5000  -9.0000  -3.0000 Du        
   1068 ****        20.5000  -9.0000  -2.7500 Du        
   1069 ****        20.5000  -9.0000  -2.5000 Du        
   1070 ****        20.5000  -9.0000  -2.2500 Du        
   1071 ****        20.5000  -8.7500  -5.2500 Du        
   1072 ****        20.5000  -8.7500  -5.0000 Du        
   1073 ****        20.5000  -8.7500  -4.7500 Du        
   1074 ****        20.5000  -8.7500  -4.5000 Du        
   1075 ****        20.5000  -8.7500  -4.2500 Du        
   1076 ****        20.5000  -8.7500  -4.0000 Du        
   1077 ****        20.5000  -8.7500  -3.7500 Du        
   1078 ****        20.5000  -8.7500  -3.5000 Du        
   1079 ****        20.5000  -8.7500  -3.2500 Du        
   1080 ****        20.5000  -8.7500  -3.0000 Du        
   1081 ****        20.5000  -8.7500  -2.7500 Du        
   1082 ****        20.5000  -8.5000  -4.5000 Du        
   1083 ****        20.5000  -8.5000  -4.2500 Du        
   1084 ****        20.5000  -8.5000  -4.0000 Du        
   1085 ****        20.5000  -8.5000  -3.7500 Du        
   1086 ****        20.5000  -8.2500  -4.2500 Du        
   1087 ****        20.5000  -8.2500  -4.0000 Du        
   1088 ****        20.5000  -8.2500  -3.7500 Du        
   1089 ****        20.5000  -8.2500  -3.5000 Du        
   1090 ****        20.5000  -8.2500  -3.2500 Du        
   1091 ****        20.5000  -8.2500  -3.0000 Du        
   1092 ****        20.5000  -8.0000  -3.7500 Du        
   1093 ****        20.5000  -8.0000  -3.5000 Du        
   1094 ****        20.5000  -8.0000  -3.2500 Du        
   1095 ****        20.5000  -8.0000  -3.0000 Du        
   1096 ****        20.5000  -8.0000  -2.7500 Du        
   1097 ****        20.5000  -7.7500  -3.2500 Du        
   1098 ****        20.5000  -7.7500  -3.0000 Du        
   1099 ****        20.5000  -7.7500  -2.7500 Du        
   1100 ****        20.5000  -7.7500  -2.2500 Du        
   1101 ****        20.5000  -7.7500  -2.0000 Du        
   1102 ****        20.5000  -7.5000  -3.2500 Du        
   1103 ****        20.5000  -7.5000  -3.0000 Du        
   1104 ****        20.5000  -7.5000  -2.7500 Du        
   1105 ****        20.5000  -7.2500  -3.0000 Du        
   1106 ****        20.5000  -7.2500  -2.7500 Du        
   1107 ****        20.5000  -7.2500  -2.2500 Du        
   1108 ****        20.5000  -7.0000  -2.2500 Du        
   1109 ****        20.5000  -7.0000  -2.0000 Du        
   1110 ****        20.7500 -20.0000   1.0000 Du        
   1111 ****        20.7500 -20.0000   1.2500 Du        
   1112 ****        20.7500 -20.0000   1.5000 Du        
   1113 ****        20.7500 -20.0000   1.7500 Du        
   1114 ****        20.7500 -20.0000   2.0000 Du        
   1115 ****        20.7500 -20.0000   2.2500 Du        
   1116 ****        20.7500 -20.0000   2.5000 Du        
   1117 ****        20.7500 -19.7500   1.5000 Du        
   1118 ****        20.7500 -19.7500   1.7500 Du        
   1119 ****        20.7500 -19.7500   2.0000 Du        
   1120 ****        20.7500 -19.7500   2.2500 Du        
   1121 ****        20.7500 -19.7500   2.5000 Du        
   1122 ****        20.7500 -19.5000   1.7500 Du        
   1123 ****        20.7500 -19.5000   2.0000 Du        
   1124 ****        20.7500 -19.5000   2.2500 Du        
   1125 ****        20.7500 -19.5000   2.5000 Du        
   1126 ****        20.7500 -19.2500   2.0000 Du        
   1127 ****        20.7500 -19.2500   2.2500 Du        
   1128 ****        20.7500 -19.2500   2.5000 Du        
   1129 ****        20.7500 -19.0000   2.0000 Du        
   1130 ****        20.7500 -19.0000   2.2500 Du        
   1131 ****        20.7500 -19.0000   2.5000 Du        
   1132 ****        20.7500 -19.0000   2.7500 Du        
   1133 ****        20.7500 -18.7500   2.2500 Du        
   1134 ****        20.7500 -18.7500   2.5000 Du        
   1135 ****        20.7500 -18.7500   2.7500 Du        
   1136 ****        20.7500 -18.5000   2.5000 Du        
   1137 ****        20.7500 -18.5000   2.7500 Du        
   1138 ****        20.7500 -10.7500  -2.5000 Du        
   1139 ****        20.7500 -10.7500  -2.2500 Du        
   1140 ****        20.7500 -10.7500  -2.0000 Du        
   1141 ****        20.7500 -10.5000  -2.5000 Du        
   1142 ****        20.7500 -10.5000  -2.2500 Du        
   1143 ****        20.7500 -10.2500  -2.7500 Du        
   1144 ****        20.7500 -10.2500  -2.5000 Du        
   1145 ****        20.7500 -10.2500  -2.2500 Du        
   1146 ****        20.7500 -10.2500  -2.0000 Du        
   1147 ****        20.7500 -10.0000  -3.0000 Du        
   1148 ****        20.7500 -10.0000  -2.7500 Du        
   1149 ****        20.7500 -10.0000  -2.5000 Du        
   1150 ****        20.7500 -10.0000  -2.2500 Du        
   1151 ****        20.7500 -10.0000  -2.0000 Du        
   1152 ****        20.7500 -10.0000  -1.7500 Du        
   1153 ****        20.7500  -9.7500  -7.7500 Du        
   1154 ****        20.7500  -9.7500  -7.5000 Du        
   1155 ****        20.7500  -9.7500  -3.2500 Du        
   1156 ****        20.7500  -9.7500  -3.0000 Du        
   1157 ****        20.7500  -9.7500  -2.7500 Du        
   1158 ****        20.7500  -9.7500  -2.5000 Du        
   1159 ****        20.7500  -9.7500  -2.2500 Du        
   1160 ****        20.7500  -9.7500  -2.0000 Du        
   1161 ****        20.7500  -9.7500  -1.7500 Du        
   1162 ****        20.7500  -9.5000  -7.7500 Du        
   1163 ****        20.7500  -9.5000  -7.5000 Du        
   1164 ****        20.7500  -9.5000  -7.2500 Du        
   1165 ****        20.7500  -9.5000  -3.7500 Du        
   1166 ****        20.7500  -9.5000  -3.5000 Du        
   1167 ****        20.7500  -9.5000  -3.2500 Du        
   1168 ****        20.7500  -9.5000  -3.0000 Du        
   1169 ****        20.7500  -9.5000  -2.7500 Du        
   1170 ****        20.7500  -9.5000  -2.5000 Du        
   1171 ****        20.7500  -9.2500  -7.2500 Du        
   1172 ****        20.7500  -9.2500  -7.0000 Du        
   1173 ****        20.7500  -9.2500  -4.7500 Du        
   1174 ****        20.7500  -9.2500  -4.2500 Du        
   1175 ****        20.7500  -9.2500  -4.0000 Du        
   1176 ****        20.7500  -9.2500  -3.7500 Du        
   1177 ****        20.7500  -9.2500  -3.5000 Du        
   1178 ****        20.7500  -9.2500  -3.2500 Du        
   1179 ****        20.7500  -9.2500  -3.0000 Du        
   1180 ****        20.7500  -9.2500  -2.7500 Du        
   1181 ****        20.7500  -9.2500  -2.5000 Du        
   1182 ****        20.7500  -9.0000  -5.7500 Du        
   1183 ****        20.7500  -9.0000  -5.5000 Du        
   1184 ****        20.7500  -9.0000  -5.2500 Du        
   1185 ****        20.7500  -9.0000  -5.0000 Du        
   1186 ****        20.7500  -9.0000  -4.7500 Du        
   1187 ****        20.7500  -9.0000  -4.5000 Du        
   1188 ****        20.7500  -9.0000  -4.2500 Du        
   1189 ****        20.7500  -9.0000  -4.0000 Du        
   1190 ****        20.7500  -9.0000  -3.7500 Du        
   1191 ****        20.7500  -9.0000  -3.5000 Du        
   1192 ****        20.7500  -9.0000  -3.2500 Du        
   1193 ****        20.7500  -9.0000  -3.0000 Du        
   1194 ****        20.7500  -9.0000  -2.7500 Du        
   1195 ****        20.7500  -9.0000  -2.5000 Du        
   1196 ****        20.7500  -9.0000  -2.2500 Du        
   1197 ****        20.7500  -8.7500  -5.5000 Du        
   1198 ****        20.7500  -8.7500  -5.2500 Du        
   1199 ****        20.7500  -8.7500  -5.0000 Du        
   1200 ****        20.7500  -8.7500  -4.7500 Du        
   1201 ****        20.7500  -8.7500  -4.5000 Du        
   1202 ****        20.7500  -8.7500  -4.2500 Du        
   1203 ****        20.7500  -8.7500  -4.0000 Du        
   1204 ****        20.7500  -8.7500  -3.7500 Du        
   1205 ****        20.7500  -8.7500  -3.5000 Du        
   1206 ****        20.7500  -8.7500  -3.2500 Du        
   1207 ****        20.7500  -8.7500  -3.0000 Du        
   1208 ****        20.7500  -8.7500  -2.7500 Du        
   1209 ****        20.7500  -8.5000  -5.0000 Du        
   1210 ****        20.7500  -8.5000  -4.7500 Du        
   1211 ****        20.7500  -8.5000  -4.5000 Du        
   1212 ****        20.7500  -8.5000  -4.2500 Du        
   1213 ****        20.7500  -8.5000  -4.0000 Du        
   1214 ****        20.7500  -8.5000  -3.7500 Du        
   1215 ****        20.7500  -8.5000  -3.5000 Du        
   1216 ****        20.7500  -8.5000  -3.2500 Du        
   1217 ****        20.7500  -8.5000  -3.0000 Du        
   1218 ****        20.7500  -8.2500  -4.7500 Du        
   1219 ****        20.7500  -8.2500  -4.5000 Du        
   1220 ****        20.7500  -8.2500  -4.2500 Du        
   1221 ****        20.7500  -8.2500  -4.0000 Du        
   1222 ****        20.7500  -8.2500  -3.7500 Du        
   1223 ****        20.7500  -8.2500  -3.5000 Du        
   1224 ****        20.7500  -8.2500  -3.2500 Du        
   1225 ****        20.7500  -8.2500  -3.0000 Du        
   1226 ****        20.7500  -8.2500  -2.7500 Du        
   1227 ****        20.7500  -8.0000  -4.2500 Du        
   1228 ****        20.7500  -8.0000  -4.0000 Du        
   1229 ****        20.7500  -8.0000  -3.7500 Du        
   1230 ****        20.7500  -8.0000  -3.5000 Du        
   1231 ****        20.7500  -8.0000  -3.2500 Du        
   1232 ****        20.7500  -8.0000  -3.0000 Du        
   1233 ****        20.7500  -8.0000  -2.7500 Du        
   1234 ****        20.7500  -8.0000  -2.5000 Du        
   1235 ****        20.7500  -8.0000  -2.2500 Du        
   1236 ****        20.7500  -7.7500  -3.7500 Du        
   1237 ****        20.7500  -7.7500  -3.5000 Du        
   1238 ****        20.7500  -7.7500  -3.2500 Du        
   1239 ****        20.7500  -7.7500  -3.0000 Du        
   1240 ****        20.7500  -7.7500  -2.7500 Du        
   1241 ****        20.7500  -7.7500  -2.0000 Du        
   1242 ****        20.7500  -7.5000  -3.5000 Du        
   1243 ****        20.7500  -7.5000  -3.2500 Du        
   1244 ****        20.7500  -7.5000  -3.0000 Du        
   1245 ****        20.7500  -7.5000  -2.7500 Du        
   1246 ****        20.7500  -7.5000  -2.2500 Du        
   1247 ****        20.7500  -7.2500  -3.0000 Du        
   1248 ****        20.7500  -7.2500  -2.7500 Du        
   1249 ****        20.7500  -7.2500  -2.2500 Du        
   1250 ****        21.0000 -20.0000   1.2500 Du        
   1251 ****        21.0000 -20.0000   1.5000 Du        
   1252 ****        21.0000 -20.0000   1.7500 Du        
   1253 ****        21.0000 -20.0000   2.0000 Du        
   1254 ****        21.0000 -20.0000   2.2500 Du        
   1255 ****        21.0000 -19.7500   1.7500 Du        
   1256 ****        21.0000 -19.7500   2.0000 Du        
   1257 ****        21.0000 -19.7500   2.2500 Du        
   1258 ****        21.0000 -19.5000   2.0000 Du        
   1259 ****        21.0000 -11.5000  -2.2500 Du        
   1260 ****        21.0000 -11.2500  -2.5000 Du        
   1261 ****        21.0000 -11.2500  -2.2500 Du        
   1262 ****        21.0000 -11.2500  -2.0000 Du        
   1263 ****        21.0000 -11.0000  -2.5000 Du        
   1264 ****        21.0000 -11.0000  -2.2500 Du        
   1265 ****        21.0000 -11.0000  -2.0000 Du        
   1266 ****        21.0000 -10.7500  -2.7500 Du        
   1267 ****        21.0000 -10.7500  -2.5000 Du        
   1268 ****        21.0000 -10.7500  -2.2500 Du        
   1269 ****        21.0000 -10.7500  -2.0000 Du        
   1270 ****        21.0000 -10.7500  -1.7500 Du        
   1271 ****        21.0000 -10.5000  -2.7500 Du        
   1272 ****        21.0000 -10.5000  -2.5000 Du        
   1273 ****        21.0000 -10.5000  -2.2500 Du        
   1274 ****        21.0000 -10.5000  -2.0000 Du        
   1275 ****        21.0000 -10.2500  -3.0000 Du        
   1276 ****        21.0000 -10.2500  -2.7500 Du        
   1277 ****        21.0000 -10.2500  -2.5000 Du        
   1278 ****        21.0000 -10.2500  -2.2500 Du        
   1279 ****        21.0000 -10.2500  -2.0000 Du        
   1280 ****        21.0000 -10.2500  -1.7500 Du        
   1281 ****        21.0000 -10.0000  -7.7500 Du        
   1282 ****        21.0000 -10.0000  -3.2500 Du        
   1283 ****        21.0000 -10.0000  -3.0000 Du        
   1284 ****        21.0000 -10.0000  -2.7500 Du        
   1285 ****        21.0000 -10.0000  -2.5000 Du        
   1286 ****        21.0000 -10.0000  -2.2500 Du        
   1287 ****        21.0000 -10.0000  -2.0000 Du        
   1288 ****        21.0000 -10.0000  -1.7500 Du        
   1289 ****        21.0000  -9.7500  -7.7500 Du        
   1290 ****        21.0000  -9.7500  -7.5000 Du        
   1291 ****        21.0000  -9.7500  -3.2500 Du        
   1292 ****        21.0000  -9.7500  -3.0000 Du        
   1293 ****        21.0000  -9.7500  -2.7500 Du        
   1294 ****        21.0000  -9.7500  -2.5000 Du        
   1295 ****        21.0000  -9.7500  -2.2500 Du        
   1296 ****        21.0000  -9.7500  -2.0000 Du        
   1297 ****        21.0000  -9.7500  -1.7500 Du        
   1298 ****        21.0000  -9.5000  -7.7500 Du        
   1299 ****        21.0000  -9.5000  -7.5000 Du        
   1300 ****        21.0000  -9.5000  -7.2500 Du        
   1301 ****        21.0000  -9.5000  -3.7500 Du        
   1302 ****        21.0000  -9.5000  -3.5000 Du        
   1303 ****        21.0000  -9.5000  -3.2500 Du        
   1304 ****        21.0000  -9.5000  -3.0000 Du        
   1305 ****        21.0000  -9.5000  -2.7500 Du        
   1306 ****        21.0000  -9.5000  -2.5000 Du        
   1307 ****        21.0000  -9.5000  -2.2500 Du        
   1308 ****        21.0000  -9.2500  -7.5000 Du        
   1309 ****        21.0000  -9.2500  -7.2500 Du        
   1310 ****        21.0000  -9.2500  -7.0000 Du        
   1311 ****        21.0000  -9.2500  -6.7500 Du        
   1312 ****        21.0000  -9.2500  -4.7500 Du        
   1313 ****        21.0000  -9.2500  -4.5000 Du        
   1314 ****        21.0000  -9.2500  -4.2500 Du        
   1315 ****        21.0000  -9.2500  -4.0000 Du        
   1316 ****        21.0000  -9.2500  -3.7500 Du        
   1317 ****        21.0000  -9.2500  -3.5000 Du        
   1318 ****        21.0000  -9.2500  -3.2500 Du        
   1319 ****        21.0000  -9.2500  -3.0000 Du        
   1320 ****        21.0000  -9.2500  -2.7500 Du        
   1321 ****        21.0000  -9.2500  -2.5000 Du        
   1322 ****        21.0000  -9.2500  -2.2500 Du        
   1323 ****        21.0000  -9.0000  -6.7500 Du        
   1324 ****        21.0000  -9.0000  -6.2500 Du        
   1325 ****        21.0000  -9.0000  -6.0000 Du        
   1326 ****        21.0000  -9.0000  -5.7500 Du        
   1327 ****        21.0000  -9.0000  -5.5000 Du        
   1328 ****        21.0000  -9.0000  -5.2500 Du        
   1329 ****        21.0000  -9.0000  -5.0000 Du        
   1330 ****        21.0000  -9.0000  -4.7500 Du        
   1331 ****        21.0000  -9.0000  -4.5000 Du        
   1332 ****        21.0000  -9.0000  -4.2500 Du        
   1333 ****        21.0000  -9.0000  -4.0000 Du        
   1334 ****        21.0000  -9.0000  -3.7500 Du        
   1335 ****        21.0000  -9.0000  -3.5000 Du        
   1336 ****        21.0000  -9.0000  -3.2500 Du        
   1337 ****        21.0000  -9.0000  -3.0000 Du        
   1338 ****        21.0000  -9.0000  -2.7500 Du        
   1339 ****        21.0000  -9.0000  -2.5000 Du        
   1340 ****        21.0000  -9.0000  -2.2500 Du        
   1341 ****        21.0000  -9.0000  -2.0000 Du        
   1342 ****        21.0000  -8.7500  -6.0000 Du        
   1343 ****        21.0000  -8.7500  -5.7500 Du        
   1344 ****        21.0000  -8.7500  -5.5000 Du        
   1345 ****        21.0000  -8.7500  -5.2500 Du        
   1346 ****        21.0000  -8.7500  -5.0000 Du        
   1347 ****        21.0000  -8.7500  -4.7500 Du        
   1348 ****        21.0000  -8.7500  -4.5000 Du        
   1349 ****        21.0000  -8.7500  -4.2500 Du        
   1350 ****        21.0000  -8.7500  -4.0000 Du        
   1351 ****        21.0000  -8.7500  -3.7500 Du        
   1352 ****        21.0000  -8.7500  -3.5000 Du        
   1353 ****        21.0000  -8.7500  -3.2500 Du        
   1354 ****        21.0000  -8.7500  -3.0000 Du        
   1355 ****        21.0000  -8.7500  -2.7500 Du        
   1356 ****        21.0000  -8.7500  -2.2500 Du        
   1357 ****        21.0000  -8.5000  -5.2500 Du        
   1358 ****        21.0000  -8.5000  -5.0000 Du        
   1359 ****        21.0000  -8.5000  -4.7500 Du        
   1360 ****        21.0000  -8.5000  -4.5000 Du        
   1361 ****        21.0000  -8.5000  -4.2500 Du        
   1362 ****        21.0000  -8.5000  -4.0000 Du        
   1363 ****        21.0000  -8.5000  -3.7500 Du        
   1364 ****        21.0000  -8.5000  -3.5000 Du        
   1365 ****        21.0000  -8.5000  -3.2500 Du        
   1366 ****        21.0000  -8.5000  -3.0000 Du        
   1367 ****        21.0000  -8.5000  -2.7500 Du        
   1368 ****        21.0000  -8.2500  -5.0000 Du        
   1369 ****        21.0000  -8.2500  -4.7500 Du        
   1370 ****        21.0000  -8.2500  -4.5000 Du        
   1371 ****        21.0000  -8.2500  -4.2500 Du        
   1372 ****        21.0000  -8.2500  -4.0000 Du        
   1373 ****        21.0000  -8.2500  -3.7500 Du        
   1374 ****        21.0000  -8.2500  -3.5000 Du        
   1375 ****        21.0000  -8.2500  -3.2500 Du        
   1376 ****        21.0000  -8.2500  -3.0000 Du        
   1377 ****        21.0000  -8.2500  -2.7500 Du        
   1378 ****        21.0000  -8.0000  -4.7500 Du        
   1379 ****        21.0000  -8.0000  -4.5000 Du        
   1380 ****        21.0000  -8.0000  -4.2500 Du        
   1381 ****        21.0000  -8.0000  -4.0000 Du        
   1382 ****        21.0000  -8.0000  -3.7500 Du        
   1383 ****        21.0000  -8.0000  -3.5000 Du        
   1384 ****        21.0000  -8.0000  -3.2500 Du        
   1385 ****        21.0000  -8.0000  -3.0000 Du        
   1386 ****        21.0000  -8.0000  -2.7500 Du        
   1387 ****        21.0000  -7.7500  -4.2500 Du        
   1388 ****        21.0000  -7.7500  -4.0000 Du        
   1389 ****        21.0000  -7.7500  -3.7500 Du        
   1390 ****        21.0000  -7.7500  -3.5000 Du        
   1391 ****        21.0000  -7.7500  -3.2500 Du        
   1392 ****        21.0000  -7.7500  -3.0000 Du        
   1393 ****        21.0000  -7.7500  -2.7500 Du        
   1394 ****        21.0000  -7.7500  -2.2500 Du        
   1395 ****        21.0000  -7.7500  -2.0000 Du        
   1396 ****        21.0000  -7.5000  -3.7500 Du        
   1397 ****        21.0000  -7.5000  -3.5000 Du        
   1398 ****        21.0000  -7.5000  -3.2500 Du        
   1399 ****        21.0000  -7.5000  -3.0000 Du        
   1400 ****        21.0000  -7.5000  -2.7500 Du        
   1401 ****        21.0000  -7.2500  -3.2500 Du        
   1402 ****        21.0000  -7.2500  -3.0000 Du        
   1403 ****        21.0000  -7.2500  -2.7500 Du        
   1404 ****        21.2500 -20.0000   1.5000 Du        
   1405 ****        21.2500 -20.0000   1.7500 Du        
   1406 ****        21.2500 -20.0000   2.0000 Du        
   1407 ****        21.2500 -11.7500  -2.2500 Du        
   1408 ****        21.2500 -11.7500  -2.0000 Du        
   1409 ****        21.2500 -11.5000  -2.2500 Du        
   1410 ****        21.2500 -11.5000  -2.0000 Du        
   1411 ****        21.2500 -11.2500  -2.5000 Du        
   1412 ****        21.2500 -11.2500  -2.2500 Du        
   1413 ****        21.2500 -11.2500  -2.0000 Du        
   1414 ****        21.2500 -11.2500  -1.7500 Du        
   1415 ****        21.2500 -11.0000  -2.5000 Du        
   1416 ****        21.2500 -11.0000  -2.2500 Du        
   1417 ****        21.2500 -11.0000  -2.0000 Du        
   1418 ****        21.2500 -11.0000  -1.7500 Du        
   1419 ****        21.2500 -10.7500  -2.7500 Du        
   1420 ****        21.2500 -10.7500  -2.5000 Du        
   1421 ****        21.2500 -10.7500  -2.2500 Du        
   1422 ****        21.2500 -10.7500  -2.0000 Du        
   1423 ****        21.2500 -10.7500  -1.7500 Du        
   1424 ****        21.2500 -10.5000  -2.7500 Du        
   1425 ****        21.2500 -10.5000  -2.5000 Du        
   1426 ****        21.2500 -10.5000  -2.2500 Du        
   1427 ****        21.2500 -10.5000  -2.0000 Du        
   1428 ****        21.2500 -10.5000  -1.7500 Du        
   1429 ****        21.2500 -10.2500  -3.0000 Du        
   1430 ****        21.2500 -10.2500  -2.7500 Du        
   1431 ****        21.2500 -10.2500  -2.5000 Du        
   1432 ****        21.2500 -10.2500  -2.2500 Du        
   1433 ****        21.2500 -10.2500  -2.0000 Du        
   1434 ****        21.2500 -10.2500  -1.7500 Du        
   1435 ****        21.2500 -10.0000  -7.7500 Du        
   1436 ****        21.2500 -10.0000  -3.2500 Du        
   1437 ****        21.2500 -10.0000  -3.0000 Du        
   1438 ****        21.2500 -10.0000  -2.7500 Du        
   1439 ****        21.2500 -10.0000  -2.5000 Du        
   1440 ****        21.2500 -10.0000  -2.2500 Du        
   1441 ****        21.2500 -10.0000  -2.0000 Du        
   1442 ****        21.2500 -10.0000  -1.7500 Du        
   1443 ****        21.2500 -10.0000  -1.5000 Du        
   1444 ****        21.2500  -9.7500  -7.7500 Du        
   1445 ****        21.2500  -9.7500  -7.5000 Du        
   1446 ****        21.2500  -9.7500  -3.2500 Du        
   1447 ****        21.2500  -9.7500  -3.0000 Du        
   1448 ****        21.2500  -9.7500  -2.7500 Du        
   1449 ****        21.2500  -9.7500  -2.5000 Du        
   1450 ****        21.2500  -9.7500  -2.2500 Du        
   1451 ****        21.2500  -9.7500  -2.0000 Du        
   1452 ****        21.2500  -9.7500  -1.7500 Du        
   1453 ****        21.2500  -9.5000  -7.7500 Du        
   1454 ****        21.2500  -9.5000  -7.5000 Du        
   1455 ****        21.2500  -9.5000  -7.2500 Du        
   1456 ****        21.2500  -9.5000  -4.0000 Du        
   1457 ****        21.2500  -9.5000  -3.7500 Du        
   1458 ****        21.2500  -9.5000  -3.5000 Du        
   1459 ****        21.2500  -9.5000  -3.2500 Du        
   1460 ****        21.2500  -9.5000  -3.0000 Du        
   1461 ****        21.2500  -9.5000  -2.7500 Du        
   1462 ****        21.2500  -9.5000  -2.5000 Du        
   1463 ****        21.2500  -9.2500  -7.2500 Du        
   1464 ****        21.2500  -9.2500  -7.0000 Du        
   1465 ****        21.2500  -9.2500  -6.7500 Du        
   1466 ****        21.2500  -9.2500  -4.7500 Du        
   1467 ****        21.2500  -9.2500  -4.5000 Du        
   1468 ****        21.2500  -9.2500  -4.2500 Du        
   1469 ****        21.2500  -9.2500  -4.0000 Du        
   1470 ****        21.2500  -9.2500  -3.7500 Du        
   1471 ****        21.2500  -9.2500  -3.5000 Du        
   1472 ****        21.2500  -9.2500  -3.2500 Du        
   1473 ****        21.2500  -9.2500  -3.0000 Du        
   1474 ****        21.2500  -9.2500  -2.7500 Du        
   1475 ****        21.2500  -9.2500  -2.5000 Du        
   1476 ****        21.2500  -9.0000  -6.0000 Du        
   1477 ****        21.2500  -9.0000  -5.7500 Du        
   1478 ****        21.2500  -9.0000  -5.5000 Du        
   1479 ****        21.2500  -9.0000  -5.2500 Du        
   1480 ****        21.2500  -9.0000  -5.0000 Du        
   1481 ****        21.2500  -9.0000  -4.7500 Du        
   1482 ****        21.2500  -9.0000  -4.5000 Du        
   1483 ****        21.2500  -9.0000  -4.2500 Du        
   1484 ****        21.2500  -9.0000  -4.0000 Du        
   1485 ****        21.2500  -9.0000  -3.7500 Du        
   1486 ****        21.2500  -9.0000  -3.5000 Du        
   1487 ****        21.2500  -9.0000  -3.2500 Du        
   1488 ****        21.2500  -9.0000  -3.0000 Du        
   1489 ****        21.2500  -9.0000  -2.7500 Du        
   1490 ****        21.2500  -9.0000  -2.2500 Du        
   1491 ****        21.2500  -8.7500  -6.0000 Du        
   1492 ****        21.2500  -8.7500  -5.7500 Du        
   1493 ****        21.2500  -8.7500  -5.5000 Du        
   1494 ****        21.2500  -8.7500  -5.2500 Du        
   1495 ****        21.2500  -8.7500  -5.0000 Du        
   1496 ****        21.2500  -8.7500  -4.7500 Du        
   1497 ****        21.2500  -8.7500  -4.5000 Du        
   1498 ****        21.2500  -8.7500  -4.2500 Du        
   1499 ****        21.2500  -8.7500  -4.0000 Du        
   1500 ****        21.2500  -8.7500  -3.7500 Du        
   1501 ****        21.2500  -8.7500  -3.5000 Du        
   1502 ****        21.2500  -8.7500  -3.2500 Du        
   1503 ****        21.2500  -8.7500  -3.0000 Du        
   1504 ****        21.2500  -8.7500  -2.7500 Du        
   1505 ****        21.2500  -8.5000  -5.7500 Du        
   1506 ****        21.2500  -8.5000  -5.5000 Du        
   1507 ****        21.2500  -8.5000  -5.2500 Du        
   1508 ****        21.2500  -8.5000  -5.0000 Du        
   1509 ****        21.2500  -8.5000  -4.7500 Du        
   1510 ****        21.2500  -8.5000  -4.5000 Du        
   1511 ****        21.2500  -8.5000  -4.2500 Du        
   1512 ****        21.2500  -8.5000  -4.0000 Du        
   1513 ****        21.2500  -8.5000  -3.7500 Du        
   1514 ****        21.2500  -8.5000  -3.5000 Du        
   1515 ****        21.2500  -8.5000  -3.2500 Du        
   1516 ****        21.2500  -8.5000  -3.0000 Du        
   1517 ****        21.2500  -8.5000  -2.7500 Du        
   1518 ****        21.2500  -8.2500  -5.2500 Du        
   1519 ****        21.2500  -8.2500  -5.0000 Du        
   1520 ****        21.2500  -8.2500  -4.7500 Du        
   1521 ****        21.2500  -8.2500  -4.5000 Du        
   1522 ****        21.2500  -8.2500  -4.2500 Du        
   1523 ****        21.2500  -8.2500  -4.0000 Du        
   1524 ****        21.2500  -8.2500  -3.7500 Du        
   1525 ****        21.2500  -8.2500  -3.5000 Du        
   1526 ****        21.2500  -8.2500  -3.2500 Du        
   1527 ****        21.2500  -8.2500  -3.0000 Du        
   1528 ****        21.2500  -8.2500  -2.7500 Du        
   1529 ****        21.2500  -8.0000  -5.0000 Du        
   1530 ****        21.2500  -8.0000  -4.7500 Du        
   1531 ****        21.2500  -8.0000  -4.5000 Du        
   1532 ****        21.2500  -8.0000  -4.2500 Du        
   1533 ****        21.2500  -8.0000  -4.0000 Du        
   1534 ****        21.2500  -8.0000  -3.7500 Du        
   1535 ****        21.2500  -8.0000  -3.5000 Du        
   1536 ****        21.2500  -8.0000  -3.2500 Du        
   1537 ****        21.2500  -8.0000  -3.0000 Du        
   1538 ****        21.2500  -8.0000  -2.7500 Du        
   1539 ****        21.2500  -7.7500  -4.5000 Du        
   1540 ****        21.2500  -7.7500  -4.2500 Du        
   1541 ****        21.2500  -7.7500  -4.0000 Du        
   1542 ****        21.2500  -7.7500  -3.7500 Du        
   1543 ****        21.2500  -7.7500  -3.5000 Du        
   1544 ****        21.2500  -7.7500  -3.2500 Du        
   1545 ****        21.2500  -7.7500  -3.0000 Du        
   1546 ****        21.2500  -7.7500  -2.7500 Du        
   1547 ****        21.2500  -7.5000  -4.2500 Du        
   1548 ****        21.2500  -7.5000  -4.0000 Du        
   1549 ****        21.2500  -7.5000  -3.7500 Du        
   1550 ****        21.2500  -7.5000  -3.5000 Du        
   1551 ****        21.2500  -7.5000  -3.2500 Du        
   1552 ****        21.2500  -7.5000  -3.0000 Du        
   1553 ****        21.2500  -7.5000  -2.7500 Du        
   1554 ****        21.5000 -12.2500  -2.0000 Du        
   1555 ****        21.5000 -12.0000  -2.2500 Du        
   1556 ****        21.5000 -12.0000  -2.0000 Du        
   1557 ****        21.5000 -11.7500  -2.5000 Du        
   1558 ****        21.5000 -11.7500  -2.2500 Du        
   1559 ****        21.5000 -11.7500  -2.0000 Du        
   1560 ****        21.5000 -11.7500  -1.7500 Du        
   1561 ****        21.5000 -11.5000  -2.5000 Du        
   1562 ****        21.5000 -11.5000  -2.2500 Du        
   1563 ****        21.5000 -11.5000  -2.0000 Du        
   1564 ****        21.5000 -11.5000  -1.7500 Du        
   1565 ****        21.5000 -11.2500  -2.5000 Du        
   1566 ****        21.5000 -11.2500  -2.2500 Du        
   1567 ****        21.5000 -11.2500  -2.0000 Du        
   1568 ****        21.5000 -11.2500  -1.7500 Du        
   1569 ****        21.5000 -11.2500  12.7500 Du        
   1570 ****        21.5000 -11.0000  -2.7500 Du        
   1571 ****        21.5000 -11.0000  -2.5000 Du        
   1572 ****        21.5000 -11.0000  -2.2500 Du        
   1573 ****        21.5000 -11.0000  -2.0000 Du        
   1574 ****        21.5000 -11.0000  -1.7500 Du        
   1575 ****        21.5000 -11.0000  12.7500 Du        
   1576 ****        21.5000 -10.7500  -2.7500 Du        
   1577 ****        21.5000 -10.7500  -2.5000 Du        
   1578 ****        21.5000 -10.7500  -2.2500 Du        
   1579 ****        21.5000 -10.7500  -2.0000 Du        
   1580 ****        21.5000 -10.7500  -1.7500 Du        
   1581 ****        21.5000 -10.7500  12.7500 Du        
   1582 ****        21.5000 -10.5000  -2.7500 Du        
   1583 ****        21.5000 -10.5000  -2.5000 Du        
   1584 ****        21.5000 -10.5000  -2.2500 Du        
   1585 ****        21.5000 -10.5000  -2.0000 Du        
   1586 ****        21.5000 -10.5000  -1.7500 Du        
   1587 ****        21.5000 -10.2500  -8.0000 Du        
   1588 ****        21.5000 -10.2500  -3.0000 Du        
   1589 ****        21.5000 -10.2500  -2.7500 Du        
   1590 ****        21.5000 -10.2500  -2.5000 Du        
   1591 ****        21.5000 -10.2500  -2.2500 Du        
   1592 ****        21.5000 -10.2500  -2.0000 Du        
   1593 ****        21.5000 -10.2500  -1.7500 Du        
   1594 ****        21.5000 -10.2500  -1.5000 Du        
   1595 ****        21.5000 -10.0000  -7.7500 Du        
   1596 ****        21.5000 -10.0000  -3.2500 Du        
   1597 ****        21.5000 -10.0000  -3.0000 Du        
   1598 ****        21.5000 -10.0000  -2.7500 Du        
   1599 ****        21.5000 -10.0000  -2.5000 Du        
   1600 ****        21.5000 -10.0000  -2.2500 Du        
   1601 ****        21.5000 -10.0000  -2.0000 Du        
   1602 ****        21.5000 -10.0000  -1.7500 Du        
   1603 ****        21.5000 -10.0000  -1.5000 Du        
   1604 ****        21.5000  -9.7500  -7.7500 Du        
   1605 ****        21.5000  -9.7500  -3.7500 Du        
   1606 ****        21.5000  -9.7500  -3.5000 Du        
   1607 ****        21.5000  -9.7500  -3.2500 Du        
   1608 ****        21.5000  -9.7500  -3.0000 Du        
   1609 ****        21.5000  -9.7500  -2.7500 Du        
   1610 ****        21.5000  -9.7500  -2.5000 Du        
   1611 ****        21.5000  -9.7500  -2.2500 Du        
   1612 ****        21.5000  -9.7500  -1.7500 Du        
   1613 ****        21.5000  -9.5000  -4.0000 Du        
   1614 ****        21.5000  -9.5000  -3.7500 Du        
   1615 ****        21.5000  -9.5000  -3.5000 Du        
   1616 ****        21.5000  -9.5000  -3.2500 Du        
   1617 ****        21.5000  -9.5000  -3.0000 Du        
   1618 ****        21.5000  -9.5000  -2.7500 Du        
   1619 ****        21.5000  -9.2500  -4.7500 Du        
   1620 ****        21.5000  -9.2500  -4.5000 Du        
   1621 ****        21.5000  -9.2500  -4.2500 Du        
   1622 ****        21.5000  -9.2500  -4.0000 Du        
   1623 ****        21.5000  -9.2500  -3.7500 Du        
   1624 ****        21.5000  -9.2500  -3.5000 Du        
   1625 ****        21.5000  -9.2500  -3.2500 Du        
   1626 ****        21.5000  -9.2500  -3.0000 Du        
   1627 ****        21.5000  -9.2500  -2.7500 Du        
   1628 ****        21.5000  -9.0000  -5.2500 Du        
   1629 ****        21.5000  -9.0000  -5.0000 Du        
   1630 ****        21.5000  -9.0000  -4.7500 Du        
   1631 ****        21.5000  -9.0000  -4.5000 Du        
   1632 ****        21.5000  -9.0000  -4.2500 Du        
   1633 ****        21.5000  -9.0000  -4.0000 Du        
   1634 ****        21.5000  -9.0000  -3.7500 Du        
   1635 ****        21.5000  -9.0000  -3.5000 Du        
   1636 ****        21.5000  -9.0000  -3.2500 Du        
   1637 ****        21.5000  -9.0000  -3.0000 Du        
   1638 ****        21.5000  -9.0000  -2.7500 Du        
   1639 ****        21.5000  -8.7500  -5.2500 Du        
   1640 ****        21.5000  -8.7500  -5.0000 Du        
   1641 ****        21.5000  -8.7500  -4.7500 Du        
   1642 ****        21.5000  -8.7500  -4.5000 Du        
   1643 ****        21.5000  -8.7500  -4.2500 Du        
   1644 ****        21.5000  -8.7500  -4.0000 Du        
   1645 ****        21.5000  -8.7500  -3.7500 Du        
   1646 ****        21.5000  -8.7500  -3.5000 Du        
   1647 ****        21.5000  -8.7500  -3.2500 Du        
   1648 ****        21.5000  -8.7500  -3.0000 Du        
   1649 ****        21.5000  -8.7500  -2.7500 Du        
   1650 ****        21.5000  -8.5000  -5.2500 Du        
   1651 ****        21.5000  -8.5000  -5.0000 Du        
   1652 ****        21.5000  -8.5000  -4.7500 Du        
   1653 ****        21.5000  -8.5000  -4.5000 Du        
   1654 ****        21.5000  -8.5000  -4.2500 Du        
   1655 ****        21.5000  -8.5000  -4.0000 Du        
   1656 ****        21.5000  -8.5000  -3.7500 Du        
   1657 ****        21.5000  -8.5000  -3.5000 Du        
   1658 ****        21.5000  -8.5000  -3.2500 Du        
   1659 ****        21.5000  -8.5000  -3.0000 Du        
   1660 ****        21.5000  -8.5000  -2.7500 Du        
   1661 ****        21.5000  -8.2500  -5.2500 Du        
   1662 ****        21.5000  -8.2500  -5.0000 Du        
   1663 ****        21.5000  -8.2500  -4.7500 Du        
   1664 ****        21.5000  -8.2500  -4.5000 Du        
   1665 ****        21.5000  -8.2500  -4.2500 Du        
   1666 ****        21.5000  -8.2500  -4.0000 Du        
   1667 ****        21.5000  -8.2500  -3.7500 Du        
   1668 ****        21.5000  -8.2500  -3.5000 Du        
   1669 ****        21.5000  -8.2500  -3.2500 Du        
   1670 ****        21.5000  -8.2500  -3.0000 Du        
   1671 ****        21.5000  -8.2500  -2.7500 Du        
   1672 ****        21.5000  -8.0000  -5.0000 Du        
   1673 ****        21.5000  -8.0000  -4.7500 Du        
   1674 ****        21.5000  -8.0000  -4.5000 Du        
   1675 ****        21.5000  -8.0000  -4.2500 Du        
   1676 ****        21.5000  -8.0000  -4.0000 Du        
   1677 ****        21.5000  -8.0000  -3.7500 Du        
   1678 ****        21.5000  -8.0000  -3.5000 Du        
   1679 ****        21.5000  -8.0000  -3.2500 Du        
   1680 ****        21.5000  -8.0000  -3.0000 Du        
   1681 ****        21.5000  -8.0000  -2.7500 Du        
   1682 ****        21.5000  -7.7500  -5.0000 Du        
   1683 ****        21.5000  -7.7500  -4.7500 Du        
   1684 ****        21.5000  -7.7500  -4.5000 Du        
   1685 ****        21.5000  -7.7500  -4.2500 Du        
   1686 ****        21.5000  -7.7500  -4.0000 Du        
   1687 ****        21.5000  -7.7500  -3.7500 Du        
   1688 ****        21.5000  -7.7500  -3.5000 Du        
   1689 ****        21.5000  -7.7500  -3.2500 Du        
   1690 ****        21.5000  -7.7500  -3.0000 Du        
   1691 ****        21.5000  -7.7500  -2.7500 Du        
   1692 ****        21.5000  -7.5000  -4.5000 Du        
   1693 ****        21.5000  -7.5000  -4.2500 Du        
   1694 ****        21.5000  -7.5000  -4.0000 Du        
   1695 ****        21.5000  -7.5000  -3.7500 Du        
   1696 ****        21.5000  -7.5000  -3.5000 Du        
   1697 ****        21.5000  -7.5000  -3.2500 Du        
   1698 ****        21.5000  -7.2500  -4.0000 Du        
   1699 ****        21.5000  -6.2500   8.5000 Du        
   1700 ****        21.7500 -12.7500  -2.0000 Du        
   1701 ****        21.7500 -12.5000  -2.0000 Du        
   1702 ****        21.7500 -12.5000  -1.7500 Du        
   1703 ****        21.7500 -12.2500  -2.2500 Du        
   1704 ****        21.7500 -12.2500  -2.0000 Du        
   1705 ****        21.7500 -12.2500  -1.7500 Du        
   1706 ****        21.7500 -12.0000  -2.2500 Du        
   1707 ****        21.7500 -12.0000  -2.0000 Du        
   1708 ****        21.7500 -12.0000  -1.7500 Du        
   1709 ****        21.7500 -11.7500  -2.5000 Du        
   1710 ****        21.7500 -11.7500  -2.2500 Du        
   1711 ****        21.7500 -11.7500  -2.0000 Du        
   1712 ****        21.7500 -11.7500  -1.7500 Du        
   1713 ****        21.7500 -11.5000  -2.5000 Du        
   1714 ****        21.7500 -11.5000  -2.2500 Du        
   1715 ****        21.7500 -11.5000  -2.0000 Du        
   1716 ****        21.7500 -11.5000  -1.7500 Du        
   1717 ****        21.7500 -11.2500  -2.7500 Du        
   1718 ****        21.7500 -11.2500  -2.5000 Du        
   1719 ****        21.7500 -11.2500  -2.2500 Du        
   1720 ****        21.7500 -11.2500  -2.0000 Du        
   1721 ****        21.7500 -11.2500  -1.7500 Du        
   1722 ****        21.7500 -11.0000  -2.7500 Du        
   1723 ****        21.7500 -11.0000  -2.5000 Du        
   1724 ****        21.7500 -11.0000  -2.2500 Du        
   1725 ****        21.7500 -11.0000  -2.0000 Du        
   1726 ****        21.7500 -11.0000  -1.7500 Du        
   1727 ****        21.7500 -11.0000  -1.5000 Du        
   1728 ****        21.7500 -11.0000  12.7500 Du        
   1729 ****        21.7500 -10.7500  -8.2500 Du        
   1730 ****        21.7500 -10.7500  -3.0000 Du        
   1731 ****        21.7500 -10.7500  -2.7500 Du        
   1732 ****        21.7500 -10.7500  -2.5000 Du        
   1733 ****        21.7500 -10.7500  -2.2500 Du        
   1734 ****        21.7500 -10.7500  -2.0000 Du        
   1735 ****        21.7500 -10.7500  -1.7500 Du        
   1736 ****        21.7500 -10.7500  -1.5000 Du        
   1737 ****        21.7500 -10.5000  -8.2500 Du        
   1738 ****        21.7500 -10.5000  -8.0000 Du        
   1739 ****        21.7500 -10.5000  -3.0000 Du        
   1740 ****        21.7500 -10.5000  -2.7500 Du        
   1741 ****        21.7500 -10.5000  -2.5000 Du        
   1742 ****        21.7500 -10.5000  -2.2500 Du        
   1743 ****        21.7500 -10.5000  -2.0000 Du        
   1744 ****        21.7500 -10.5000  -1.7500 Du        
   1745 ****        21.7500 -10.5000  -1.5000 Du        
   1746 ****        21.7500 -10.2500  -8.0000 Du        
   1747 ****        21.7500 -10.2500  -3.2500 Du        
   1748 ****        21.7500 -10.2500  -3.0000 Du        
   1749 ****        21.7500 -10.2500  -2.7500 Du        
   1750 ****        21.7500 -10.2500  -2.5000 Du        
   1751 ****        21.7500 -10.2500  -2.2500 Du        
   1752 ****        21.7500 -10.2500  -2.0000 Du        
   1753 ****        21.7500 -10.2500  -1.7500 Du        
   1754 ****        21.7500 -10.2500  -1.5000 Du        
   1755 ****        21.7500 -10.0000  -3.5000 Du        
   1756 ****        21.7500 -10.0000  -3.2500 Du        
   1757 ****        21.7500 -10.0000  -3.0000 Du        
   1758 ****        21.7500 -10.0000  -2.7500 Du        
   1759 ****        21.7500 -10.0000  -2.5000 Du        
   1760 ****        21.7500 -10.0000  -2.2500 Du        
   1761 ****        21.7500 -10.0000  -2.0000 Du        
   1762 ****        21.7500 -10.0000  -1.7500 Du        
   1763 ****        21.7500 -10.0000  -1.5000 Du        
   1764 ****        21.7500 -10.0000  -1.2500 Du        
   1765 ****        21.7500  -9.7500  -3.7500 Du        
   1766 ****        21.7500  -9.7500  -3.5000 Du        
   1767 ****        21.7500  -9.7500  -3.2500 Du        
   1768 ****        21.7500  -9.7500  -3.0000 Du        
   1769 ****        21.7500  -9.7500  -2.7500 Du        
   1770 ****        21.7500  -9.7500  -2.5000 Du        
   1771 ****        21.7500  -9.7500  -2.2500 Du        
   1772 ****        21.7500  -9.7500  -2.0000 Du        
   1773 ****        21.7500  -9.7500  -1.7500 Du        
   1774 ****        21.7500  -9.5000  -4.0000 Du        
   1775 ****        21.7500  -9.5000  -3.7500 Du        
   1776 ****        21.7500  -9.5000  -3.5000 Du        
   1777 ****        21.7500  -9.5000  -3.2500 Du        
   1778 ****        21.7500  -9.5000  -3.0000 Du        
   1779 ****        21.7500  -9.5000  -2.7500 Du        
   1780 ****        21.7500  -9.2500  -4.7500 Du        
   1781 ****        21.7500  -9.2500  -4.5000 Du        
   1782 ****        21.7500  -9.2500  -4.2500 Du        
   1783 ****        21.7500  -9.2500  -4.0000 Du        
   1784 ****        21.7500  -9.2500  -3.7500 Du        
   1785 ****        21.7500  -9.2500  -3.5000 Du        
   1786 ****        21.7500  -9.2500  -3.2500 Du        
   1787 ****        21.7500  -9.2500  -3.0000 Du        
   1788 ****        21.7500  -9.2500  -2.7500 Du        
   1789 ****        21.7500  -9.0000  -5.0000 Du        
   1790 ****        21.7500  -9.0000  -4.7500 Du        
   1791 ****        21.7500  -9.0000  -4.5000 Du        
   1792 ****        21.7500  -9.0000  -4.2500 Du        
   1793 ****        21.7500  -9.0000  -4.0000 Du        
   1794 ****        21.7500  -9.0000  -3.7500 Du        
   1795 ****        21.7500  -9.0000  -3.5000 Du        
   1796 ****        21.7500  -9.0000  -3.2500 Du        
   1797 ****        21.7500  -9.0000  -3.0000 Du        
   1798 ****        21.7500  -8.7500  -5.0000 Du        
   1799 ****        21.7500  -8.7500  -4.7500 Du        
   1800 ****        21.7500  -8.7500  -4.5000 Du        
   1801 ****        21.7500  -8.7500  -4.2500 Du        
   1802 ****        21.7500  -8.7500  -4.0000 Du        
   1803 ****        21.7500  -8.7500  -3.7500 Du        
   1804 ****        21.7500  -8.7500  -3.5000 Du        
   1805 ****        21.7500  -8.7500  -3.2500 Du        
   1806 ****        21.7500  -8.7500  -3.0000 Du        
   1807 ****        21.7500  -8.5000  -5.0000 Du        
   1808 ****        21.7500  -8.5000  -4.7500 Du        
   1809 ****        21.7500  -8.5000  -4.5000 Du        
   1810 ****        21.7500  -8.5000  -4.2500 Du        
   1811 ****        21.7500  -8.5000  -4.0000 Du        
   1812 ****        21.7500  -8.5000  -3.7500 Du        
   1813 ****        21.7500  -8.5000  -3.5000 Du        
   1814 ****        21.7500  -8.5000  -3.2500 Du        
   1815 ****        21.7500  -8.5000  -3.0000 Du        
   1816 ****        21.7500  -8.2500  -5.0000 Du        
   1817 ****        21.7500  -8.2500  -4.7500 Du        
   1818 ****        21.7500  -8.2500  -4.5000 Du        
   1819 ****        21.7500  -8.2500  -4.2500 Du        
   1820 ****        21.7500  -8.2500  -4.0000 Du        
   1821 ****        21.7500  -8.2500  -3.7500 Du        
   1822 ****        21.7500  -8.2500  -3.5000 Du        
   1823 ****        21.7500  -8.2500  -3.2500 Du        
   1824 ****        21.7500  -8.2500  -3.0000 Du        
   1825 ****        21.7500  -8.0000  -5.0000 Du        
   1826 ****        21.7500  -8.0000  -4.7500 Du        
   1827 ****        21.7500  -8.0000  -4.5000 Du        
   1828 ****        21.7500  -8.0000  -4.2500 Du        
   1829 ****        21.7500  -8.0000  -4.0000 Du        
   1830 ****        21.7500  -8.0000  -3.7500 Du        
   1831 ****        21.7500  -8.0000  -3.5000 Du        
   1832 ****        21.7500  -8.0000  -3.2500 Du        
   1833 ****        21.7500  -8.0000  -3.0000 Du        
   1834 ****        21.7500  -7.7500  -5.0000 Du        
   1835 ****        21.7500  -7.7500  -4.7500 Du        
   1836 ****        21.7500  -7.7500  -4.5000 Du        
   1837 ****        21.7500  -7.7500  -4.2500 Du        
   1838 ****        21.7500  -7.7500  -4.0000 Du        
   1839 ****        21.7500  -7.7500  -3.7500 Du        
   1840 ****        21.7500  -7.7500  -3.5000 Du        
   1841 ****        21.7500  -7.7500  -3.2500 Du        
   1842 ****        21.7500  -7.5000  -4.7500 Du        
   1843 ****        21.7500  -7.5000  -4.5000 Du        
   1844 ****        21.7500  -7.5000  -4.2500 Du        
   1845 ****        21.7500  -7.5000  -4.0000 Du        
   1846 ****        21.7500  -7.5000  -3.7500 Du        
   1847 ****        21.7500  -7.5000  -3.5000 Du        
   1848 ****        21.7500  -7.2500  -4.5000 Du        
   1849 ****        21.7500  -7.2500  -4.2500 Du        
   1850 ****        21.7500  -7.2500  -4.0000 Du        
   1851 ****        21.7500  -6.5000   8.5000 Du        
   1852 ****        21.7500  -6.5000   8.7500 Du        
   1853 ****        21.7500  -6.2500   8.5000 Du        
   1854 ****        21.7500  -6.2500   8.7500 Du        
   1855 ****        22.0000 -13.2500  -1.7500 Du        
   1856 ****        22.0000 -13.0000  -2.0000 Du        
   1857 ****        22.0000 -13.0000  -1.7500 Du        
   1858 ****        22.0000 -12.7500  -2.0000 Du        
   1859 ****        22.0000 -12.7500  -1.7500 Du        
   1860 ****        22.0000 -12.5000  -2.2500 Du        
   1861 ****        22.0000 -12.5000  -2.0000 Du        
   1862 ****        22.0000 -12.5000  -1.7500 Du        
   1863 ****        22.0000 -12.2500  -2.2500 Du        
   1864 ****        22.0000 -12.2500  -2.0000 Du        
   1865 ****        22.0000 -12.2500  -1.7500 Du        
   1866 ****        22.0000 -12.0000  -2.5000 Du        
   1867 ****        22.0000 -12.0000  -2.2500 Du        
   1868 ****        22.0000 -12.0000  -2.0000 Du        
   1869 ****        22.0000 -12.0000  -1.7500 Du        
   1870 ****        22.0000 -11.7500  -2.5000 Du        
   1871 ****        22.0000 -11.7500  -2.2500 Du        
   1872 ****        22.0000 -11.7500  -2.0000 Du        
   1873 ****        22.0000 -11.7500  -1.7500 Du        
   1874 ****        22.0000 -11.5000  -2.5000 Du        
   1875 ****        22.0000 -11.5000  -2.2500 Du        
   1876 ****        22.0000 -11.5000  -2.0000 Du        
   1877 ****        22.0000 -11.5000  -1.7500 Du        
   1878 ****        22.0000 -11.2500  -2.7500 Du        
   1879 ****        22.0000 -11.2500  -2.5000 Du        
   1880 ****        22.0000 -11.2500  -2.2500 Du        
   1881 ****        22.0000 -11.2500  -2.0000 Du        
   1882 ****        22.0000 -11.2500  -1.7500 Du        
   1883 ****        22.0000 -11.2500  -1.5000 Du        
   1884 ****        22.0000 -11.0000  -8.2500 Du        
   1885 ****        22.0000 -11.0000  -3.0000 Du        
   1886 ****        22.0000 -11.0000  -2.7500 Du        
   1887 ****        22.0000 -11.0000  -2.5000 Du        
   1888 ****        22.0000 -11.0000  -2.2500 Du        
   1889 ****        22.0000 -11.0000  -2.0000 Du        
   1890 ****        22.0000 -11.0000  -1.7500 Du        
   1891 ****        22.0000 -11.0000  -1.5000 Du        
   1892 ****        22.0000 -10.7500  -8.2500 Du        
   1893 ****        22.0000 -10.7500  -8.0000 Du        
   1894 ****        22.0000 -10.7500  -3.0000 Du        
   1895 ****        22.0000 -10.7500  -2.7500 Du        
   1896 ****        22.0000 -10.7500  -2.5000 Du        
   1897 ****        22.0000 -10.7500  -2.2500 Du        
   1898 ****        22.0000 -10.7500  -2.0000 Du        
   1899 ****        22.0000 -10.7500  -1.7500 Du        
   1900 ****        22.0000 -10.7500  -1.5000 Du        
   1901 ****        22.0000 -10.5000  -8.2500 Du        
   1902 ****        22.0000 -10.5000  -8.0000 Du        
   1903 ****        22.0000 -10.5000  -3.2500 Du        
   1904 ****        22.0000 -10.5000  -3.0000 Du        
   1905 ****        22.0000 -10.5000  -2.7500 Du        
   1906 ****        22.0000 -10.5000  -2.5000 Du        
   1907 ****        22.0000 -10.5000  -2.2500 Du        
   1908 ****        22.0000 -10.5000  -2.0000 Du        
   1909 ****        22.0000 -10.5000  -1.7500 Du        
   1910 ****        22.0000 -10.5000  -1.5000 Du        
   1911 ****        22.0000 -10.2500  -8.0000 Du        
   1912 ****        22.0000 -10.2500  -3.5000 Du        
   1913 ****        22.0000 -10.2500  -3.2500 Du        
   1914 ****        22.0000 -10.2500  -3.0000 Du        
   1915 ****        22.0000 -10.2500  -2.7500 Du        
   1916 ****        22.0000 -10.2500  -2.5000 Du        
   1917 ****        22.0000 -10.2500  -2.2500 Du        
   1918 ****        22.0000 -10.2500  -2.0000 Du        
   1919 ****        22.0000 -10.2500  -1.7500 Du        
   1920 ****        22.0000 -10.2500  -1.5000 Du        
   1921 ****        22.0000 -10.2500  -1.2500 Du        
   1922 ****        22.0000 -10.0000  -3.7500 Du        
   1923 ****        22.0000 -10.0000  -3.5000 Du        
   1924 ****        22.0000 -10.0000  -3.2500 Du        
   1925 ****        22.0000 -10.0000  -3.0000 Du        
   1926 ****        22.0000 -10.0000  -2.7500 Du        
   1927 ****        22.0000 -10.0000  -2.5000 Du        
   1928 ****        22.0000 -10.0000  -2.2500 Du        
   1929 ****        22.0000 -10.0000  -2.0000 Du        
   1930 ****        22.0000 -10.0000  -1.7500 Du        
   1931 ****        22.0000 -10.0000  -1.5000 Du        
   1932 ****        22.0000 -10.0000  -1.2500 Du        
   1933 ****        22.0000  -9.7500  -4.0000 Du        
   1934 ****        22.0000  -9.7500  -3.7500 Du        
   1935 ****        22.0000  -9.7500  -3.5000 Du        
   1936 ****        22.0000  -9.7500  -3.2500 Du        
   1937 ****        22.0000  -9.7500  -3.0000 Du        
   1938 ****        22.0000  -9.7500  -2.7500 Du        
   1939 ****        22.0000  -9.7500  -2.0000 Du        
   1940 ****        22.0000  -9.7500  -1.7500 Du        
   1941 ****        22.0000  -9.5000  -4.2500 Du        
   1942 ****        22.0000  -9.5000  -4.0000 Du        
   1943 ****        22.0000  -9.5000  -3.7500 Du        
   1944 ****        22.0000  -9.5000  -3.5000 Du        
   1945 ****        22.0000  -9.5000  -3.2500 Du        
   1946 ****        22.0000  -9.5000  -3.0000 Du        
   1947 ****        22.0000  -9.5000  -2.7500 Du        
   1948 ****        22.0000  -9.2500  -4.5000 Du        
   1949 ****        22.0000  -9.2500  -4.2500 Du        
   1950 ****        22.0000  -9.2500  -4.0000 Du        
   1951 ****        22.0000  -9.2500  -3.7500 Du        
   1952 ****        22.0000  -9.2500  -3.5000 Du        
   1953 ****        22.0000  -9.2500  -3.2500 Du        
   1954 ****        22.0000  -9.2500  -3.0000 Du        
   1955 ****        22.0000  -9.2500  -2.7500 Du        
   1956 ****        22.0000  -9.0000  -4.7500 Du        
   1957 ****        22.0000  -9.0000  -4.5000 Du        
   1958 ****        22.0000  -9.0000  -4.2500 Du        
   1959 ****        22.0000  -9.0000  -4.0000 Du        
   1960 ****        22.0000  -9.0000  -3.7500 Du        
   1961 ****        22.0000  -9.0000  -3.5000 Du        
   1962 ****        22.0000  -9.0000  -3.2500 Du        
   1963 ****        22.0000  -9.0000  -3.0000 Du        
   1964 ****        22.0000  -8.7500  -4.7500 Du        
   1965 ****        22.0000  -8.7500  -4.5000 Du        
   1966 ****        22.0000  -8.7500  -4.2500 Du        
   1967 ****        22.0000  -8.7500  -4.0000 Du        
   1968 ****        22.0000  -8.7500  -3.7500 Du        
   1969 ****        22.0000  -8.7500  -3.5000 Du        
   1970 ****        22.0000  -8.5000  -4.7500 Du        
   1971 ****        22.0000  -8.5000  -4.5000 Du        
   1972 ****        22.0000  -8.5000  -4.2500 Du        
   1973 ****        22.0000  -8.5000  -4.0000 Du        
   1974 ****        22.0000  -8.5000  -3.7500 Du        
   1975 ****        22.0000  -8.5000  -3.5000 Du        
   1976 ****        22.0000  -8.2500  -4.7500 Du        
   1977 ****        22.0000  -8.2500  -4.5000 Du        
   1978 ****        22.0000  -8.2500  -4.2500 Du        
   1979 ****        22.0000  -8.2500  -4.0000 Du        
   1980 ****        22.0000  -8.2500  -3.7500 Du        
   1981 ****        22.0000  -8.2500  -3.5000 Du        
   1982 ****        22.0000  -8.0000  -4.7500 Du        
   1983 ****        22.0000  -8.0000  -4.5000 Du        
   1984 ****        22.0000  -8.0000  -4.2500 Du        
   1985 ****        22.0000  -8.0000  -4.0000 Du        
   1986 ****        22.0000  -8.0000  -3.7500 Du        
   1987 ****        22.0000  -7.7500  -4.7500 Du        
   1988 ****        22.0000  -7.7500  -4.5000 Du        
   1989 ****        22.0000  -7.7500  -4.2500 Du        
   1990 ****        22.0000  -7.7500  -4.0000 Du        
   1991 ****        22.0000  -7.7500  -3.7500 Du        
   1992 ****        22.0000  -7.5000  -4.7500 Du        
   1993 ****        22.0000  -7.5000  -4.5000 Du        
   1994 ****        22.0000  -7.5000  -4.2500 Du        
   1995 ****        22.0000  -7.5000  -4.0000 Du        
   1996 ****        22.0000  -7.5000  -3.7500 Du        
   1997 ****        22.0000  -7.2500  -4.7500 Du        
   1998 ****        22.0000  -7.2500  -4.5000 Du        
   1999 ****        22.0000  -7.2500  -4.2500 Du        
   2000 ****        22.0000  -6.7500   8.2500 Du        
   2001 ****        22.0000  -6.7500   8.5000 Du        
   2002 ****        22.0000  -6.7500   8.7500 Du        
   2003 ****        22.0000  -6.7500   9.0000 Du        
   2004 ****        22.0000  -6.5000   8.2500 Du        
   2005 ****        22.0000  -6.5000   8.5000 Du        
   2006 ****        22.0000  -6.5000   8.7500 Du        
   2007 ****        22.0000  -6.5000   9.0000 Du        
   2008 ****        22.0000  -6.2500   8.2500 Du        
   2009 ****        22.0000  -6.2500   8.5000 Du        
   2010 ****        22.0000  -6.2500   8.7500 Du        
   2011 ****        22.0000  -6.0000   8.5000 Du        
   2012 ****        22.2500 -13.7500  -1.7500 Du        
   2013 ****        22.2500 -13.7500  -1.5000 Du        
   2014 ****        22.2500 -13.5000  -2.0000 Du        
   2015 ****        22.2500 -13.5000  -1.7500 Du        
   2016 ****        22.2500 -13.5000  -1.5000 Du        
   2017 ****        22.2500 -13.2500  -2.0000 Du        
   2018 ****        22.2500 -13.2500  -1.7500 Du        
   2019 ****        22.2500 -13.2500  -1.5000 Du        
   2020 ****        22.2500 -13.0000  -2.2500 Du        
   2021 ****        22.2500 -13.0000  -2.0000 Du        
   2022 ****        22.2500 -13.0000  -1.7500 Du        
   2023 ****        22.2500 -13.0000  -1.5000 Du        
   2024 ****        22.2500 -12.7500  -2.2500 Du        
   2025 ****        22.2500 -12.7500  -2.0000 Du        
   2026 ****        22.2500 -12.7500  -1.7500 Du        
   2027 ****        22.2500 -12.7500  -1.5000 Du        
   2028 ****        22.2500 -12.5000  -2.2500 Du        
   2029 ****        22.2500 -12.5000  -2.0000 Du        
   2030 ****        22.2500 -12.5000  -1.7500 Du        
   2031 ****        22.2500 -12.5000  -1.5000 Du        
   2032 ****        22.2500 -12.2500  -2.5000 Du        
   2033 ****        22.2500 -12.2500  -2.2500 Du        
   2034 ****        22.2500 -12.2500  -2.0000 Du        
   2035 ****        22.2500 -12.2500  -1.7500 Du        
   2036 ****        22.2500 -12.2500  -1.5000 Du        
   2037 ****        22.2500 -12.0000  -2.5000 Du        
   2038 ****        22.2500 -12.0000  -2.2500 Du        
   2039 ****        22.2500 -12.0000  -2.0000 Du        
   2040 ****        22.2500 -12.0000  -1.7500 Du        
   2041 ****        22.2500 -12.0000  -1.5000 Du        
   2042 ****        22.2500 -11.7500  -2.7500 Du        
   2043 ****        22.2500 -11.7500  -2.5000 Du        
   2044 ****        22.2500 -11.7500  -2.2500 Du        
   2045 ****        22.2500 -11.7500  -2.0000 Du        
   2046 ****        22.2500 -11.7500  -1.7500 Du        
   2047 ****        22.2500 -11.7500  -1.5000 Du        
   2048 ****        22.2500 -11.5000  -2.7500 Du        
   2049 ****        22.2500 -11.5000  -2.5000 Du        
   2050 ****        22.2500 -11.5000  -2.2500 Du        
   2051 ****        22.2500 -11.5000  -2.0000 Du        
   2052 ****        22.2500 -11.5000  -1.7500 Du        
   2053 ****        22.2500 -11.5000  -1.5000 Du        
   2054 ****        22.2500 -11.2500  -3.0000 Du        
   2055 ****        22.2500 -11.2500  -2.7500 Du        
   2056 ****        22.2500 -11.2500  -2.5000 Du        
   2057 ****        22.2500 -11.2500  -2.2500 Du        
   2058 ****        22.2500 -11.2500  -2.0000 Du        
   2059 ****        22.2500 -11.2500  -1.7500 Du        
   2060 ****        22.2500 -11.2500  -1.5000 Du        
   2061 ****        22.2500 -11.0000  -8.2500 Du        
   2062 ****        22.2500 -11.0000  -8.0000 Du        
   2063 ****        22.2500 -11.0000  -3.0000 Du        
   2064 ****        22.2500 -11.0000  -2.7500 Du        
   2065 ****        22.2500 -11.0000  -2.5000 Du        
   2066 ****        22.2500 -11.0000  -2.2500 Du        
   2067 ****        22.2500 -11.0000  -2.0000 Du        
   2068 ****        22.2500 -11.0000  -1.7500 Du        
   2069 ****        22.2500 -11.0000  -1.5000 Du        
   2070 ****        22.2500 -10.7500  -8.2500 Du        
   2071 ****        22.2500 -10.7500  -8.0000 Du        
   2072 ****        22.2500 -10.7500  -3.0000 Du        
   2073 ****        22.2500 -10.7500  -2.7500 Du        
   2074 ****        22.2500 -10.7500  -2.5000 Du        
   2075 ****        22.2500 -10.7500  -2.2500 Du        
   2076 ****        22.2500 -10.7500  -2.0000 Du        
   2077 ****        22.2500 -10.7500  -1.7500 Du        
   2078 ****        22.2500 -10.7500  -1.5000 Du        
   2079 ****        22.2500 -10.7500  -1.2500 Du        
   2080 ****        22.2500 -10.5000  -8.2500 Du        
   2081 ****        22.2500 -10.5000  -8.0000 Du        
   2082 ****        22.2500 -10.5000  -3.2500 Du        
   2083 ****        22.2500 -10.5000  -3.0000 Du        
   2084 ****        22.2500 -10.5000  -2.7500 Du        
   2085 ****        22.2500 -10.5000  -2.5000 Du        
   2086 ****        22.2500 -10.5000  -2.2500 Du        
   2087 ****        22.2500 -10.5000  -2.0000 Du        
   2088 ****        22.2500 -10.5000  -1.7500 Du        
   2089 ****        22.2500 -10.5000  -1.5000 Du        
   2090 ****        22.2500 -10.2500  -3.5000 Du        
   2091 ****        22.2500 -10.2500  -3.2500 Du        
   2092 ****        22.2500 -10.2500  -3.0000 Du        
   2093 ****        22.2500 -10.2500  -2.7500 Du        
   2094 ****        22.2500 -10.2500  -2.5000 Du        
   2095 ****        22.2500 -10.2500  -2.2500 Du        
   2096 ****        22.2500 -10.2500  -2.0000 Du        
   2097 ****        22.2500 -10.2500  -1.7500 Du        
   2098 ****        22.2500 -10.2500  -1.5000 Du        
   2099 ****        22.2500 -10.2500  -1.2500 Du        
   2100 ****        22.2500 -10.0000  -4.0000 Du        
   2101 ****        22.2500 -10.0000  -3.7500 Du        
   2102 ****        22.2500 -10.0000  -3.5000 Du        
   2103 ****        22.2500 -10.0000  -3.2500 Du        
   2104 ****        22.2500 -10.0000  -3.0000 Du        
   2105 ****        22.2500 -10.0000  -2.7500 Du        
   2106 ****        22.2500 -10.0000  -2.5000 Du        
   2107 ****        22.2500 -10.0000  -2.2500 Du        
   2108 ****        22.2500 -10.0000  -2.0000 Du        
   2109 ****        22.2500 -10.0000  -1.7500 Du        
   2110 ****        22.2500 -10.0000  -1.5000 Du        
   2111 ****        22.2500  -9.7500  -4.2500 Du        
   2112 ****        22.2500  -9.7500  -4.0000 Du        
   2113 ****        22.2500  -9.7500  -3.7500 Du        
   2114 ****        22.2500  -9.7500  -3.5000 Du        
   2115 ****        22.2500  -9.7500  -3.2500 Du        
   2116 ****        22.2500  -9.7500  -3.0000 Du        
   2117 ****        22.2500  -9.7500  -2.7500 Du        
   2118 ****        22.2500  -9.5000  -4.2500 Du        
   2119 ****        22.2500  -9.5000  -4.0000 Du        
   2120 ****        22.2500  -9.5000  -3.7500 Du        
   2121 ****        22.2500  -9.5000  -3.5000 Du        
   2122 ****        22.2500  -9.5000  -3.2500 Du        
   2123 ****        22.2500  -9.5000  -3.0000 Du        
   2124 ****        22.2500  -9.2500  -4.5000 Du        
   2125 ****        22.2500  -9.2500  -4.2500 Du        
   2126 ****        22.2500  -9.2500  -4.0000 Du        
   2127 ****        22.2500  -9.2500  -3.7500 Du        
   2128 ****        22.2500  -9.2500  -3.5000 Du        
   2129 ****        22.2500  -9.2500  -3.2500 Du        
   2130 ****        22.2500  -9.0000  -4.2500 Du        
   2131 ****        22.2500  -9.0000  -4.0000 Du        
   2132 ****        22.2500  -9.0000  -3.7500 Du        
   2133 ****        22.2500  -8.7500  -4.2500 Du        
   2134 ****        22.2500  -8.7500  -4.0000 Du        
   2135 ****        22.2500  -8.7500  -3.7500 Du        
   2136 ****        22.2500  -8.5000  -4.2500 Du        
   2137 ****        22.2500  -8.5000  -4.0000 Du        
   2138 ****        22.2500  -8.5000  -3.7500 Du        
   2139 ****        22.2500  -8.2500  -4.2500 Du        
   2140 ****        22.2500  -8.2500  -4.0000 Du        
   2141 ****        22.2500  -8.0000  -4.2500 Du        
   2142 ****        22.2500  -8.0000  -4.0000 Du        
   2143 ****        22.2500  -7.7500  -4.5000 Du        
   2144 ****        22.2500  -7.7500  -4.2500 Du        
   2145 ****        22.2500  -7.5000   1.2500 Du        
   2146 ****        22.2500  -7.2500   1.0000 Du        
   2147 ****        22.2500  -7.2500   1.2500 Du        
   2148 ****        22.2500  -7.2500   1.7500 Du        
   2149 ****        22.2500  -7.2500   2.0000 Du        
   2150 ****        22.2500  -7.2500   2.2500 Du        
   2151 ****        22.2500  -7.0000   2.0000 Du        
   2152 ****        22.2500  -7.0000   2.2500 Du        
   2153 ****        22.2500  -7.0000   8.0000 Du        
   2154 ****        22.2500  -7.0000   8.2500 Du        
   2155 ****        22.2500  -7.0000   8.5000 Du        
   2156 ****        22.2500  -7.0000   8.7500 Du        
   2157 ****        22.2500  -7.0000   9.0000 Du        
   2158 ****        22.2500  -6.7500   8.0000 Du        
   2159 ****        22.2500  -6.7500   8.2500 Du        
   2160 ****        22.2500  -6.7500   8.5000 Du        
   2161 ****        22.2500  -6.7500   8.7500 Du        
   2162 ****        22.2500  -6.7500   9.0000 Du        
   2163 ****        22.2500  -6.7500   9.2500 Du        
   2164 ****        22.2500  -6.5000   8.0000 Du        
   2165 ****        22.2500  -6.5000   8.2500 Du        
   2166 ****        22.2500  -6.5000   8.5000 Du        
   2167 ****        22.2500  -6.5000   8.7500 Du        
   2168 ****        22.2500  -6.5000   9.0000 Du        
   2169 ****        22.2500  -6.2500   8.0000 Du        
   2170 ****        22.2500  -6.2500   8.2500 Du        
   2171 ****        22.2500  -6.2500   8.5000 Du        
   2172 ****        22.2500  -6.2500   8.7500 Du        
   2173 ****        22.2500  -6.0000   8.5000 Du        
   2174 ****        22.5000 -13.7500  -2.0000 Du        
   2175 ****        22.5000 -13.7500  -1.7500 Du        
   2176 ****        22.5000 -13.7500  -1.5000 Du        
   2177 ****        22.5000 -13.7500  -1.2500 Du        
   2178 ****        22.5000 -13.5000  -2.0000 Du        
   2179 ****        22.5000 -13.5000  -1.7500 Du        
   2180 ****        22.5000 -13.5000  -1.5000 Du        
   2181 ****        22.5000 -13.5000  -1.2500 Du        
   2182 ****        22.5000 -13.2500  -2.2500 Du        
   2183 ****        22.5000 -13.2500  -2.0000 Du        
   2184 ****        22.5000 -13.2500  -1.7500 Du        
   2185 ****        22.5000 -13.2500  -1.5000 Du        
   2186 ****        22.5000 -13.2500  -1.2500 Du        
   2187 ****        22.5000 -13.0000  -2.2500 Du        
   2188 ****        22.5000 -13.0000  -2.0000 Du        
   2189 ****        22.5000 -13.0000  -1.7500 Du        
   2190 ****        22.5000 -13.0000  -1.5000 Du        
   2191 ****        22.5000 -13.0000  -1.2500 Du        
   2192 ****        22.5000 -12.7500  -2.2500 Du        
   2193 ****        22.5000 -12.7500  -2.0000 Du        
   2194 ****        22.5000 -12.7500  -1.7500 Du        
   2195 ****        22.5000 -12.7500  -1.5000 Du        
   2196 ****        22.5000 -12.5000  -2.5000 Du        
   2197 ****        22.5000 -12.5000  -2.2500 Du        
   2198 ****        22.5000 -12.5000  -2.0000 Du        
   2199 ****        22.5000 -12.5000  -1.7500 Du        
   2200 ****        22.5000 -12.5000  -1.5000 Du        
   2201 ****        22.5000 -12.2500  -2.5000 Du        
   2202 ****        22.5000 -12.2500  -2.2500 Du        
   2203 ****        22.5000 -12.2500  -2.0000 Du        
   2204 ****        22.5000 -12.2500  -1.7500 Du        
   2205 ****        22.5000 -12.2500  -1.5000 Du        
   2206 ****        22.5000 -12.0000  -2.5000 Du        
   2207 ****        22.5000 -12.0000  -2.2500 Du        
   2208 ****        22.5000 -12.0000  -2.0000 Du        
   2209 ****        22.5000 -12.0000  -1.7500 Du        
   2210 ****        22.5000 -12.0000  -1.5000 Du        
   2211 ****        22.5000 -11.7500  -2.7500 Du        
   2212 ****        22.5000 -11.7500  -2.5000 Du        
   2213 ****        22.5000 -11.7500  -2.2500 Du        
   2214 ****        22.5000 -11.7500  -2.0000 Du        
   2215 ****        22.5000 -11.7500  -1.7500 Du        
   2216 ****        22.5000 -11.7500  -1.5000 Du        
   2217 ****        22.5000 -11.5000  -2.7500 Du        
   2218 ****        22.5000 -11.5000  -2.5000 Du        
   2219 ****        22.5000 -11.5000  -2.2500 Du        
   2220 ****        22.5000 -11.5000  -2.0000 Du        
   2221 ****        22.5000 -11.5000  -1.7500 Du        
   2222 ****        22.5000 -11.5000  -1.5000 Du        
   2223 ****        22.5000 -11.2500  -8.2500 Du        
   2224 ****        22.5000 -11.2500  -8.0000 Du        
   2225 ****        22.5000 -11.2500  -3.0000 Du        
   2226 ****        22.5000 -11.2500  -2.7500 Du        
   2227 ****        22.5000 -11.2500  -2.5000 Du        
   2228 ****        22.5000 -11.2500  -2.2500 Du        
   2229 ****        22.5000 -11.2500  -2.0000 Du        
   2230 ****        22.5000 -11.2500  -1.7500 Du        
   2231 ****        22.5000 -11.2500  -1.5000 Du        
   2232 ****        22.5000 -11.0000  -8.2500 Du        
   2233 ****        22.5000 -11.0000  -8.0000 Du        
   2234 ****        22.5000 -11.0000  -7.7500 Du        
   2235 ****        22.5000 -11.0000  -3.2500 Du        
   2236 ****        22.5000 -11.0000  -3.0000 Du        
   2237 ****        22.5000 -11.0000  -2.7500 Du        
   2238 ****        22.5000 -11.0000  -2.5000 Du        
   2239 ****        22.5000 -11.0000  -2.2500 Du        
   2240 ****        22.5000 -11.0000  -2.0000 Du        
   2241 ****        22.5000 -11.0000  -1.7500 Du        
   2242 ****        22.5000 -11.0000  -1.5000 Du        
   2243 ****        22.5000 -11.0000  -1.2500 Du        
   2244 ****        22.5000 -10.7500  -8.2500 Du        
   2245 ****        22.5000 -10.7500  -8.0000 Du        
   2246 ****        22.5000 -10.7500  -7.7500 Du        
   2247 ****        22.5000 -10.7500  -3.2500 Du        
   2248 ****        22.5000 -10.7500  -3.0000 Du        
   2249 ****        22.5000 -10.7500  -2.7500 Du        
   2250 ****        22.5000 -10.7500  -2.5000 Du        
   2251 ****        22.5000 -10.7500  -2.2500 Du        
   2252 ****        22.5000 -10.7500  -2.0000 Du        
   2253 ****        22.5000 -10.7500  -1.7500 Du        
   2254 ****        22.5000 -10.7500  -1.5000 Du        
   2255 ****        22.5000 -10.7500  -1.2500 Du        
   2256 ****        22.5000 -10.5000  -8.0000 Du        
   2257 ****        22.5000 -10.5000  -3.5000 Du        
   2258 ****        22.5000 -10.5000  -3.2500 Du        
   2259 ****        22.5000 -10.5000  -3.0000 Du        
   2260 ****        22.5000 -10.5000  -2.7500 Du        
   2261 ****        22.5000 -10.5000  -2.5000 Du        
   2262 ****        22.5000 -10.5000  -2.2500 Du        
   2263 ****        22.5000 -10.5000  -2.0000 Du        
   2264 ****        22.5000 -10.5000  -1.7500 Du        
   2265 ****        22.5000 -10.2500  -3.7500 Du        
   2266 ****        22.5000 -10.2500  -3.5000 Du        
   2267 ****        22.5000 -10.2500  -3.2500 Du        
   2268 ****        22.5000 -10.2500  -3.0000 Du        
   2269 ****        22.5000 -10.2500  -2.7500 Du        
   2270 ****        22.5000 -10.2500  -2.5000 Du        
   2271 ****        22.5000 -10.2500  -2.2500 Du        
   2272 ****        22.5000 -10.2500  -2.0000 Du        
   2273 ****        22.5000 -10.2500  -1.7500 Du        
   2274 ****        22.5000 -10.0000  -4.2500 Du        
   2275 ****        22.5000 -10.0000  -4.0000 Du        
   2276 ****        22.5000 -10.0000  -3.7500 Du        
   2277 ****        22.5000 -10.0000  -3.5000 Du        
   2278 ****        22.5000 -10.0000  -3.2500 Du        
   2279 ****        22.5000 -10.0000  -3.0000 Du        
   2280 ****        22.5000 -10.0000  -2.7500 Du        
   2281 ****        22.5000 -10.0000  -2.5000 Du        
   2282 ****        22.5000  -9.7500  -4.2500 Du        
   2283 ****        22.5000  -9.7500  -4.0000 Du        
   2284 ****        22.5000  -9.7500  -3.7500 Du        
   2285 ****        22.5000  -9.7500  -3.5000 Du        
   2286 ****        22.5000  -9.7500  -3.2500 Du        
   2287 ****        22.5000  -9.7500  -3.0000 Du        
   2288 ****        22.5000  -9.5000  -4.2500 Du        
   2289 ****        22.5000  -9.5000  -4.0000 Du        
   2290 ****        22.5000  -9.5000  -3.7500 Du        
   2291 ****        22.5000  -9.5000  -3.5000 Du        
   2292 ****        22.5000  -9.2500  -4.2500 Du        
   2293 ****        22.5000  -9.2500  -4.0000 Du        
   2294 ****        22.5000  -9.2500  -3.7500 Du        
   2295 ****        22.5000  -9.0000  -4.0000 Du        
   2296 ****        22.5000  -7.7500   6.7500 Du        
   2297 ****        22.5000  -7.7500   7.0000 Du        
   2298 ****        22.5000  -7.5000   1.0000 Du        
   2299 ****        22.5000  -7.5000   1.2500 Du        
   2300 ****        22.5000  -7.5000   1.5000 Du        
   2301 ****        22.5000  -7.5000   1.7500 Du        
   2302 ****        22.5000  -7.5000   2.0000 Du        
   2303 ****        22.5000  -7.5000   2.2500 Du        
   2304 ****        22.5000  -7.5000   2.5000 Du        
   2305 ****        22.5000  -7.5000   2.7500 Du        
   2306 ****        22.5000  -7.5000   7.2500 Du        
   2307 ****        22.5000  -7.5000   7.5000 Du        
   2308 ****        22.5000  -7.2500   1.0000 Du        
   2309 ****        22.5000  -7.2500   1.2500 Du        
   2310 ****        22.5000  -7.2500   1.5000 Du        
   2311 ****        22.5000  -7.2500   1.7500 Du        
   2312 ****        22.5000  -7.2500   2.0000 Du        
   2313 ****        22.5000  -7.2500   2.2500 Du        
   2314 ****        22.5000  -7.2500   2.5000 Du        
   2315 ****        22.5000  -7.2500   2.7500 Du        
   2316 ****        22.5000  -7.2500   3.0000 Du        
   2317 ****        22.5000  -7.2500   6.7500 Du        
   2318 ****        22.5000  -7.2500   7.0000 Du        
   2319 ****        22.5000  -7.2500   7.2500 Du        
   2320 ****        22.5000  -7.2500   7.5000 Du        
   2321 ****        22.5000  -7.2500   7.7500 Du        
   2322 ****        22.5000  -7.2500   8.0000 Du        
   2323 ****        22.5000  -7.0000   1.2500 Du        
   2324 ****        22.5000  -7.0000   1.5000 Du        
   2325 ****        22.5000  -7.0000   1.7500 Du        
   2326 ****        22.5000  -7.0000   2.0000 Du        
   2327 ****        22.5000  -7.0000   2.2500 Du        
   2328 ****        22.5000  -7.0000   2.5000 Du        
   2329 ****        22.5000  -7.0000   2.7500 Du        
   2330 ****        22.5000  -7.0000   7.2500 Du        
   2331 ****        22.5000  -7.0000   7.5000 Du        
   2332 ****        22.5000  -7.0000   7.7500 Du        
   2333 ****        22.5000  -7.0000   8.0000 Du        
   2334 ****        22.5000  -7.0000   8.2500 Du        
   2335 ****        22.5000  -7.0000   8.5000 Du        
   2336 ****        22.5000  -7.0000   8.7500 Du        
   2337 ****        22.5000  -7.0000   9.0000 Du        
   2338 ****        22.5000  -7.0000   9.2500 Du        
   2339 ****        22.5000  -7.0000   9.5000 Du        
   2340 ****        22.5000  -6.7500   7.5000 Du        
   2341 ****        22.5000  -6.7500   7.7500 Du        
   2342 ****        22.5000  -6.7500   8.0000 Du        
   2343 ****        22.5000  -6.7500   8.2500 Du        
   2344 ****        22.5000  -6.7500   8.5000 Du        
   2345 ****        22.5000  -6.7500   8.7500 Du        
   2346 ****        22.5000  -6.7500   9.0000 Du        
   2347 ****        22.5000  -6.7500   9.2500 Du        
   2348 ****        22.5000  -6.7500   9.5000 Du        
   2349 ****        22.5000  -6.5000   7.7500 Du        
   2350 ****        22.5000  -6.5000   8.0000 Du        
   2351 ****        22.5000  -6.5000   8.2500 Du        
   2352 ****        22.5000  -6.5000   8.5000 Du        
   2353 ****        22.5000  -6.5000   8.7500 Du        
   2354 ****        22.5000  -6.5000   9.0000 Du        
   2355 ****        22.5000  -6.5000   9.2500 Du        
   2356 ****        22.5000  -6.2500   7.7500 Du        
   2357 ****        22.5000  -6.2500   8.0000 Du        
   2358 ****        22.5000  -6.2500   8.2500 Du        
   2359 ****        22.5000  -6.2500   8.5000 Du        
   2360 ****        22.5000  -6.2500   8.7500 Du        
   2361 ****        22.5000  -6.2500   9.0000 Du        
   2362 ****        22.5000  -6.0000   8.0000 Du        
   2363 ****        22.5000  -6.0000   8.2500 Du        
   2364 ****        22.5000  -6.0000   8.5000 Du        
   2365 ****        22.5000  -6.0000   8.7500 Du        
   2366 ****        22.7500 -14.0000  -1.7500 Du        
   2367 ****        22.7500 -14.0000  -1.5000 Du        
   2368 ****        22.7500 -13.7500  -2.0000 Du        
   2369 ****        22.7500 -13.7500  -1.7500 Du        
   2370 ****        22.7500 -13.7500  -1.5000 Du        
   2371 ****        22.7500 -13.7500  -1.2500 Du        
   2372 ****        22.7500 -13.7500  -1.0000 Du        
   2373 ****        22.7500 -13.5000  -2.2500 Du        
   2374 ****        22.7500 -13.5000  -2.0000 Du        
   2375 ****        22.7500 -13.5000  -1.7500 Du        
   2376 ****        22.7500 -13.5000  -1.5000 Du        
   2377 ****        22.7500 -13.5000  -1.2500 Du        
   2378 ****        22.7500 -13.5000  -1.0000 Du        
   2379 ****        22.7500 -13.2500  -2.2500 Du        
   2380 ****        22.7500 -13.2500  -2.0000 Du        
   2381 ****        22.7500 -13.2500  -1.7500 Du        
   2382 ****        22.7500 -13.2500  -1.5000 Du        
   2383 ****        22.7500 -13.2500  -1.2500 Du        
   2384 ****        22.7500 -13.2500  -1.0000 Du        
   2385 ****        22.7500 -13.0000  -2.2500 Du        
   2386 ****        22.7500 -13.0000  -2.0000 Du        
   2387 ****        22.7500 -13.0000  -1.7500 Du        
   2388 ****        22.7500 -13.0000  -1.5000 Du        
   2389 ****        22.7500 -13.0000  -1.2500 Du        
   2390 ****        22.7500 -13.0000  -1.0000 Du        
   2391 ****        22.7500 -12.7500  -2.5000 Du        
   2392 ****        22.7500 -12.7500  -2.2500 Du        
   2393 ****        22.7500 -12.7500  -2.0000 Du        
   2394 ****        22.7500 -12.7500  -1.7500 Du        
   2395 ****        22.7500 -12.7500  -1.5000 Du        
   2396 ****        22.7500 -12.7500  -1.2500 Du        
   2397 ****        22.7500 -12.5000  -2.5000 Du        
   2398 ****        22.7500 -12.5000  -2.2500 Du        
   2399 ****        22.7500 -12.5000  -2.0000 Du        
   2400 ****        22.7500 -12.5000  -1.7500 Du        
   2401 ****        22.7500 -12.5000  -1.5000 Du        
   2402 ****        22.7500 -12.5000  -1.2500 Du        
   2403 ****        22.7500 -12.2500  -2.5000 Du        
   2404 ****        22.7500 -12.2500  -2.2500 Du        
   2405 ****        22.7500 -12.2500  -2.0000 Du        
   2406 ****        22.7500 -12.2500  -1.7500 Du        
   2407 ****        22.7500 -12.2500  -1.5000 Du        
   2408 ****        22.7500 -12.2500  -1.2500 Du        
   2409 ****        22.7500 -12.0000  -2.7500 Du        
   2410 ****        22.7500 -12.0000  -2.5000 Du        
   2411 ****        22.7500 -12.0000  -2.2500 Du        
   2412 ****        22.7500 -12.0000  -2.0000 Du        
   2413 ****        22.7500 -12.0000  -1.7500 Du        
   2414 ****        22.7500 -12.0000  -1.5000 Du        
   2415 ****        22.7500 -12.0000  -1.2500 Du        
   2416 ****        22.7500 -11.7500  -3.0000 Du        
   2417 ****        22.7500 -11.7500  -2.7500 Du        
   2418 ****        22.7500 -11.7500  -2.5000 Du        
   2419 ****        22.7500 -11.7500  -2.2500 Du        
   2420 ****        22.7500 -11.7500  -2.0000 Du        
   2421 ****        22.7500 -11.7500  -1.7500 Du        
   2422 ****        22.7500 -11.7500  -1.5000 Du        
   2423 ****        22.7500 -11.7500  -1.2500 Du        
   2424 ****        22.7500 -11.5000  -3.0000 Du        
   2425 ****        22.7500 -11.5000  -2.7500 Du        
   2426 ****        22.7500 -11.5000  -2.5000 Du        
   2427 ****        22.7500 -11.5000  -2.2500 Du        
   2428 ****        22.7500 -11.5000  -2.0000 Du        
   2429 ****        22.7500 -11.5000  -1.7500 Du        
   2430 ****        22.7500 -11.5000  -1.5000 Du        
   2431 ****        22.7500 -11.5000  -1.2500 Du        
   2432 ****        22.7500 -11.2500  -8.2500 Du        
   2433 ****        22.7500 -11.2500  -8.0000 Du        
   2434 ****        22.7500 -11.2500  -7.7500 Du        
   2435 ****        22.7500 -11.2500  -3.2500 Du        
   2436 ****        22.7500 -11.2500  -3.0000 Du        
   2437 ****        22.7500 -11.2500  -2.7500 Du        
   2438 ****        22.7500 -11.2500  -2.5000 Du        
   2439 ****        22.7500 -11.2500  -2.2500 Du        
   2440 ****        22.7500 -11.2500  -2.0000 Du        
   2441 ****        22.7500 -11.2500  -1.7500 Du        
   2442 ****        22.7500 -11.2500  -1.5000 Du        
   2443 ****        22.7500 -11.2500  -1.2500 Du        
   2444 ****        22.7500 -11.0000  -8.2500 Du        
   2445 ****        22.7500 -11.0000  -8.0000 Du        
   2446 ****        22.7500 -11.0000  -7.7500 Du        
   2447 ****        22.7500 -11.0000  -3.2500 Du        
   2448 ****        22.7500 -11.0000  -3.0000 Du        
   2449 ****        22.7500 -11.0000  -2.7500 Du        
   2450 ****        22.7500 -11.0000  -2.5000 Du        
   2451 ****        22.7500 -11.0000  -2.2500 Du        
   2452 ****        22.7500 -11.0000  -2.0000 Du        
   2453 ****        22.7500 -11.0000  -1.7500 Du        
   2454 ****        22.7500 -11.0000  -1.5000 Du        
   2455 ****        22.7500 -11.0000  -1.2500 Du        
   2456 ****        22.7500 -10.7500  -8.2500 Du        
   2457 ****        22.7500 -10.7500  -8.0000 Du        
   2458 ****        22.7500 -10.7500  -7.7500 Du        
   2459 ****        22.7500 -10.7500  -3.5000 Du        
   2460 ****        22.7500 -10.7500  -3.2500 Du        
   2461 ****        22.7500 -10.7500  -3.0000 Du        
   2462 ****        22.7500 -10.7500  -2.7500 Du        
   2463 ****        22.7500 -10.7500  -2.5000 Du        
   2464 ****        22.7500 -10.7500  -2.2500 Du        
   2465 ****        22.7500 -10.7500  -2.0000 Du        
   2466 ****        22.7500 -10.7500  -1.7500 Du        
   2467 ****        22.7500 -10.7500  -1.5000 Du        
   2468 ****        22.7500 -10.7500  -1.2500 Du        
   2469 ****        22.7500 -10.7500  -1.0000 Du        
   2470 ****        22.7500 -10.5000  -3.7500 Du        
   2471 ****        22.7500 -10.5000  -3.5000 Du        
   2472 ****        22.7500 -10.5000  -3.2500 Du        
   2473 ****        22.7500 -10.5000  -3.0000 Du        
   2474 ****        22.7500 -10.5000  -2.7500 Du        
   2475 ****        22.7500 -10.5000  -2.5000 Du        
   2476 ****        22.7500 -10.5000  -2.2500 Du        
   2477 ****        22.7500 -10.5000  -2.0000 Du        
   2478 ****        22.7500 -10.5000  -1.7500 Du        
   2479 ****        22.7500 -10.2500  -4.2500 Du        
   2480 ****        22.7500 -10.2500  -4.0000 Du        
   2481 ****        22.7500 -10.2500  -3.7500 Du        
   2482 ****        22.7500 -10.2500  -3.5000 Du        
   2483 ****        22.7500 -10.2500  -3.2500 Du        
   2484 ****        22.7500 -10.2500  -3.0000 Du        
   2485 ****        22.7500 -10.2500  -2.7500 Du        
   2486 ****        22.7500 -10.2500  -2.5000 Du        
   2487 ****        22.7500 -10.2500  -2.2500 Du        
   2488 ****        22.7500 -10.2500  -2.0000 Du        
   2489 ****        22.7500 -10.2500  -1.7500 Du        
   2490 ****        22.7500 -10.0000  -4.2500 Du        
   2491 ****        22.7500 -10.0000  -4.0000 Du        
   2492 ****        22.7500 -10.0000  -3.7500 Du        
   2493 ****        22.7500 -10.0000  -3.5000 Du        
   2494 ****        22.7500 -10.0000  -3.2500 Du        
   2495 ****        22.7500 -10.0000  -3.0000 Du        
   2496 ****        22.7500 -10.0000  -2.7500 Du        
   2497 ****        22.7500 -10.0000  -2.5000 Du        
   2498 ****        22.7500  -9.7500  -4.2500 Du        
   2499 ****        22.7500  -9.7500  -4.0000 Du        
   2500 ****        22.7500  -9.7500  -3.7500 Du        
   2501 ****        22.7500  -9.7500  -3.5000 Du        
   2502 ****        22.7500  -9.7500  -3.2500 Du        
   2503 ****        22.7500  -9.7500  -3.0000 Du        
   2504 ****        22.7500  -9.5000  -4.2500 Du        
   2505 ****        22.7500  -9.5000  -4.0000 Du        
   2506 ****        22.7500  -9.5000  -3.7500 Du        
   2507 ****        22.7500  -7.7500   1.2500 Du        
   2508 ****        22.7500  -7.7500   1.5000 Du        
   2509 ****        22.7500  -7.7500   1.7500 Du        
   2510 ****        22.7500  -7.7500   2.0000 Du        
   2511 ****        22.7500  -7.7500   2.2500 Du        
   2512 ****        22.7500  -7.7500   6.5000 Du        
   2513 ****        22.7500  -7.7500   6.7500 Du        
   2514 ****        22.7500  -7.7500   7.0000 Du        
   2515 ****        22.7500  -7.5000   1.0000 Du        
   2516 ****        22.7500  -7.5000   1.2500 Du        
   2517 ****        22.7500  -7.5000   1.5000 Du        
   2518 ****        22.7500  -7.5000   1.7500 Du        
   2519 ****        22.7500  -7.5000   2.0000 Du        
   2520 ****        22.7500  -7.5000   2.2500 Du        
   2521 ****        22.7500  -7.5000   2.5000 Du        
   2522 ****        22.7500  -7.5000   2.7500 Du        
   2523 ****        22.7500  -7.5000   6.7500 Du        
   2524 ****        22.7500  -7.5000   7.0000 Du        
   2525 ****        22.7500  -7.5000   7.2500 Du        
   2526 ****        22.7500  -7.5000   7.5000 Du        
   2527 ****        22.7500  -7.2500   1.0000 Du        
   2528 ****        22.7500  -7.2500   1.2500 Du        
   2529 ****        22.7500  -7.2500   1.5000 Du        
   2530 ****        22.7500  -7.2500   1.7500 Du        
   2531 ****        22.7500  -7.2500   2.0000 Du        
   2532 ****        22.7500  -7.2500   2.2500 Du        
   2533 ****        22.7500  -7.2500   2.5000 Du        
   2534 ****        22.7500  -7.2500   2.7500 Du        
   2535 ****        22.7500  -7.2500   3.0000 Du        
   2536 ****        22.7500  -7.2500   6.7500 Du        
   2537 ****        22.7500  -7.2500   7.0000 Du        
   2538 ****        22.7500  -7.2500   7.2500 Du        
   2539 ****        22.7500  -7.2500   7.5000 Du        
   2540 ****        22.7500  -7.2500   7.7500 Du        
   2541 ****        22.7500  -7.2500   8.0000 Du        
   2542 ****        22.7500  -7.0000   1.2500 Du        
   2543 ****        22.7500  -7.0000   1.7500 Du        
   2544 ****        22.7500  -7.0000   2.0000 Du        
   2545 ****        22.7500  -7.0000   2.2500 Du        
   2546 ****        22.7500  -7.0000   2.5000 Du        
   2547 ****        22.7500  -7.0000   2.7500 Du        
   2548 ****        22.7500  -7.0000   7.0000 Du        
   2549 ****        22.7500  -7.0000   7.2500 Du        
   2550 ****        22.7500  -7.0000   7.5000 Du        
   2551 ****        22.7500  -7.0000   7.7500 Du        
   2552 ****        22.7500  -7.0000   8.0000 Du        
   2553 ****        22.7500  -7.0000   8.2500 Du        
   2554 ****        22.7500  -7.0000   8.5000 Du        
   2555 ****        22.7500  -7.0000   8.7500 Du        
   2556 ****        22.7500  -7.0000   9.0000 Du        
   2557 ****        22.7500  -7.0000   9.2500 Du        
   2558 ****        22.7500  -7.0000   9.5000 Du        
   2559 ****        22.7500  -7.0000   9.7500 Du        
   2560 ****        22.7500  -7.0000  10.0000 Du        
   2561 ****        22.7500  -6.7500   7.2500 Du        
   2562 ****        22.7500  -6.7500   7.5000 Du        
   2563 ****        22.7500  -6.7500   7.7500 Du        
   2564 ****        22.7500  -6.7500   8.0000 Du        
   2565 ****        22.7500  -6.7500   8.2500 Du        
   2566 ****        22.7500  -6.7500   8.5000 Du        
   2567 ****        22.7500  -6.7500   8.7500 Du        
   2568 ****        22.7500  -6.7500   9.0000 Du        
   2569 ****        22.7500  -6.7500   9.2500 Du        
   2570 ****        22.7500  -6.7500   9.5000 Du        
   2571 ****        22.7500  -6.5000   7.5000 Du        
   2572 ****        22.7500  -6.5000   7.7500 Du        
   2573 ****        22.7500  -6.5000   8.0000 Du        
   2574 ****        22.7500  -6.5000   8.2500 Du        
   2575 ****        22.7500  -6.5000   8.5000 Du        
   2576 ****        22.7500  -6.5000   8.7500 Du        
   2577 ****        22.7500  -6.5000   9.0000 Du        
   2578 ****        22.7500  -6.5000   9.2500 Du        
   2579 ****        22.7500  -6.5000   9.5000 Du        
   2580 ****        22.7500  -6.2500   7.7500 Du        
   2581 ****        22.7500  -6.2500   8.0000 Du        
   2582 ****        22.7500  -6.2500   8.2500 Du        
   2583 ****        22.7500  -6.2500   8.5000 Du        
   2584 ****        22.7500  -6.2500   8.7500 Du        
   2585 ****        22.7500  -6.2500   9.0000 Du        
   2586 ****        22.7500  -6.0000   8.0000 Du        
   2587 ****        22.7500  -6.0000   8.2500 Du        
   2588 ****        22.7500  -6.0000   8.5000 Du        
   2589 ****        22.7500  -6.0000   8.7500 Du        
   2590 ****        23.0000 -14.0000  -1.7500 Du        
   2591 ****        23.0000 -14.0000  -1.5000 Du        
   2592 ****        23.0000 -14.0000  -1.2500 Du        
   2593 ****        23.0000 -14.0000  -1.0000 Du        
   2594 ****        23.0000 -13.7500  -2.0000 Du        
   2595 ****        23.0000 -13.7500  -1.7500 Du        
   2596 ****        23.0000 -13.7500  -1.5000 Du        
   2597 ****        23.0000 -13.7500  -1.2500 Du        
   2598 ****        23.0000 -13.7500  -1.0000 Du        
   2599 ****        23.0000 -13.7500  -0.7500 Du        
   2600 ****        23.0000 -13.5000  -2.2500 Du        
   2601 ****        23.0000 -13.5000  -2.0000 Du        
   2602 ****        23.0000 -13.5000  -1.7500 Du        
   2603 ****        23.0000 -13.5000  -1.5000 Du        
   2604 ****        23.0000 -13.5000  -1.2500 Du        
   2605 ****        23.0000 -13.5000  -1.0000 Du        
   2606 ****        23.0000 -13.5000  -0.7500 Du        
   2607 ****        23.0000 -13.2500  -2.2500 Du        
   2608 ****        23.0000 -13.2500  -2.0000 Du        
   2609 ****        23.0000 -13.2500  -1.7500 Du        
   2610 ****        23.0000 -13.2500  -1.5000 Du        
   2611 ****        23.0000 -13.2500  -1.2500 Du        
   2612 ****        23.0000 -13.2500  -1.0000 Du        
   2613 ****        23.0000 -13.2500  -0.7500 Du        
   2614 ****        23.0000 -13.0000  -2.5000 Du        
   2615 ****        23.0000 -13.0000  -2.2500 Du        
   2616 ****        23.0000 -13.0000  -2.0000 Du        
   2617 ****        23.0000 -13.0000  -1.7500 Du        
   2618 ****        23.0000 -13.0000  -1.5000 Du        
   2619 ****        23.0000 -13.0000  -1.2500 Du        
   2620 ****        23.0000 -13.0000  -1.0000 Du        
   2621 ****        23.0000 -12.7500  -2.5000 Du        
   2622 ****        23.0000 -12.7500  -2.2500 Du        
   2623 ****        23.0000 -12.7500  -2.0000 Du        
   2624 ****        23.0000 -12.7500  -1.7500 Du        
   2625 ****        23.0000 -12.7500  -1.5000 Du        
   2626 ****        23.0000 -12.7500  -1.2500 Du        
   2627 ****        23.0000 -12.7500  -1.0000 Du        
   2628 ****        23.0000 -12.5000  -2.5000 Du        
   2629 ****        23.0000 -12.5000  -2.2500 Du        
   2630 ****        23.0000 -12.5000  -2.0000 Du        
   2631 ****        23.0000 -12.5000  -1.7500 Du        
   2632 ****        23.0000 -12.5000  -1.5000 Du        
   2633 ****        23.0000 -12.5000  -1.2500 Du        
   2634 ****        23.0000 -12.5000  -1.0000 Du        
   2635 ****        23.0000 -12.2500  -2.7500 Du        
   2636 ****        23.0000 -12.2500  -2.5000 Du        
   2637 ****        23.0000 -12.2500  -2.2500 Du        
   2638 ****        23.0000 -12.2500  -2.0000 Du        
   2639 ****        23.0000 -12.2500  -1.7500 Du        
   2640 ****        23.0000 -12.2500  -1.5000 Du        
   2641 ****        23.0000 -12.2500  -1.2500 Du        
   2642 ****        23.0000 -12.2500  -1.0000 Du        
   2643 ****        23.0000 -12.0000  -2.7500 Du        
   2644 ****        23.0000 -12.0000  -2.5000 Du        
   2645 ****        23.0000 -12.0000  -2.2500 Du        
   2646 ****        23.0000 -12.0000  -2.0000 Du        
   2647 ****        23.0000 -12.0000  -1.7500 Du        
   2648 ****        23.0000 -12.0000  -1.5000 Du        
   2649 ****        23.0000 -12.0000  -1.2500 Du        
   2650 ****        23.0000 -12.0000  -1.0000 Du        
   2651 ****        23.0000 -11.7500  -3.0000 Du        
   2652 ****        23.0000 -11.7500  -2.7500 Du        
   2653 ****        23.0000 -11.7500  -2.5000 Du        
   2654 ****        23.0000 -11.7500  -2.2500 Du        
   2655 ****        23.0000 -11.7500  -2.0000 Du        
   2656 ****        23.0000 -11.7500  -1.7500 Du        
   2657 ****        23.0000 -11.7500  -1.5000 Du        
   2658 ****        23.0000 -11.7500  -1.2500 Du        
   2659 ****        23.0000 -11.7500  -1.0000 Du        
   2660 ****        23.0000 -11.5000  -7.7500 Du        
   2661 ****        23.0000 -11.5000  -7.5000 Du        
   2662 ****        23.0000 -11.5000  -3.0000 Du        
   2663 ****        23.0000 -11.5000  -2.7500 Du        
   2664 ****        23.0000 -11.5000  -2.5000 Du        
   2665 ****        23.0000 -11.5000  -2.2500 Du        
   2666 ****        23.0000 -11.5000  -2.0000 Du        
   2667 ****        23.0000 -11.5000  -1.7500 Du        
   2668 ****        23.0000 -11.5000  -1.5000 Du        
   2669 ****        23.0000 -11.5000  -1.2500 Du        
   2670 ****        23.0000 -11.5000  -1.0000 Du        
   2671 ****        23.0000 -11.2500  -8.0000 Du        
   2672 ****        23.0000 -11.2500  -7.7500 Du        
   2673 ****        23.0000 -11.2500  -7.5000 Du        
   2674 ****        23.0000 -11.2500  -3.2500 Du        
   2675 ****        23.0000 -11.2500  -3.0000 Du        
   2676 ****        23.0000 -11.2500  -2.7500 Du        
   2677 ****        23.0000 -11.2500  -2.5000 Du        
   2678 ****        23.0000 -11.2500  -2.2500 Du        
   2679 ****        23.0000 -11.2500  -2.0000 Du        
   2680 ****        23.0000 -11.2500  -1.7500 Du        
   2681 ****        23.0000 -11.2500  -1.5000 Du        
   2682 ****        23.0000 -11.2500  -1.2500 Du        
   2683 ****        23.0000 -11.2500  -1.0000 Du        
   2684 ****        23.0000 -11.0000  -8.0000 Du        
   2685 ****        23.0000 -11.0000  -7.7500 Du        
   2686 ****        23.0000 -11.0000  -7.5000 Du        
   2687 ****        23.0000 -11.0000  -3.5000 Du        
   2688 ****        23.0000 -11.0000  -3.2500 Du        
   2689 ****        23.0000 -11.0000  -3.0000 Du        
   2690 ****        23.0000 -11.0000  -2.7500 Du        
   2691 ****        23.0000 -11.0000  -2.5000 Du        
   2692 ****        23.0000 -11.0000  -2.2500 Du        
   2693 ****        23.0000 -11.0000  -2.0000 Du        
   2694 ****        23.0000 -11.0000  -1.7500 Du        
   2695 ****        23.0000 -11.0000  -1.5000 Du        
   2696 ****        23.0000 -11.0000  -1.2500 Du        
   2697 ****        23.0000 -11.0000  -1.0000 Du        
   2698 ****        23.0000 -10.7500  -3.7500 Du        
   2699 ****        23.0000 -10.7500  -3.5000 Du        
   2700 ****        23.0000 -10.7500  -3.2500 Du        
   2701 ****        23.0000 -10.7500  -3.0000 Du        
   2702 ****        23.0000 -10.7500  -2.7500 Du        
   2703 ****        23.0000 -10.7500  -2.5000 Du        
   2704 ****        23.0000 -10.7500  -2.2500 Du        
   2705 ****        23.0000 -10.7500  -2.0000 Du        
   2706 ****        23.0000 -10.7500  -1.7500 Du        
   2707 ****        23.0000 -10.7500  -1.5000 Du        
   2708 ****        23.0000 -10.7500  -1.2500 Du        
   2709 ****        23.0000 -10.7500  -1.0000 Du        
   2710 ****        23.0000 -10.7500  -0.7500 Du        
   2711 ****        23.0000 -10.5000  -4.0000 Du        
   2712 ****        23.0000 -10.5000  -3.7500 Du        
   2713 ****        23.0000 -10.5000  -3.5000 Du        
   2714 ****        23.0000 -10.5000  -3.2500 Du        
   2715 ****        23.0000 -10.5000  -3.0000 Du        
   2716 ****        23.0000 -10.5000  -2.7500 Du        
   2717 ****        23.0000 -10.5000  -2.5000 Du        
   2718 ****        23.0000 -10.5000  -2.2500 Du        
   2719 ****        23.0000 -10.5000  -2.0000 Du        
   2720 ****        23.0000 -10.5000  -1.7500 Du        
   2721 ****        23.0000 -10.5000  -1.5000 Du        
   2722 ****        23.0000 -10.2500  -4.2500 Du        
   2723 ****        23.0000 -10.2500  -4.0000 Du        
   2724 ****        23.0000 -10.2500  -3.7500 Du        
   2725 ****        23.0000 -10.2500  -3.5000 Du        
   2726 ****        23.0000 -10.2500  -3.2500 Du        
   2727 ****        23.0000 -10.2500  -3.0000 Du        
   2728 ****        23.0000 -10.2500  -2.7500 Du        
   2729 ****        23.0000 -10.2500  -2.5000 Du        
   2730 ****        23.0000 -10.2500  -2.2500 Du        
   2731 ****        23.0000 -10.2500  -2.0000 Du        
   2732 ****        23.0000 -10.2500  -1.7500 Du        
   2733 ****        23.0000 -10.0000  -4.2500 Du        
   2734 ****        23.0000 -10.0000  -4.0000 Du        
   2735 ****        23.0000 -10.0000  -3.7500 Du        
   2736 ****        23.0000 -10.0000  -3.5000 Du        
   2737 ****        23.0000 -10.0000  -3.2500 Du        
   2738 ****        23.0000 -10.0000  -3.0000 Du        
   2739 ****        23.0000 -10.0000  -2.7500 Du        
   2740 ****        23.0000  -9.7500  -4.0000 Du        
   2741 ****        23.0000  -9.7500  -3.7500 Du        
   2742 ****        23.0000  -8.2500   5.2500 Du        
   2743 ****        23.0000  -8.2500   5.7500 Du        
   2744 ****        23.0000  -8.0000   1.7500 Du        
   2745 ****        23.0000  -8.0000   5.7500 Du        
   2746 ****        23.0000  -8.0000   6.0000 Du        
   2747 ****        23.0000  -7.7500   1.5000 Du        
   2748 ****        23.0000  -7.7500   1.7500 Du        
   2749 ****        23.0000  -7.7500   2.0000 Du        
   2750 ****        23.0000  -7.7500   2.2500 Du        
   2751 ****        23.0000  -7.7500   6.5000 Du        
   2752 ****        23.0000  -7.7500   6.7500 Du        
   2753 ****        23.0000  -7.5000   1.2500 Du        
   2754 ****        23.0000  -7.5000   1.5000 Du        
   2755 ****        23.0000  -7.5000   1.7500 Du        
   2756 ****        23.0000  -7.5000   2.0000 Du        
   2757 ****        23.0000  -7.5000   2.2500 Du        
   2758 ****        23.0000  -7.5000   2.5000 Du        
   2759 ****        23.0000  -7.5000   2.7500 Du        
   2760 ****        23.0000  -7.5000   3.0000 Du        
   2761 ****        23.0000  -7.5000   6.5000 Du        
   2762 ****        23.0000  -7.5000   7.0000 Du        
   2763 ****        23.0000  -7.5000   7.2500 Du        
   2764 ****        23.0000  -7.2500   1.2500 Du        
   2765 ****        23.0000  -7.2500   1.5000 Du        
   2766 ****        23.0000  -7.2500   1.7500 Du        
   2767 ****        23.0000  -7.2500   2.0000 Du        
   2768 ****        23.0000  -7.2500   2.2500 Du        
   2769 ****        23.0000  -7.2500   2.5000 Du        
   2770 ****        23.0000  -7.2500   2.7500 Du        
   2771 ****        23.0000  -7.2500   3.0000 Du        
   2772 ****        23.0000  -7.2500   6.7500 Du        
   2773 ****        23.0000  -7.2500   7.0000 Du        
   2774 ****        23.0000  -7.2500   7.2500 Du        
   2775 ****        23.0000  -7.2500   7.5000 Du        
   2776 ****        23.0000  -7.2500   7.7500 Du        
   2777 ****        23.0000  -7.2500   8.0000 Du        
   2778 ****        23.0000  -7.0000   2.0000 Du        
   2779 ****        23.0000  -7.0000   2.2500 Du        
   2780 ****        23.0000  -7.0000   2.5000 Du        
   2781 ****        23.0000  -7.0000   2.7500 Du        
   2782 ****        23.0000  -7.0000   6.7500 Du        
   2783 ****        23.0000  -7.0000   7.0000 Du        
   2784 ****        23.0000  -7.0000   7.2500 Du        
   2785 ****        23.0000  -7.0000   7.5000 Du        
   2786 ****        23.0000  -7.0000   7.7500 Du        
   2787 ****        23.0000  -7.0000   8.0000 Du        
   2788 ****        23.0000  -7.0000   8.2500 Du        
   2789 ****        23.0000  -7.0000   8.5000 Du        
   2790 ****        23.0000  -7.0000   8.7500 Du        
   2791 ****        23.0000  -7.0000   9.0000 Du        
   2792 ****        23.0000  -7.0000   9.2500 Du        
   2793 ****        23.0000  -7.0000   9.5000 Du        
   2794 ****        23.0000  -7.0000   9.7500 Du        
   2795 ****        23.0000  -7.0000  10.0000 Du        
   2796 ****        23.0000  -7.0000  10.2500 Du        
   2797 ****        23.0000  -6.7500   7.2500 Du        
   2798 ****        23.0000  -6.7500   7.5000 Du        
   2799 ****        23.0000  -6.7500   7.7500 Du        
   2800 ****        23.0000  -6.7500   8.0000 Du        
   2801 ****        23.0000  -6.7500   8.2500 Du        
   2802 ****        23.0000  -6.7500   8.5000 Du        
   2803 ****        23.0000  -6.7500   8.7500 Du        
   2804 ****        23.0000  -6.7500   9.0000 Du        
   2805 ****        23.0000  -6.7500   9.2500 Du        
   2806 ****        23.0000  -6.7500   9.5000 Du        
   2807 ****        23.0000  -6.7500   9.7500 Du        
   2808 ****        23.0000  -6.7500  10.0000 Du        
   2809 ****        23.0000  -6.5000   7.5000 Du        
   2810 ****        23.0000  -6.5000   7.7500 Du        
   2811 ****        23.0000  -6.5000   8.0000 Du        
   2812 ****        23.0000  -6.5000   8.2500 Du        
   2813 ****        23.0000  -6.5000   8.5000 Du        
   2814 ****        23.0000  -6.5000   8.7500 Du        
   2815 ****        23.0000  -6.5000   9.0000 Du        
   2816 ****        23.0000  -6.5000   9.2500 Du        
   2817 ****        23.0000  -6.5000   9.5000 Du        
   2818 ****        23.0000  -6.2500   7.7500 Du        
   2819 ****        23.0000  -6.2500   8.0000 Du        
   2820 ****        23.0000  -6.2500   8.2500 Du        
   2821 ****        23.0000  -6.2500   8.5000 Du        
   2822 ****        23.0000  -6.2500   8.7500 Du        
   2823 ****        23.0000  -6.2500   9.0000 Du        
   2824 ****        23.0000  -6.0000   8.0000 Du        
   2825 ****        23.0000  -6.0000   8.2500 Du        
   2826 ****        23.0000  -6.0000   8.5000 Du        
   2827 ****        23.0000  -6.0000   8.7500 Du        
   2828 ****        23.2500 -14.0000  -1.5000 Du        
   2829 ****        23.2500 -14.0000  -1.2500 Du        
   2830 ****        23.2500 -14.0000  -1.0000 Du        
   2831 ****        23.2500 -14.0000  -0.7500 Du        
   2832 ****        23.2500 -13.7500  -1.7500 Du        
   2833 ****        23.2500 -13.7500  -1.5000 Du        
   2834 ****        23.2500 -13.7500  -1.2500 Du        
   2835 ****        23.2500 -13.7500  -1.0000 Du        
   2836 ****        23.2500 -13.7500  -0.7500 Du        
   2837 ****        23.2500 -13.7500  -0.5000 Du        
   2838 ****        23.2500 -13.5000  -2.0000 Du        
   2839 ****        23.2500 -13.5000  -1.7500 Du        
   2840 ****        23.2500 -13.5000  -1.5000 Du        
   2841 ****        23.2500 -13.5000  -1.2500 Du        
   2842 ****        23.2500 -13.5000  -1.0000 Du        
   2843 ****        23.2500 -13.5000  -0.7500 Du        
   2844 ****        23.2500 -13.5000  -0.5000 Du        
   2845 ****        23.2500 -13.2500  -2.2500 Du        
   2846 ****        23.2500 -13.2500  -2.0000 Du        
   2847 ****        23.2500 -13.2500  -1.7500 Du        
   2848 ****        23.2500 -13.2500  -1.5000 Du        
   2849 ****        23.2500 -13.2500  -1.2500 Du        
   2850 ****        23.2500 -13.2500  -1.0000 Du        
   2851 ****        23.2500 -13.2500  -0.7500 Du        
   2852 ****        23.2500 -13.2500  -0.5000 Du        
   2853 ****        23.2500 -13.0000  -2.5000 Du        
   2854 ****        23.2500 -13.0000  -2.2500 Du        
   2855 ****        23.2500 -13.0000  -2.0000 Du        
   2856 ****        23.2500 -13.0000  -1.7500 Du        
   2857 ****        23.2500 -13.0000  -1.5000 Du        
   2858 ****        23.2500 -13.0000  -1.2500 Du        
   2859 ****        23.2500 -13.0000  -1.0000 Du        
   2860 ****        23.2500 -13.0000  -0.7500 Du        
   2861 ****        23.2500 -12.7500  -2.5000 Du        
   2862 ****        23.2500 -12.7500  -2.2500 Du        
   2863 ****        23.2500 -12.7500  -2.0000 Du        
   2864 ****        23.2500 -12.7500  -1.7500 Du        
   2865 ****        23.2500 -12.7500  -1.5000 Du        
   2866 ****        23.2500 -12.7500  -1.2500 Du        
   2867 ****        23.2500 -12.7500  -1.0000 Du        
   2868 ****        23.2500 -12.7500  -0.7500 Du        
   2869 ****        23.2500 -12.5000  -2.5000 Du        
   2870 ****        23.2500 -12.5000  -2.2500 Du        
   2871 ****        23.2500 -12.5000  -2.0000 Du        
   2872 ****        23.2500 -12.5000  -1.7500 Du        
   2873 ****        23.2500 -12.5000  -1.5000 Du        
   2874 ****        23.2500 -12.5000  -1.2500 Du        
   2875 ****        23.2500 -12.5000  -1.0000 Du        
   2876 ****        23.2500 -12.5000  -0.7500 Du        
   2877 ****        23.2500 -12.2500  -2.7500 Du        
   2878 ****        23.2500 -12.2500  -2.5000 Du        
   2879 ****        23.2500 -12.2500  -2.2500 Du        
   2880 ****        23.2500 -12.2500  -2.0000 Du        
   2881 ****        23.2500 -12.2500  -1.7500 Du        
   2882 ****        23.2500 -12.2500  -1.5000 Du        
   2883 ****        23.2500 -12.2500  -1.2500 Du        
   2884 ****        23.2500 -12.2500  -1.0000 Du        
   2885 ****        23.2500 -12.2500  -0.7500 Du        
   2886 ****        23.2500 -12.0000  -3.0000 Du        
   2887 ****        23.2500 -12.0000  -2.7500 Du        
   2888 ****        23.2500 -12.0000  -2.5000 Du        
   2889 ****        23.2500 -12.0000  -2.2500 Du        
   2890 ****        23.2500 -12.0000  -2.0000 Du        
   2891 ****        23.2500 -12.0000  -1.7500 Du        
   2892 ****        23.2500 -12.0000  -1.5000 Du        
   2893 ****        23.2500 -12.0000  -1.2500 Du        
   2894 ****        23.2500 -12.0000  -1.0000 Du        
   2895 ****        23.2500 -12.0000  -0.7500 Du        
   2896 ****        23.2500 -11.7500  -7.5000 Du        
   2897 ****        23.2500 -11.7500  -7.2500 Du        
   2898 ****        23.2500 -11.7500  -3.0000 Du        
   2899 ****        23.2500 -11.7500  -2.7500 Du        
   2900 ****        23.2500 -11.7500  -2.5000 Du        
   2901 ****        23.2500 -11.7500  -2.2500 Du        
   2902 ****        23.2500 -11.7500  -2.0000 Du        
   2903 ****        23.2500 -11.7500  -1.7500 Du        
   2904 ****        23.2500 -11.7500  -1.5000 Du        
   2905 ****        23.2500 -11.7500  -1.2500 Du        
   2906 ****        23.2500 -11.7500  -1.0000 Du        
   2907 ****        23.2500 -11.7500  -0.7500 Du        
   2908 ****        23.2500 -11.5000  -7.7500 Du        
   2909 ****        23.2500 -11.5000  -7.5000 Du        
   2910 ****        23.2500 -11.5000  -7.2500 Du        
   2911 ****        23.2500 -11.5000  -3.2500 Du        
   2912 ****        23.2500 -11.5000  -3.0000 Du        
   2913 ****        23.2500 -11.5000  -2.7500 Du        
   2914 ****        23.2500 -11.5000  -2.5000 Du        
   2915 ****        23.2500 -11.5000  -2.2500 Du        
   2916 ****        23.2500 -11.5000  -2.0000 Du        
   2917 ****        23.2500 -11.5000  -1.7500 Du        
   2918 ****        23.2500 -11.5000  -1.5000 Du        
   2919 ****        23.2500 -11.5000  -1.2500 Du        
   2920 ****        23.2500 -11.5000  -1.0000 Du        
   2921 ****        23.2500 -11.2500  -8.0000 Du        
   2922 ****        23.2500 -11.2500  -7.7500 Du        
   2923 ****        23.2500 -11.2500  -7.5000 Du        
   2924 ****        23.2500 -11.2500  -7.2500 Du        
   2925 ****        23.2500 -11.2500  -3.2500 Du        
   2926 ****        23.2500 -11.2500  -3.0000 Du        
   2927 ****        23.2500 -11.2500  -2.7500 Du        
   2928 ****        23.2500 -11.2500  -2.5000 Du        
   2929 ****        23.2500 -11.2500  -2.2500 Du        
   2930 ****        23.2500 -11.2500  -2.0000 Du        
   2931 ****        23.2500 -11.2500  -1.7500 Du        
   2932 ****        23.2500 -11.2500  -1.5000 Du        
   2933 ****        23.2500 -11.2500  -1.2500 Du        
   2934 ****        23.2500 -11.2500  -1.0000 Du        
   2935 ****        23.2500 -11.2500  -0.7500 Du        
   2936 ****        23.2500 -11.0000  -3.5000 Du        
   2937 ****        23.2500 -11.0000  -3.2500 Du        
   2938 ****        23.2500 -11.0000  -3.0000 Du        
   2939 ****        23.2500 -11.0000  -2.7500 Du        
   2940 ****        23.2500 -11.0000  -2.5000 Du        
   2941 ****        23.2500 -11.0000  -2.2500 Du        
   2942 ****        23.2500 -11.0000  -2.0000 Du        
   2943 ****        23.2500 -11.0000  -1.7500 Du        
   2944 ****        23.2500 -11.0000  -1.5000 Du        
   2945 ****        23.2500 -11.0000  -1.2500 Du        
   2946 ****        23.2500 -11.0000  -1.0000 Du        
   2947 ****        23.2500 -11.0000  -0.7500 Du        
   2948 ****        23.2500 -10.7500  -4.0000 Du        
   2949 ****        23.2500 -10.7500  -3.7500 Du        
   2950 ****        23.2500 -10.7500  -3.5000 Du        
   2951 ****        23.2500 -10.7500  -3.2500 Du        
   2952 ****        23.2500 -10.7500  -3.0000 Du        
   2953 ****        23.2500 -10.7500  -2.7500 Du        
   2954 ****        23.2500 -10.7500  -2.5000 Du        
   2955 ****        23.2500 -10.7500  -2.2500 Du        
   2956 ****        23.2500 -10.7500  -2.0000 Du        
   2957 ****        23.2500 -10.7500  -1.7500 Du        
   2958 ****        23.2500 -10.7500  -1.5000 Du        
   2959 ****        23.2500 -10.7500  -1.2500 Du        
   2960 ****        23.2500 -10.7500  -1.0000 Du        
   2961 ****        23.2500 -10.7500  -0.7500 Du        
   2962 ****        23.2500 -10.5000  -4.2500 Du        
   2963 ****        23.2500 -10.5000  -4.0000 Du        
   2964 ****        23.2500 -10.5000  -3.7500 Du        
   2965 ****        23.2500 -10.5000  -3.5000 Du        
   2966 ****        23.2500 -10.5000  -3.2500 Du        
   2967 ****        23.2500 -10.5000  -3.0000 Du        
   2968 ****        23.2500 -10.5000  -2.7500 Du        
   2969 ****        23.2500 -10.5000  -2.5000 Du        
   2970 ****        23.2500 -10.5000  -2.2500 Du        
   2971 ****        23.2500 -10.5000  -2.0000 Du        
   2972 ****        23.2500 -10.5000  -1.7500 Du        
   2973 ****        23.2500 -10.5000  -1.5000 Du        
   2974 ****        23.2500 -10.5000  -1.2500 Du        
   2975 ****        23.2500 -10.2500  -4.5000 Du        
   2976 ****        23.2500 -10.2500  -4.2500 Du        
   2977 ****        23.2500 -10.2500  -4.0000 Du        
   2978 ****        23.2500 -10.2500  -3.7500 Du        
   2979 ****        23.2500 -10.2500  -3.5000 Du        
   2980 ****        23.2500 -10.2500  -3.2500 Du        
   2981 ****        23.2500 -10.2500  -3.0000 Du        
   2982 ****        23.2500 -10.2500  -2.7500 Du        
   2983 ****        23.2500 -10.0000  -4.2500 Du        
   2984 ****        23.2500 -10.0000  -4.0000 Du        
   2985 ****        23.2500 -10.0000  -3.7500 Du        
   2986 ****        23.2500  -8.7500   5.7500 Du        
   2987 ****        23.2500  -8.7500   6.0000 Du        
   2988 ****        23.2500  -8.2500   5.2500 Du        
   2989 ****        23.2500  -8.2500   5.5000 Du        
   2990 ****        23.2500  -8.2500   5.7500 Du        
   2991 ****        23.2500  -8.0000   3.0000 Du        
   2992 ****        23.2500  -8.0000   5.2500 Du        
   2993 ****        23.2500  -8.0000   5.7500 Du        
   2994 ****        23.2500  -8.0000   6.0000 Du        
   2995 ****        23.2500  -7.7500   2.2500 Du        
   2996 ****        23.2500  -7.7500   2.7500 Du        
   2997 ****        23.2500  -7.7500   3.0000 Du        
   2998 ****        23.2500  -7.7500   6.5000 Du        
   2999 ****        23.2500  -7.7500   6.7500 Du        
   3000 ****        23.2500  -7.5000   2.0000 Du        
   3001 ****        23.2500  -7.5000   2.2500 Du        
   3002 ****        23.2500  -7.5000   2.5000 Du        
   3003 ****        23.2500  -7.5000   2.7500 Du        
   3004 ****        23.2500  -7.5000   3.0000 Du        
   3005 ****        23.2500  -7.2500   2.0000 Du        
   3006 ****        23.2500  -7.2500   2.2500 Du        
   3007 ****        23.2500  -7.2500   2.5000 Du        
   3008 ****        23.2500  -7.2500   2.7500 Du        
   3009 ****        23.2500  -7.2500   3.0000 Du        
   3010 ****        23.2500  -7.2500   6.5000 Du        
   3011 ****        23.2500  -7.2500   6.7500 Du        
   3012 ****        23.2500  -7.2500   7.0000 Du        
   3013 ****        23.2500  -7.2500   7.2500 Du        
   3014 ****        23.2500  -7.2500   7.5000 Du        
   3015 ****        23.2500  -7.2500   7.7500 Du        
   3016 ****        23.2500  -7.0000   2.2500 Du        
   3017 ****        23.2500  -7.0000   2.5000 Du        
   3018 ****        23.2500  -7.0000   2.7500 Du        
   3019 ****        23.2500  -7.0000   6.7500 Du        
   3020 ****        23.2500  -7.0000   7.0000 Du        
   3021 ****        23.2500  -7.0000   7.2500 Du        
   3022 ****        23.2500  -7.0000   7.5000 Du        
   3023 ****        23.2500  -7.0000   7.7500 Du        
   3024 ****        23.2500  -7.0000   8.0000 Du        
   3025 ****        23.2500  -7.0000   8.2500 Du        
   3026 ****        23.2500  -7.0000   8.5000 Du        
   3027 ****        23.2500  -7.0000   8.7500 Du        
   3028 ****        23.2500  -7.0000   9.0000 Du        
   3029 ****        23.2500  -7.0000   9.2500 Du        
   3030 ****        23.2500  -7.0000   9.5000 Du        
   3031 ****        23.2500  -7.0000   9.7500 Du        
   3032 ****        23.2500  -7.0000  10.0000 Du        
   3033 ****        23.2500  -7.0000  10.2500 Du        
   3034 ****        23.2500  -7.0000  10.5000 Du        
   3035 ****        23.2500  -6.7500   7.5000 Du        
   3036 ****        23.2500  -6.7500   7.7500 Du        
   3037 ****        23.2500  -6.7500   8.0000 Du        
   3038 ****        23.2500  -6.7500   8.2500 Du        
   3039 ****        23.2500  -6.7500   8.5000 Du        
   3040 ****        23.2500  -6.7500   8.7500 Du        
   3041 ****        23.2500  -6.7500   9.0000 Du        
   3042 ****        23.2500  -6.7500   9.2500 Du        
   3043 ****        23.2500  -6.7500   9.5000 Du        
   3044 ****        23.2500  -6.7500   9.7500 Du        
   3045 ****        23.2500  -6.7500  10.0000 Du        
   3046 ****        23.2500  -6.5000   8.2500 Du        
   3047 ****        23.2500  -6.5000   8.5000 Du        
   3048 ****        23.2500  -6.5000   8.7500 Du        
   3049 ****        23.2500  -6.5000   9.0000 Du        
   3050 ****        23.2500  -6.5000   9.2500 Du        
   3051 ****        23.2500  -6.5000   9.5000 Du        
   3052 ****        23.2500  -6.2500   8.5000 Du        
   3053 ****        23.2500  -6.2500   8.7500 Du        
   3054 ****        23.2500  -6.2500   9.0000 Du        
   3055 ****        23.5000 -14.0000  -1.2500 Du        
   3056 ****        23.5000 -14.0000  -1.0000 Du        
   3057 ****        23.5000 -14.0000  -0.7500 Du        
   3058 ****        23.5000 -13.7500  -1.5000 Du        
   3059 ****        23.5000 -13.7500  -1.2500 Du        
   3060 ****        23.5000 -13.7500  -1.0000 Du        
   3061 ****        23.5000 -13.7500  -0.7500 Du        
   3062 ****        23.5000 -13.7500  -0.5000 Du        
   3063 ****        23.5000 -13.7500  -0.2500 Du        
   3064 ****        23.5000 -13.5000  -1.7500 Du        
   3065 ****        23.5000 -13.5000  -1.5000 Du        
   3066 ****        23.5000 -13.5000  -1.2500 Du        
   3067 ****        23.5000 -13.5000  -1.0000 Du        
   3068 ****        23.5000 -13.5000  -0.7500 Du        
   3069 ****        23.5000 -13.5000  -0.5000 Du        
   3070 ****        23.5000 -13.5000  -0.2500 Du        
   3071 ****        23.5000 -13.5000   0.0000 Du        
   3072 ****        23.5000 -13.2500  -2.0000 Du        
   3073 ****        23.5000 -13.2500  -1.7500 Du        
   3074 ****        23.5000 -13.2500  -1.5000 Du        
   3075 ****        23.5000 -13.2500  -1.2500 Du        
   3076 ****        23.5000 -13.2500  -1.0000 Du        
   3077 ****        23.5000 -13.2500  -0.7500 Du        
   3078 ****        23.5000 -13.2500  -0.5000 Du        
   3079 ****        23.5000 -13.2500  -0.2500 Du        
   3080 ****        23.5000 -13.2500   0.0000 Du        
   3081 ****        23.5000 -13.0000  -2.2500 Du        
   3082 ****        23.5000 -13.0000  -2.0000 Du        
   3083 ****        23.5000 -13.0000  -1.7500 Du        
   3084 ****        23.5000 -13.0000  -1.5000 Du        
   3085 ****        23.5000 -13.0000  -1.2500 Du        
   3086 ****        23.5000 -13.0000  -1.0000 Du        
   3087 ****        23.5000 -13.0000  -0.7500 Du        
   3088 ****        23.5000 -13.0000  -0.5000 Du        
   3089 ****        23.5000 -13.0000  -0.2500 Du        
   3090 ****        23.5000 -12.7500  -2.5000 Du        
   3091 ****        23.5000 -12.7500  -2.2500 Du        
   3092 ****        23.5000 -12.7500  -2.0000 Du        
   3093 ****        23.5000 -12.7500  -1.7500 Du        
   3094 ****        23.5000 -12.7500  -1.5000 Du        
   3095 ****        23.5000 -12.7500  -1.2500 Du        
   3096 ****        23.5000 -12.7500  -1.0000 Du        
   3097 ****        23.5000 -12.7500  -0.7500 Du        
   3098 ****        23.5000 -12.7500  -0.5000 Du        
   3099 ****        23.5000 -12.5000  -2.5000 Du        
   3100 ****        23.5000 -12.5000  -2.2500 Du        
   3101 ****        23.5000 -12.5000  -2.0000 Du        
   3102 ****        23.5000 -12.5000  -1.7500 Du        
   3103 ****        23.5000 -12.5000  -1.5000 Du        
   3104 ****        23.5000 -12.5000  -1.2500 Du        
   3105 ****        23.5000 -12.5000  -1.0000 Du        
   3106 ****        23.5000 -12.5000  -0.7500 Du        
   3107 ****        23.5000 -12.5000  -0.5000 Du        
   3108 ****        23.5000 -12.2500  -2.7500 Du        
   3109 ****        23.5000 -12.2500  -2.5000 Du        
   3110 ****        23.5000 -12.2500  -2.2500 Du        
   3111 ****        23.5000 -12.2500  -2.0000 Du        
   3112 ****        23.5000 -12.2500  -1.7500 Du        
   3113 ****        23.5000 -12.2500  -1.5000 Du        
   3114 ****        23.5000 -12.2500  -1.2500 Du        
   3115 ****        23.5000 -12.2500  -1.0000 Du        
   3116 ****        23.5000 -12.2500  -0.7500 Du        
   3117 ****        23.5000 -12.2500  -0.5000 Du        
   3118 ****        23.5000 -12.0000  -7.5000 Du        
   3119 ****        23.5000 -12.0000  -7.2500 Du        
   3120 ****        23.5000 -12.0000  -2.7500 Du        
   3121 ****        23.5000 -12.0000  -2.5000 Du        
   3122 ****        23.5000 -12.0000  -2.2500 Du        
   3123 ****        23.5000 -12.0000  -2.0000 Du        
   3124 ****        23.5000 -12.0000  -1.7500 Du        
   3125 ****        23.5000 -12.0000  -1.5000 Du        
   3126 ****        23.5000 -12.0000  -1.2500 Du        
   3127 ****        23.5000 -12.0000  -1.0000 Du        
   3128 ****        23.5000 -12.0000  -0.7500 Du        
   3129 ****        23.5000 -12.0000  -0.5000 Du        
   3130 ****        23.5000 -11.7500  -7.5000 Du        
   3131 ****        23.5000 -11.7500  -7.2500 Du        
   3132 ****        23.5000 -11.7500  -7.0000 Du        
   3133 ****        23.5000 -11.7500  -3.0000 Du        
   3134 ****        23.5000 -11.7500  -2.7500 Du        
   3135 ****        23.5000 -11.7500  -2.5000 Du        
   3136 ****        23.5000 -11.7500  -2.2500 Du        
   3137 ****        23.5000 -11.7500  -2.0000 Du        
   3138 ****        23.5000 -11.7500  -1.7500 Du        
   3139 ****        23.5000 -11.7500  -1.5000 Du        
   3140 ****        23.5000 -11.7500  -1.2500 Du        
   3141 ****        23.5000 -11.7500  -1.0000 Du        
   3142 ****        23.5000 -11.7500  -0.7500 Du        
   3143 ****        23.5000 -11.7500  -0.5000 Du        
   3144 ****        23.5000 -11.5000  -7.5000 Du        
   3145 ****        23.5000 -11.5000  -7.2500 Du        
   3146 ****        23.5000 -11.5000  -2.5000 Du        
   3147 ****        23.5000 -11.5000  -2.2500 Du        
   3148 ****        23.5000 -11.5000  -2.0000 Du        
   3149 ****        23.5000 -11.5000  -1.7500 Du        
   3150 ****        23.5000 -11.5000  -1.5000 Du        
   3151 ****        23.5000 -11.5000  -1.2500 Du        
   3152 ****        23.5000 -11.5000  -1.0000 Du        
   3153 ****        23.5000 -11.5000  -0.7500 Du        
   3154 ****        23.5000 -11.2500  -2.7500 Du        
   3155 ****        23.5000 -11.2500  -2.5000 Du        
   3156 ****        23.5000 -11.2500  -2.2500 Du        
   3157 ****        23.5000 -11.2500  -2.0000 Du        
   3158 ****        23.5000 -11.2500  -1.7500 Du        
   3159 ****        23.5000 -11.2500  -1.5000 Du        
   3160 ****        23.5000 -11.2500  -1.2500 Du        
   3161 ****        23.5000 -11.2500  -1.0000 Du        
   3162 ****        23.5000 -11.2500  -0.7500 Du        
   3163 ****        23.5000 -11.2500  -0.5000 Du        
   3164 ****        23.5000 -11.0000  -2.7500 Du        
   3165 ****        23.5000 -11.0000  -2.5000 Du        
   3166 ****        23.5000 -11.0000  -2.2500 Du        
   3167 ****        23.5000 -11.0000  -2.0000 Du        
   3168 ****        23.5000 -11.0000  -1.7500 Du        
   3169 ****        23.5000 -11.0000  -1.5000 Du        
   3170 ****        23.5000 -11.0000  -1.2500 Du        
   3171 ****        23.5000 -11.0000  -1.0000 Du        
   3172 ****        23.5000 -11.0000  -0.7500 Du        
   3173 ****        23.5000 -11.0000  -0.5000 Du        
   3174 ****        23.5000 -10.7500  -2.7500 Du        
   3175 ****        23.5000 -10.7500  -2.5000 Du        
   3176 ****        23.5000 -10.7500  -2.2500 Du        
   3177 ****        23.5000 -10.7500  -2.0000 Du        
   3178 ****        23.5000 -10.7500  -1.7500 Du        
   3179 ****        23.5000 -10.7500  -1.5000 Du        
   3180 ****        23.5000 -10.7500  -1.2500 Du        
   3181 ****        23.5000 -10.7500  -1.0000 Du        
   3182 ****        23.5000 -10.7500  -0.7500 Du        
   3183 ****        23.5000 -10.7500  -0.5000 Du        
   3184 ****        23.5000 -10.5000  -1.2500 Du        
   3185 ****        23.5000 -10.5000  -1.0000 Du        
   3186 ****        23.5000 -10.5000  -0.7500 Du        
   3187 ****        23.5000  -8.7500   5.2500 Du        
   3188 ****        23.5000  -8.7500   5.5000 Du        
   3189 ****        23.5000  -8.7500   5.7500 Du        
   3190 ****        23.5000  -8.7500   6.0000 Du        
   3191 ****        23.5000  -8.5000   5.5000 Du        
   3192 ****        23.5000  -8.5000   5.7500 Du        
   3193 ****        23.5000  -8.2500   2.7500 Du        
   3194 ****        23.5000  -8.2500   3.0000 Du        
   3195 ****        23.5000  -8.2500   5.5000 Du        
   3196 ****        23.5000  -8.2500   5.7500 Du        
   3197 ****        23.5000  -8.2500   6.0000 Du        
   3198 ****        23.5000  -8.0000   2.2500 Du        
   3199 ****        23.5000  -8.0000   2.5000 Du        
   3200 ****        23.5000  -8.0000   2.7500 Du        
   3201 ****        23.5000  -8.0000   3.0000 Du        
   3202 ****        23.5000  -8.0000   3.2500 Du        
   3203 ****        23.5000  -8.0000   3.7500 Du        
   3204 ****        23.5000  -8.0000   5.2500 Du        
   3205 ****        23.5000  -8.0000   5.5000 Du        
   3206 ****        23.5000  -8.0000   5.7500 Du        
   3207 ****        23.5000  -8.0000   6.0000 Du        
   3208 ****        23.5000  -7.7500   2.2500 Du        
   3209 ****        23.5000  -7.7500   2.5000 Du        
   3210 ****        23.5000  -7.7500   2.7500 Du        
   3211 ****        23.5000  -7.7500   3.0000 Du        
   3212 ****        23.5000  -7.7500   3.2500 Du        
   3213 ****        23.5000  -7.5000   2.7500 Du        
   3214 ****        23.5000  -7.5000   3.0000 Du        
   3215 ****        23.5000  -7.2500   2.5000 Du        
   3216 ****        23.5000  -7.2500   2.7500 Du        
   3217 ****        23.5000  -7.2500   3.0000 Du        
   3218 ****        23.5000  -7.2500  10.0000 Du        
   3219 ****        23.5000  -7.2500  10.2500 Du        
   3220 ****        23.5000  -7.2500  10.5000 Du        
   3221 ****        23.5000  -7.0000   9.2500 Du        
   3222 ****        23.5000  -7.0000   9.5000 Du        
   3223 ****        23.5000  -7.0000   9.7500 Du        
   3224 ****        23.5000  -7.0000  10.0000 Du        
   3225 ****        23.5000  -7.0000  10.2500 Du        
   3226 ****        23.5000  -7.0000  10.5000 Du        
   3227 ****        23.5000  -6.7500   9.0000 Du        
   3228 ****        23.5000  -6.7500   9.2500 Du        
   3229 ****        23.5000  -6.7500   9.5000 Du        
   3230 ****        23.5000  -6.7500   9.7500 Du        
   3231 ****        23.5000  -6.7500  10.0000 Du        
   3232 ****        23.5000  -6.7500  10.2500 Du        
   3233 ****        23.5000  -6.7500  10.5000 Du        
   3234 ****        23.5000  -6.5000   9.0000 Du        
   3235 ****        23.5000  -6.5000   9.2500 Du        
   3236 ****        23.5000  -6.5000   9.5000 Du        
   3237 ****        23.5000  -6.5000   9.7500 Du        
   3238 ****        23.7500 -14.0000  -1.0000 Du        
   3239 ****        23.7500 -14.0000  -0.7500 Du        
   3240 ****        23.7500 -14.0000  -0.5000 Du        
   3241 ****        23.7500 -14.0000  -0.2500 Du        
   3242 ****        23.7500 -13.7500  -1.2500 Du        
   3243 ****        23.7500 -13.7500  -1.0000 Du        
   3244 ****        23.7500 -13.7500  -0.7500 Du        
   3245 ****        23.7500 -13.7500  -0.5000 Du        
   3246 ****        23.7500 -13.7500  -0.2500 Du        
   3247 ****        23.7500 -13.7500   0.0000 Du        
   3248 ****        23.7500 -13.5000  -1.5000 Du        
   3249 ****        23.7500 -13.5000  -1.2500 Du        
   3250 ****        23.7500 -13.5000  -1.0000 Du        
   3251 ****        23.7500 -13.5000  -0.7500 Du        
   3252 ****        23.7500 -13.5000  -0.5000 Du        
   3253 ****        23.7500 -13.5000  -0.2500 Du        
   3254 ****        23.7500 -13.5000   0.0000 Du        
   3255 ****        23.7500 -13.5000   0.2500 Du        
   3256 ****        23.7500 -13.2500  -1.7500 Du        
   3257 ****        23.7500 -13.2500  -1.5000 Du        
   3258 ****        23.7500 -13.2500  -1.2500 Du        
   3259 ****        23.7500 -13.2500  -1.0000 Du        
   3260 ****        23.7500 -13.2500  -0.7500 Du        
   3261 ****        23.7500 -13.2500  -0.5000 Du        
   3262 ****        23.7500 -13.2500  -0.2500 Du        
   3263 ****        23.7500 -13.2500   0.0000 Du        
   3264 ****        23.7500 -13.2500   0.2500 Du        
   3265 ****        23.7500 -13.0000  -2.0000 Du        
   3266 ****        23.7500 -13.0000  -1.7500 Du        
   3267 ****        23.7500 -13.0000  -1.5000 Du        
   3268 ****        23.7500 -13.0000  -1.2500 Du        
   3269 ****        23.7500 -13.0000  -1.0000 Du        
   3270 ****        23.7500 -13.0000  -0.7500 Du        
   3271 ****        23.7500 -13.0000  -0.5000 Du        
   3272 ****        23.7500 -13.0000  -0.2500 Du        
   3273 ****        23.7500 -13.0000   0.0000 Du        
   3274 ****        23.7500 -13.0000   0.2500 Du        
   3275 ****        23.7500 -12.7500  -2.2500 Du        
   3276 ****        23.7500 -12.7500  -2.0000 Du        
   3277 ****        23.7500 -12.7500  -1.7500 Du        
   3278 ****        23.7500 -12.7500  -1.5000 Du        
   3279 ****        23.7500 -12.7500  -1.2500 Du        
   3280 ****        23.7500 -12.7500  -1.0000 Du        
   3281 ****        23.7500 -12.7500  -0.7500 Du        
   3282 ****        23.7500 -12.7500  -0.5000 Du        
   3283 ****        23.7500 -12.7500  -0.2500 Du        
   3284 ****        23.7500 -12.7500   0.0000 Du        
   3285 ****        23.7500 -12.7500   0.2500 Du        
   3286 ****        23.7500 -12.5000  -2.2500 Du        
   3287 ****        23.7500 -12.5000  -2.0000 Du        
   3288 ****        23.7500 -12.5000  -1.7500 Du        
   3289 ****        23.7500 -12.5000  -1.5000 Du        
   3290 ****        23.7500 -12.5000  -1.2500 Du        
   3291 ****        23.7500 -12.5000  -1.0000 Du        
   3292 ****        23.7500 -12.5000  -0.7500 Du        
   3293 ****        23.7500 -12.5000  -0.5000 Du        
   3294 ****        23.7500 -12.5000  -0.2500 Du        
   3295 ****        23.7500 -12.5000   0.0000 Du        
   3296 ****        23.7500 -12.2500  -2.5000 Du        
   3297 ****        23.7500 -12.2500  -2.2500 Du        
   3298 ****        23.7500 -12.2500  -2.0000 Du        
   3299 ****        23.7500 -12.2500  -1.7500 Du        
   3300 ****        23.7500 -12.2500  -1.5000 Du        
   3301 ****        23.7500 -12.2500  -1.2500 Du        
   3302 ****        23.7500 -12.2500  -1.0000 Du        
   3303 ****        23.7500 -12.2500  -0.7500 Du        
   3304 ****        23.7500 -12.2500  -0.5000 Du        
   3305 ****        23.7500 -12.2500  -0.2500 Du        
   3306 ****        23.7500 -12.2500   0.0000 Du        
   3307 ****        23.7500 -12.0000  -7.2500 Du        
   3308 ****        23.7500 -12.0000  -2.5000 Du        
   3309 ****        23.7500 -12.0000  -2.2500 Du        
   3310 ****        23.7500 -12.0000  -2.0000 Du        
   3311 ****        23.7500 -12.0000  -1.7500 Du        
   3312 ****        23.7500 -12.0000  -1.5000 Du        
   3313 ****        23.7500 -12.0000  -1.2500 Du        
   3314 ****        23.7500 -12.0000  -1.0000 Du        
   3315 ****        23.7500 -12.0000  -0.7500 Du        
   3316 ****        23.7500 -12.0000  -0.5000 Du        
   3317 ****        23.7500 -12.0000  -0.2500 Du        
   3318 ****        23.7500 -12.0000   0.0000 Du        
   3319 ****        23.7500 -11.7500  -7.5000 Du        
   3320 ****        23.7500 -11.7500  -7.2500 Du        
   3321 ****        23.7500 -11.7500  -7.0000 Du        
   3322 ****        23.7500 -11.7500  -2.2500 Du        
   3323 ****        23.7500 -11.7500  -2.0000 Du        
   3324 ****        23.7500 -11.7500  -1.7500 Du        
   3325 ****        23.7500 -11.7500  -1.5000 Du        
   3326 ****        23.7500 -11.7500  -1.2500 Du        
   3327 ****        23.7500 -11.7500  -1.0000 Du        
   3328 ****        23.7500 -11.7500  -0.7500 Du        
   3329 ****        23.7500 -11.7500  -0.5000 Du        
   3330 ****        23.7500 -11.7500  -0.2500 Du        
   3331 ****        23.7500 -11.7500   0.0000 Du        
   3332 ****        23.7500 -11.5000  -2.2500 Du        
   3333 ****        23.7500 -11.5000  -2.0000 Du        
   3334 ****        23.7500 -11.5000  -1.7500 Du        
   3335 ****        23.7500 -11.5000  -1.5000 Du        
   3336 ****        23.7500 -11.5000  -1.2500 Du        
   3337 ****        23.7500 -11.5000  -1.0000 Du        
   3338 ****        23.7500 -11.5000  -0.7500 Du        
   3339 ****        23.7500 -11.5000  -0.5000 Du        
   3340 ****        23.7500 -11.5000  -0.2500 Du        
   3341 ****        23.7500 -11.5000   0.0000 Du        
   3342 ****        23.7500 -11.2500  -2.2500 Du        
   3343 ****        23.7500 -11.2500  -2.0000 Du        
   3344 ****        23.7500 -11.2500  -1.7500 Du        
   3345 ****        23.7500 -11.2500  -1.5000 Du        
   3346 ****        23.7500 -11.2500  -1.2500 Du        
   3347 ****        23.7500 -11.2500  -1.0000 Du        
   3348 ****        23.7500 -11.2500  -0.7500 Du        
   3349 ****        23.7500 -11.2500  -0.5000 Du        
   3350 ****        23.7500 -11.2500  -0.2500 Du        
   3351 ****        23.7500 -11.2500   0.0000 Du        
   3352 ****        23.7500 -11.0000  -2.0000 Du        
   3353 ****        23.7500 -11.0000  -1.7500 Du        
   3354 ****        23.7500 -11.0000  -1.5000 Du        
   3355 ****        23.7500 -11.0000  -1.2500 Du        
   3356 ****        23.7500 -11.0000  -1.0000 Du        
   3357 ****        23.7500 -11.0000  -0.7500 Du        
   3358 ****        23.7500 -11.0000  -0.5000 Du        
   3359 ****        23.7500 -11.0000  -0.2500 Du        
   3360 ****        23.7500 -11.0000   0.0000 Du        
   3361 ****        23.7500 -11.0000   0.2500 Du        
   3362 ****        23.7500 -10.7500  -2.0000 Du        
   3363 ****        23.7500 -10.7500  -1.7500 Du        
   3364 ****        23.7500 -10.7500  -1.5000 Du        
   3365 ****        23.7500 -10.7500  -1.2500 Du        
   3366 ****        23.7500 -10.7500  -1.0000 Du        
   3367 ****        23.7500 -10.7500  -0.7500 Du        
   3368 ****        23.7500 -10.7500  -0.5000 Du        
   3369 ****        23.7500 -10.7500  -0.2500 Du        
   3370 ****        23.7500 -10.7500   0.0000 Du        
   3371 ****        23.7500 -10.7500   0.2500 Du        
   3372 ****        23.7500 -10.5000  -1.0000 Du        
   3373 ****        23.7500 -10.5000  -0.7500 Du        
   3374 ****        23.7500 -10.2500  -0.2500 Du        
   3375 ****        23.7500  -9.0000   5.2500 Du        
   3376 ****        23.7500  -8.7500   5.0000 Du        
   3377 ****        23.7500  -8.7500   5.2500 Du        
   3378 ****        23.7500  -8.7500   5.5000 Du        
   3379 ****        23.7500  -8.7500   5.7500 Du        
   3380 ****        23.7500  -8.7500   6.0000 Du        
   3381 ****        23.7500  -8.5000   5.5000 Du        
   3382 ****        23.7500  -8.5000   5.7500 Du        
   3383 ****        23.7500  -8.2500   2.0000 Du        
   3384 ****        23.7500  -8.2500   2.5000 Du        
   3385 ****        23.7500  -8.2500   2.7500 Du        
   3386 ****        23.7500  -8.2500   3.0000 Du        
   3387 ****        23.7500  -8.2500   3.7500 Du        
   3388 ****        23.7500  -8.2500   5.5000 Du        
   3389 ****        23.7500  -8.2500   5.7500 Du        
   3390 ****        23.7500  -8.0000   2.2500 Du        
   3391 ****        23.7500  -8.0000   2.5000 Du        
   3392 ****        23.7500  -8.0000   2.7500 Du        
   3393 ****        23.7500  -8.0000   3.0000 Du        
   3394 ****        23.7500  -8.0000   3.2500 Du        
   3395 ****        23.7500  -8.0000   3.7500 Du        
   3396 ****        23.7500  -8.0000   4.0000 Du        
   3397 ****        23.7500  -8.0000   4.2500 Du        
   3398 ****        23.7500  -8.0000   4.7500 Du        
   3399 ****        23.7500  -8.0000   5.0000 Du        
   3400 ****        23.7500  -8.0000   5.2500 Du        
   3401 ****        23.7500  -8.0000   5.5000 Du        
   3402 ****        23.7500  -8.0000   5.7500 Du        
   3403 ****        23.7500  -7.7500   2.5000 Du        
   3404 ****        23.7500  -7.7500   2.7500 Du        
   3405 ****        23.7500  -7.7500   3.0000 Du        
   3406 ****        23.7500  -7.7500   3.2500 Du        
   3407 ****        23.7500  -7.5000   2.7500 Du        
   3408 ****        23.7500  -7.5000   3.0000 Du        
   3409 ****        23.7500  -7.2500   3.0000 Du        
   3410 ****        23.7500  -7.2500  10.0000 Du        
   3411 ****        23.7500  -7.2500  10.2500 Du        
   3412 ****        23.7500  -7.2500  10.5000 Du        
   3413 ****        23.7500  -7.0000   9.5000 Du        
   3414 ****        23.7500  -7.0000   9.7500 Du        
   3415 ****        23.7500  -7.0000  10.0000 Du        
   3416 ****        23.7500  -7.0000  10.2500 Du        
   3417 ****        23.7500  -7.0000  10.5000 Du        
   3418 ****        23.7500  -6.7500   9.5000 Du        
   3419 ****        23.7500  -6.7500   9.7500 Du        
   3420 ****        23.7500  -6.7500  10.0000 Du        
   3421 ****        23.7500  -6.7500  10.2500 Du        
   3422 ****        23.7500  -6.7500  10.5000 Du        
   3423 ****        24.0000 -14.0000  -1.0000 Du        
   3424 ****        24.0000 -14.0000  -0.7500 Du        
   3425 ****        24.0000 -14.0000  -0.5000 Du        
   3426 ****        24.0000 -14.0000  -0.2500 Du        
   3427 ****        24.0000 -14.0000   0.0000 Du        
   3428 ****        24.0000 -13.7500  -1.2500 Du        
   3429 ****        24.0000 -13.7500  -1.0000 Du        
   3430 ****        24.0000 -13.7500  -0.7500 Du        
   3431 ****        24.0000 -13.7500  -0.5000 Du        
   3432 ****        24.0000 -13.7500  -0.2500 Du        
   3433 ****        24.0000 -13.7500   0.0000 Du        
   3434 ****        24.0000 -13.7500   0.2500 Du        
   3435 ****        24.0000 -13.5000  -1.2500 Du        
   3436 ****        24.0000 -13.5000  -1.0000 Du        
   3437 ****        24.0000 -13.5000  -0.7500 Du        
   3438 ****        24.0000 -13.5000  -0.5000 Du        
   3439 ****        24.0000 -13.5000  -0.2500 Du        
   3440 ****        24.0000 -13.5000   0.0000 Du        
   3441 ****        24.0000 -13.5000   0.2500 Du        
   3442 ****        24.0000 -13.5000   0.5000 Du        
   3443 ****        24.0000 -13.2500  -1.5000 Du        
   3444 ****        24.0000 -13.2500  -1.2500 Du        
   3445 ****        24.0000 -13.2500  -1.0000 Du        
   3446 ****        24.0000 -13.2500  -0.7500 Du        
   3447 ****        24.0000 -13.2500  -0.5000 Du        
   3448 ****        24.0000 -13.2500  -0.2500 Du        
   3449 ****        24.0000 -13.2500   0.0000 Du        
   3450 ****        24.0000 -13.2500   0.2500 Du        
   3451 ****        24.0000 -13.2500   0.5000 Du        
   3452 ****        24.0000 -13.2500   0.7500 Du        
   3453 ****        24.0000 -13.0000  -1.7500 Du        
   3454 ****        24.0000 -13.0000  -1.5000 Du        
   3455 ****        24.0000 -13.0000  -1.2500 Du        
   3456 ****        24.0000 -13.0000  -1.0000 Du        
   3457 ****        24.0000 -13.0000  -0.7500 Du        
   3458 ****        24.0000 -13.0000  -0.5000 Du        
   3459 ****        24.0000 -13.0000  -0.2500 Du        
   3460 ****        24.0000 -13.0000   0.0000 Du        
   3461 ****        24.0000 -13.0000   0.2500 Du        
   3462 ****        24.0000 -13.0000   0.5000 Du        
   3463 ****        24.0000 -13.0000   0.7500 Du        
   3464 ****        24.0000 -13.0000   1.0000 Du        
   3465 ****        24.0000 -12.7500  -2.0000 Du        
   3466 ****        24.0000 -12.7500  -1.7500 Du        
   3467 ****        24.0000 -12.7500  -1.5000 Du        
   3468 ****        24.0000 -12.7500  -1.2500 Du        
   3469 ****        24.0000 -12.7500  -1.0000 Du        
   3470 ****        24.0000 -12.7500  -0.7500 Du        
   3471 ****        24.0000 -12.7500  -0.5000 Du        
   3472 ****        24.0000 -12.7500  -0.2500 Du        
   3473 ****        24.0000 -12.7500   0.0000 Du        
   3474 ****        24.0000 -12.7500   0.2500 Du        
   3475 ****        24.0000 -12.7500   0.5000 Du        
   3476 ****        24.0000 -12.7500   0.7500 Du        
   3477 ****        24.0000 -12.7500   1.0000 Du        
   3478 ****        24.0000 -12.5000  -2.0000 Du        
   3479 ****        24.0000 -12.5000  -1.7500 Du        
   3480 ****        24.0000 -12.5000  -1.5000 Du        
   3481 ****        24.0000 -12.5000  -1.2500 Du        
   3482 ****        24.0000 -12.5000  -1.0000 Du        
   3483 ****        24.0000 -12.5000  -0.7500 Du        
   3484 ****        24.0000 -12.5000  -0.5000 Du        
   3485 ****        24.0000 -12.5000  -0.2500 Du        
   3486 ****        24.0000 -12.5000   0.0000 Du        
   3487 ****        24.0000 -12.5000   0.2500 Du        
   3488 ****        24.0000 -12.5000   0.5000 Du        
   3489 ****        24.0000 -12.5000   0.7500 Du        
   3490 ****        24.0000 -12.2500  -2.0000 Du        
   3491 ****        24.0000 -12.2500  -1.7500 Du        
   3492 ****        24.0000 -12.2500  -1.5000 Du        
   3493 ****        24.0000 -12.2500  -1.2500 Du        
   3494 ****        24.0000 -12.2500  -1.0000 Du        
   3495 ****        24.0000 -12.2500  -0.7500 Du        
   3496 ****        24.0000 -12.2500  -0.5000 Du        
   3497 ****        24.0000 -12.2500  -0.2500 Du        
   3498 ****        24.0000 -12.2500   0.0000 Du        
   3499 ****        24.0000 -12.2500   0.2500 Du        
   3500 ****        24.0000 -12.2500   0.5000 Du        
   3501 ****        24.0000 -12.2500   0.7500 Du        
   3502 ****        24.0000 -12.0000  -2.0000 Du        
   3503 ****        24.0000 -12.0000  -1.7500 Du        
   3504 ****        24.0000 -12.0000  -1.5000 Du        
   3505 ****        24.0000 -12.0000  -1.2500 Du        
   3506 ****        24.0000 -12.0000  -1.0000 Du        
   3507 ****        24.0000 -12.0000  -0.7500 Du        
   3508 ****        24.0000 -12.0000  -0.5000 Du        
   3509 ****        24.0000 -12.0000  -0.2500 Du        
   3510 ****        24.0000 -12.0000   0.0000 Du        
   3511 ****        24.0000 -12.0000   0.2500 Du        
   3512 ****        24.0000 -12.0000   0.5000 Du        
   3513 ****        24.0000 -12.0000   0.7500 Du        
   3514 ****        24.0000 -11.7500  -2.0000 Du        
   3515 ****        24.0000 -11.7500  -1.7500 Du        
   3516 ****        24.0000 -11.7500  -1.5000 Du        
   3517 ****        24.0000 -11.7500  -1.2500 Du        
   3518 ****        24.0000 -11.7500  -1.0000 Du        
   3519 ****        24.0000 -11.7500  -0.7500 Du        
   3520 ****        24.0000 -11.7500  -0.5000 Du        
   3521 ****        24.0000 -11.7500  -0.2500 Du        
   3522 ****        24.0000 -11.7500   0.0000 Du        
   3523 ****        24.0000 -11.7500   0.2500 Du        
   3524 ****        24.0000 -11.7500   0.5000 Du        
   3525 ****        24.0000 -11.7500   0.7500 Du        
   3526 ****        24.0000 -11.7500   1.0000 Du        
   3527 ****        24.0000 -11.5000  -1.7500 Du        
   3528 ****        24.0000 -11.5000  -1.5000 Du        
   3529 ****        24.0000 -11.5000  -1.2500 Du        
   3530 ****        24.0000 -11.5000  -1.0000 Du        
   3531 ****        24.0000 -11.5000  -0.7500 Du        
   3532 ****        24.0000 -11.5000  -0.5000 Du        
   3533 ****        24.0000 -11.5000  -0.2500 Du        
   3534 ****        24.0000 -11.5000   0.0000 Du        
   3535 ****        24.0000 -11.5000   0.2500 Du        
   3536 ****        24.0000 -11.5000   0.5000 Du        
   3537 ****        24.0000 -11.5000   0.7500 Du        
   3538 ****        24.0000 -11.2500  -1.7500 Du        
   3539 ****        24.0000 -11.2500  -1.5000 Du        
   3540 ****        24.0000 -11.2500  -1.2500 Du        
   3541 ****        24.0000 -11.2500  -1.0000 Du        
   3542 ****        24.0000 -11.2500  -0.7500 Du        
   3543 ****        24.0000 -11.2500  -0.5000 Du        
   3544 ****        24.0000 -11.2500  -0.2500 Du        
   3545 ****        24.0000 -11.2500   0.0000 Du        
   3546 ****        24.0000 -11.2500   0.2500 Du        
   3547 ****        24.0000 -11.2500   0.5000 Du        
   3548 ****        24.0000 -11.2500   0.7500 Du        
   3549 ****        24.0000 -11.2500   1.0000 Du        
   3550 ****        24.0000 -11.0000  -1.5000 Du        
   3551 ****        24.0000 -11.0000  -1.2500 Du        
   3552 ****        24.0000 -11.0000  -1.0000 Du        
   3553 ****        24.0000 -11.0000  -0.7500 Du        
   3554 ****        24.0000 -11.0000  -0.5000 Du        
   3555 ****        24.0000 -11.0000  -0.2500 Du        
   3556 ****        24.0000 -11.0000   0.0000 Du        
   3557 ****        24.0000 -11.0000   0.2500 Du        
   3558 ****        24.0000 -11.0000   0.5000 Du        
   3559 ****        24.0000 -11.0000   0.7500 Du        
   3560 ****        24.0000 -11.0000   1.0000 Du        
   3561 ****        24.0000 -11.0000   1.2500 Du        
   3562 ****        24.0000 -10.7500  -1.2500 Du        
   3563 ****        24.0000 -10.7500  -1.0000 Du        
   3564 ****        24.0000 -10.7500  -0.7500 Du        
   3565 ****        24.0000 -10.7500  -0.5000 Du        
   3566 ****        24.0000 -10.7500  -0.2500 Du        
   3567 ****        24.0000 -10.7500   0.0000 Du        
   3568 ****        24.0000 -10.7500   0.2500 Du        
   3569 ****        24.0000 -10.7500   0.5000 Du        
   3570 ****        24.0000 -10.7500   0.7500 Du        
   3571 ****        24.0000 -10.7500   1.0000 Du        
   3572 ****        24.0000 -10.7500   1.2500 Du        
   3573 ****        24.0000 -10.5000  -0.7500 Du        
   3574 ****        24.0000 -10.5000  -0.5000 Du        
   3575 ****        24.0000 -10.5000  -0.2500 Du        
   3576 ****        24.0000 -10.5000   0.0000 Du        
   3577 ****        24.0000 -10.2500  -0.2500 Du        
   3578 ****        24.0000 -10.2500   0.0000 Du        
   3579 ****        24.0000 -10.2500   0.2500 Du        
   3580 ****        24.0000 -10.2500   0.5000 Du        
   3581 ****        24.0000 -10.0000   0.2500 Du        
   3582 ****        24.0000  -9.0000   5.0000 Du        
   3583 ****        24.0000  -9.0000   5.2500 Du        
   3584 ****        24.0000  -8.7500   4.5000 Du        
   3585 ****        24.0000  -8.7500   4.7500 Du        
   3586 ****        24.0000  -8.7500   5.0000 Du        
   3587 ****        24.0000  -8.7500   5.2500 Du        
   3588 ****        24.0000  -8.7500   5.5000 Du        
   3589 ****        24.0000  -8.7500   5.7500 Du        
   3590 ****        24.0000  -8.5000   5.5000 Du        
   3591 ****        24.0000  -8.2500   2.5000 Du        
   3592 ****        24.0000  -8.2500   2.7500 Du        
   3593 ****        24.0000  -8.2500   3.0000 Du        
   3594 ****        24.0000  -8.2500   3.2500 Du        
   3595 ****        24.0000  -8.2500   3.7500 Du        
   3596 ****        24.0000  -8.2500   4.0000 Du        
   3597 ****        24.0000  -8.2500   4.2500 Du        
   3598 ****        24.0000  -8.2500   4.7500 Du        
   3599 ****        24.0000  -8.2500   5.5000 Du        
   3600 ****        24.0000  -8.0000   2.5000 Du        
   3601 ****        24.0000  -8.0000   2.7500 Du        
   3602 ****        24.0000  -8.0000   3.0000 Du        
   3603 ****        24.0000  -8.0000   3.2500 Du        
   3604 ****        24.0000  -8.0000   3.5000 Du        
   3605 ****        24.0000  -8.0000   3.7500 Du        
   3606 ****        24.0000  -8.0000   4.0000 Du        
   3607 ****        24.0000  -8.0000   4.2500 Du        
   3608 ****        24.0000  -7.7500   2.5000 Du        
   3609 ****        24.0000  -7.7500   2.7500 Du        
   3610 ****        24.0000  -7.7500   3.0000 Du        
   3611 ****        24.0000  -7.7500   3.2500 Du        
   3612 ****        24.0000  -7.7500   3.7500 Du        
   3613 ****        24.0000  -7.2500   3.0000 Du        
   3614 ****        24.0000  -7.2500  10.0000 Du        
   3615 ****        24.0000  -7.2500  10.2500 Du        
   3616 ****        24.0000  -7.2500  10.5000 Du        
   3617 ****        24.0000  -7.0000   9.7500 Du        
   3618 ****        24.0000  -7.0000  10.0000 Du        
   3619 ****        24.0000  -7.0000  10.2500 Du        
   3620 ****        24.0000  -7.0000  10.5000 Du        
   3621 ****        24.0000  -6.7500   9.7500 Du        
   3622 ****        24.0000  -6.7500  10.0000 Du        
   3623 ****        24.0000  -6.7500  10.2500 Du        
   3624 ****        24.0000  -6.7500  10.5000 Du        
   3625 ****        24.2500 -14.2500  -0.5000 Du        
   3626 ****        24.2500 -14.0000  -1.0000 Du        
   3627 ****        24.2500 -14.0000  -0.7500 Du        
   3628 ****        24.2500 -14.0000  -0.5000 Du        
   3629 ****        24.2500 -14.0000  -0.2500 Du        
   3630 ****        24.2500 -14.0000   0.0000 Du        
   3631 ****        24.2500 -13.7500  -1.0000 Du        
   3632 ****        24.2500 -13.7500  -0.7500 Du        
   3633 ****        24.2500 -13.7500  -0.5000 Du        
   3634 ****        24.2500 -13.7500  -0.2500 Du        
   3635 ****        24.2500 -13.7500   0.0000 Du        
   3636 ****        24.2500 -13.7500   0.2500 Du        
   3637 ****        24.2500 -13.7500   0.5000 Du        
   3638 ****        24.2500 -13.5000  -1.2500 Du        
   3639 ****        24.2500 -13.5000  -1.0000 Du        
   3640 ****        24.2500 -13.5000  -0.7500 Du        
   3641 ****        24.2500 -13.5000  -0.5000 Du        
   3642 ****        24.2500 -13.5000  -0.2500 Du        
   3643 ****        24.2500 -13.5000   0.0000 Du        
   3644 ****        24.2500 -13.5000   0.2500 Du        
   3645 ****        24.2500 -13.5000   0.5000 Du        
   3646 ****        24.2500 -13.5000   0.7500 Du        
   3647 ****        24.2500 -13.2500  -1.2500 Du        
   3648 ****        24.2500 -13.2500  -1.0000 Du        
   3649 ****        24.2500 -13.2500  -0.7500 Du        
   3650 ****        24.2500 -13.2500  -0.5000 Du        
   3651 ****        24.2500 -13.2500  -0.2500 Du        
   3652 ****        24.2500 -13.2500   0.0000 Du        
   3653 ****        24.2500 -13.2500   0.2500 Du        
   3654 ****        24.2500 -13.2500   0.5000 Du        
   3655 ****        24.2500 -13.2500   0.7500 Du        
   3656 ****        24.2500 -13.2500   1.0000 Du        
   3657 ****        24.2500 -13.0000  -1.5000 Du        
   3658 ****        24.2500 -13.0000  -1.2500 Du        
   3659 ****        24.2500 -13.0000  -1.0000 Du        
   3660 ****        24.2500 -13.0000  -0.7500 Du        
   3661 ****        24.2500 -13.0000  -0.5000 Du        
   3662 ****        24.2500 -13.0000  -0.2500 Du        
   3663 ****        24.2500 -13.0000   0.0000 Du        
   3664 ****        24.2500 -13.0000   0.2500 Du        
   3665 ****        24.2500 -13.0000   0.5000 Du        
   3666 ****        24.2500 -13.0000   0.7500 Du        
   3667 ****        24.2500 -13.0000   1.0000 Du        
   3668 ****        24.2500 -13.0000   1.2500 Du        
   3669 ****        24.2500 -12.7500  -1.5000 Du        
   3670 ****        24.2500 -12.7500  -1.2500 Du        
   3671 ****        24.2500 -12.7500  -1.0000 Du        
   3672 ****        24.2500 -12.7500  -0.7500 Du        
   3673 ****        24.2500 -12.7500  -0.5000 Du        
   3674 ****        24.2500 -12.7500  -0.2500 Du        
   3675 ****        24.2500 -12.7500   0.0000 Du        
   3676 ****        24.2500 -12.7500   0.2500 Du        
   3677 ****        24.2500 -12.7500   0.5000 Du        
   3678 ****        24.2500 -12.7500   0.7500 Du        
   3679 ****        24.2500 -12.7500   1.0000 Du        
   3680 ****        24.2500 -12.7500   1.2500 Du        
   3681 ****        24.2500 -12.5000  -1.7500 Du        
   3682 ****        24.2500 -12.5000  -1.5000 Du        
   3683 ****        24.2500 -12.5000  -1.2500 Du        
   3684 ****        24.2500 -12.5000  -1.0000 Du        
   3685 ****        24.2500 -12.5000  -0.7500 Du        
   3686 ****        24.2500 -12.5000  -0.5000 Du        
   3687 ****        24.2500 -12.5000  -0.2500 Du        
   3688 ****        24.2500 -12.5000   0.0000 Du        
   3689 ****        24.2500 -12.5000   0.2500 Du        
   3690 ****        24.2500 -12.5000   0.5000 Du        
   3691 ****        24.2500 -12.5000   0.7500 Du        
   3692 ****        24.2500 -12.5000   1.0000 Du        
   3693 ****        24.2500 -12.5000   1.2500 Du        
   3694 ****        24.2500 -12.2500  -1.7500 Du        
   3695 ****        24.2500 -12.2500  -1.5000 Du        
   3696 ****        24.2500 -12.2500  -1.2500 Du        
   3697 ****        24.2500 -12.2500  -1.0000 Du        
   3698 ****        24.2500 -12.2500  -0.7500 Du        
   3699 ****        24.2500 -12.2500  -0.5000 Du        
   3700 ****        24.2500 -12.2500  -0.2500 Du        
   3701 ****        24.2500 -12.2500   0.0000 Du        
   3702 ****        24.2500 -12.2500   0.2500 Du        
   3703 ****        24.2500 -12.2500   0.5000 Du        
   3704 ****        24.2500 -12.2500   0.7500 Du        
   3705 ****        24.2500 -12.2500   1.0000 Du        
   3706 ****        24.2500 -12.2500   1.2500 Du        
   3707 ****        24.2500 -12.0000  -1.5000 Du        
   3708 ****        24.2500 -12.0000  -1.2500 Du        
   3709 ****        24.2500 -12.0000  -1.0000 Du        
   3710 ****        24.2500 -12.0000  -0.7500 Du        
   3711 ****        24.2500 -12.0000  -0.5000 Du        
   3712 ****        24.2500 -12.0000  -0.2500 Du        
   3713 ****        24.2500 -12.0000   0.0000 Du        
   3714 ****        24.2500 -12.0000   0.2500 Du        
   3715 ****        24.2500 -12.0000   0.5000 Du        
   3716 ****        24.2500 -12.0000   0.7500 Du        
   3717 ****        24.2500 -12.0000   1.0000 Du        
   3718 ****        24.2500 -12.0000   1.2500 Du        
   3719 ****        24.2500 -11.7500  -1.5000 Du        
   3720 ****        24.2500 -11.7500  -1.2500 Du        
   3721 ****        24.2500 -11.7500  -1.0000 Du        
   3722 ****        24.2500 -11.7500  -0.7500 Du        
   3723 ****        24.2500 -11.7500  -0.5000 Du        
   3724 ****        24.2500 -11.7500  -0.2500 Du        
   3725 ****        24.2500 -11.7500   0.0000 Du        
   3726 ****        24.2500 -11.7500   0.2500 Du        
   3727 ****        24.2500 -11.7500   0.5000 Du        
   3728 ****        24.2500 -11.7500   0.7500 Du        
   3729 ****        24.2500 -11.7500   1.0000 Du        
   3730 ****        24.2500 -11.7500   1.2500 Du        
   3731 ****        24.2500 -11.5000  -1.2500 Du        
   3732 ****        24.2500 -11.5000  -1.0000 Du        
   3733 ****        24.2500 -11.5000  -0.7500 Du        
   3734 ****        24.2500 -11.5000  -0.5000 Du        
   3735 ****        24.2500 -11.5000  -0.2500 Du        
   3736 ****        24.2500 -11.5000   0.0000 Du        
   3737 ****        24.2500 -11.5000   0.2500 Du        
   3738 ****        24.2500 -11.5000   0.5000 Du        
   3739 ****        24.2500 -11.5000   0.7500 Du        
   3740 ****        24.2500 -11.5000   1.0000 Du        
   3741 ****        24.2500 -11.5000   1.2500 Du        
   3742 ****        24.2500 -11.2500  -1.2500 Du        
   3743 ****        24.2500 -11.2500  -1.0000 Du        
   3744 ****        24.2500 -11.2500  -0.7500 Du        
   3745 ****        24.2500 -11.2500  -0.5000 Du        
   3746 ****        24.2500 -11.2500  -0.2500 Du        
   3747 ****        24.2500 -11.2500   0.0000 Du        
   3748 ****        24.2500 -11.2500   0.2500 Du        
   3749 ****        24.2500 -11.2500   0.5000 Du        
   3750 ****        24.2500 -11.2500   0.7500 Du        
   3751 ****        24.2500 -11.2500   1.0000 Du        
   3752 ****        24.2500 -11.2500   1.2500 Du        
   3753 ****        24.2500 -11.2500   1.5000 Du        
   3754 ****        24.2500 -11.0000  -1.0000 Du        
   3755 ****        24.2500 -11.0000  -0.7500 Du        
   3756 ****        24.2500 -11.0000  -0.5000 Du        
   3757 ****        24.2500 -11.0000  -0.2500 Du        
   3758 ****        24.2500 -11.0000   0.0000 Du        
   3759 ****        24.2500 -11.0000   0.2500 Du        
   3760 ****        24.2500 -11.0000   0.5000 Du        
   3761 ****        24.2500 -11.0000   0.7500 Du        
   3762 ****        24.2500 -11.0000   1.0000 Du        
   3763 ****        24.2500 -11.0000   1.2500 Du        
   3764 ****        24.2500 -11.0000   1.5000 Du        
   3765 ****        24.2500 -10.7500  -1.0000 Du        
   3766 ****        24.2500 -10.7500  -0.7500 Du        
   3767 ****        24.2500 -10.7500  -0.5000 Du        
   3768 ****        24.2500 -10.7500  -0.2500 Du        
   3769 ****        24.2500 -10.7500   0.0000 Du        
   3770 ****        24.2500 -10.7500   0.2500 Du        
   3771 ****        24.2500 -10.7500   0.5000 Du        
   3772 ****        24.2500 -10.7500   0.7500 Du        
   3773 ****        24.2500 -10.7500   1.0000 Du        
   3774 ****        24.2500 -10.7500   1.2500 Du        
   3775 ****        24.2500 -10.7500   1.5000 Du        
   3776 ****        24.2500 -10.5000  -0.2500 Du        
   3777 ****        24.2500 -10.5000   0.0000 Du        
   3778 ****        24.2500 -10.5000   0.2500 Du        
   3779 ****        24.2500 -10.5000   0.5000 Du        
   3780 ****        24.2500 -10.5000   0.7500 Du        
   3781 ****        24.2500 -10.2500  -0.2500 Du        
   3782 ****        24.2500 -10.2500   0.0000 Du        
   3783 ****        24.2500 -10.2500   0.2500 Du        
   3784 ****        24.2500 -10.2500   0.5000 Du        
   3785 ****        24.2500 -10.2500   0.7500 Du        
   3786 ****        24.2500 -10.2500   1.5000 Du        
   3787 ****        24.2500 -10.0000   0.2500 Du        
   3788 ****        24.2500  -9.0000   4.5000 Du        
   3789 ****        24.2500  -9.0000   4.7500 Du        
   3790 ****        24.2500  -9.0000   5.0000 Du        
   3791 ****        24.2500  -9.0000   5.2500 Du        
   3792 ****        24.2500  -8.7500   4.2500 Du        
   3793 ****        24.2500  -8.7500   4.5000 Du        
   3794 ****        24.2500  -8.7500   4.7500 Du        
   3795 ****        24.2500  -8.7500   5.0000 Du        
   3796 ****        24.2500  -8.7500   5.2500 Du        
   3797 ****        24.2500  -8.7500   5.5000 Du        
   3798 ****        24.2500  -8.5000   2.7500 Du        
   3799 ****        24.2500  -8.5000   3.0000 Du        
   3800 ****        24.2500  -8.5000   4.0000 Du        
   3801 ****        24.2500  -8.2500   2.2500 Du        
   3802 ****        24.2500  -8.2500   2.5000 Du        
   3803 ****        24.2500  -8.2500   2.7500 Du        
   3804 ****        24.2500  -8.2500   3.0000 Du        
   3805 ****        24.2500  -8.2500   3.2500 Du        
   3806 ****        24.2500  -8.2500   3.7500 Du        
   3807 ****        24.2500  -8.2500   4.0000 Du        
   3808 ****        24.2500  -8.2500   4.2500 Du        
   3809 ****        24.2500  -8.2500   4.5000 Du        
   3810 ****        24.2500  -8.2500   4.7500 Du        
   3811 ****        24.2500  -8.0000   2.5000 Du        
   3812 ****        24.2500  -8.0000   2.7500 Du        
   3813 ****        24.2500  -8.0000   3.0000 Du        
   3814 ****        24.2500  -8.0000   3.2500 Du        
   3815 ****        24.2500  -8.0000   3.5000 Du        
   3816 ****        24.2500  -8.0000   3.7500 Du        
   3817 ****        24.2500  -8.0000   4.0000 Du        
   3818 ****        24.2500  -8.0000   4.2500 Du        
   3819 ****        24.2500  -7.7500   2.7500 Du        
   3820 ****        24.2500  -7.7500   3.0000 Du        
   3821 ****        24.2500  -7.7500   3.2500 Du        
   3822 ****        24.2500  -7.7500   3.7500 Du        
   3823 ****        24.2500  -7.2500  10.0000 Du        
   3824 ****        24.2500  -7.2500  10.2500 Du        
   3825 ****        24.2500  -7.2500  10.5000 Du        
   3826 ****        24.2500  -7.0000  10.0000 Du        
   3827 ****        24.2500  -7.0000  10.2500 Du        
   3828 ****        24.2500  -7.0000  10.5000 Du        
   3829 ****        24.2500  -7.0000  10.7500 Du        
   3830 ****        24.2500  -6.7500  10.0000 Du        
   3831 ****        24.2500  -6.7500  10.2500 Du        
   3832 ****        24.2500  -6.7500  10.5000 Du        
   3833 ****        24.2500  -6.7500  10.7500 Du        
   3834 ****        24.5000 -14.2500  -0.5000 Du        
   3835 ****        24.5000 -14.2500  -0.2500 Du        
   3836 ****        24.5000 -14.0000  -0.7500 Du        
   3837 ****        24.5000 -14.0000  -0.5000 Du        
   3838 ****        24.5000 -14.0000  -0.2500 Du        
   3839 ****        24.5000 -14.0000   0.0000 Du        
   3840 ****        24.5000 -13.7500  -1.0000 Du        
   3841 ****        24.5000 -13.7500  -0.7500 Du        
   3842 ****        24.5000 -13.7500  -0.5000 Du        
   3843 ****        24.5000 -13.7500  -0.2500 Du        
   3844 ****        24.5000 -13.7500   0.0000 Du        
   3845 ****        24.5000 -13.7500   0.2500 Du        
   3846 ****        24.5000 -13.7500   0.5000 Du        
   3847 ****        24.5000 -13.5000  -1.0000 Du        
   3848 ****        24.5000 -13.5000  -0.7500 Du        
   3849 ****        24.5000 -13.5000  -0.5000 Du        
   3850 ****        24.5000 -13.5000  -0.2500 Du        
   3851 ****        24.5000 -13.5000   0.0000 Du        
   3852 ****        24.5000 -13.5000   0.2500 Du        
   3853 ****        24.5000 -13.5000   0.5000 Du        
   3854 ****        24.5000 -13.5000   0.7500 Du        
   3855 ****        24.5000 -13.2500  -1.2500 Du        
   3856 ****        24.5000 -13.2500  -1.0000 Du        
   3857 ****        24.5000 -13.2500  -0.7500 Du        
   3858 ****        24.5000 -13.2500  -0.5000 Du        
   3859 ****        24.5000 -13.2500  -0.2500 Du        
   3860 ****        24.5000 -13.2500   0.0000 Du        
   3861 ****        24.5000 -13.2500   0.2500 Du        
   3862 ****        24.5000 -13.2500   0.5000 Du        
   3863 ****        24.5000 -13.2500   0.7500 Du        
   3864 ****        24.5000 -13.2500   1.0000 Du        
   3865 ****        24.5000 -13.0000  -1.2500 Du        
   3866 ****        24.5000 -13.0000  -1.0000 Du        
   3867 ****        24.5000 -13.0000  -0.7500 Du        
   3868 ****        24.5000 -13.0000  -0.5000 Du        
   3869 ****        24.5000 -13.0000  -0.2500 Du        
   3870 ****        24.5000 -13.0000   0.0000 Du        
   3871 ****        24.5000 -13.0000   0.2500 Du        
   3872 ****        24.5000 -13.0000   0.5000 Du        
   3873 ****        24.5000 -13.0000   0.7500 Du        
   3874 ****        24.5000 -13.0000   1.0000 Du        
   3875 ****        24.5000 -13.0000   1.2500 Du        
   3876 ****        24.5000 -12.7500  -1.2500 Du        
   3877 ****        24.5000 -12.7500  -1.0000 Du        
   3878 ****        24.5000 -12.7500  -0.7500 Du        
   3879 ****        24.5000 -12.7500  -0.5000 Du        
   3880 ****        24.5000 -12.7500  -0.2500 Du        
   3881 ****        24.5000 -12.7500   0.0000 Du        
   3882 ****        24.5000 -12.7500   0.2500 Du        
   3883 ****        24.5000 -12.7500   0.5000 Du        
   3884 ****        24.5000 -12.7500   0.7500 Du        
   3885 ****        24.5000 -12.7500   1.0000 Du        
   3886 ****        24.5000 -12.7500   1.2500 Du        
   3887 ****        24.5000 -12.7500   1.5000 Du        
   3888 ****        24.5000 -12.5000  -1.2500 Du        
   3889 ****        24.5000 -12.5000  -1.0000 Du        
   3890 ****        24.5000 -12.5000  -0.7500 Du        
   3891 ****        24.5000 -12.5000  -0.5000 Du        
   3892 ****        24.5000 -12.5000  -0.2500 Du        
   3893 ****        24.5000 -12.5000   0.0000 Du        
   3894 ****        24.5000 -12.5000   0.2500 Du        
   3895 ****        24.5000 -12.5000   0.5000 Du        
   3896 ****        24.5000 -12.5000   0.7500 Du        
   3897 ****        24.5000 -12.5000   1.0000 Du        
   3898 ****        24.5000 -12.5000   1.2500 Du        
   3899 ****        24.5000 -12.5000   1.5000 Du        
   3900 ****        24.5000 -12.2500  -1.2500 Du        
   3901 ****        24.5000 -12.2500  -1.0000 Du        
   3902 ****        24.5000 -12.2500  -0.7500 Du        
   3903 ****        24.5000 -12.2500  -0.5000 Du        
   3904 ****        24.5000 -12.2500  -0.2500 Du        
   3905 ****        24.5000 -12.2500   0.0000 Du        
   3906 ****        24.5000 -12.2500   0.2500 Du        
   3907 ****        24.5000 -12.2500   0.5000 Du        
   3908 ****        24.5000 -12.2500   0.7500 Du        
   3909 ****        24.5000 -12.2500   1.0000 Du        
   3910 ****        24.5000 -12.2500   1.2500 Du        
   3911 ****        24.5000 -12.2500   1.5000 Du        
   3912 ****        24.5000 -12.0000  -1.0000 Du        
   3913 ****        24.5000 -12.0000  -0.7500 Du        
   3914 ****        24.5000 -12.0000  -0.5000 Du        
   3915 ****        24.5000 -12.0000  -0.2500 Du        
   3916 ****        24.5000 -12.0000   0.0000 Du        
   3917 ****        24.5000 -12.0000   0.2500 Du        
   3918 ****        24.5000 -12.0000   0.5000 Du        
   3919 ****        24.5000 -12.0000   0.7500 Du        
   3920 ****        24.5000 -12.0000   1.0000 Du        
   3921 ****        24.5000 -12.0000   1.2500 Du        
   3922 ****        24.5000 -12.0000   1.5000 Du        
   3923 ****        24.5000 -12.0000   1.7500 Du        
   3924 ****        24.5000 -11.7500  -1.0000 Du        
   3925 ****        24.5000 -11.7500  -0.7500 Du        
   3926 ****        24.5000 -11.7500  -0.5000 Du        
   3927 ****        24.5000 -11.7500  -0.2500 Du        
   3928 ****        24.5000 -11.7500   0.0000 Du        
   3929 ****        24.5000 -11.7500   0.2500 Du        
   3930 ****        24.5000 -11.7500   0.5000 Du        
   3931 ****        24.5000 -11.7500   0.7500 Du        
   3932 ****        24.5000 -11.7500   1.0000 Du        
   3933 ****        24.5000 -11.7500   1.2500 Du        
   3934 ****        24.5000 -11.7500   1.5000 Du        
   3935 ****        24.5000 -11.7500   1.7500 Du        
   3936 ****        24.5000 -11.5000  -0.5000 Du        
   3937 ****        24.5000 -11.5000  -0.2500 Du        
   3938 ****        24.5000 -11.5000   0.0000 Du        
   3939 ****        24.5000 -11.5000   0.2500 Du        
   3940 ****        24.5000 -11.5000   0.5000 Du        
   3941 ****        24.5000 -11.5000   0.7500 Du        
   3942 ****        24.5000 -11.5000   1.0000 Du        
   3943 ****        24.5000 -11.5000   1.2500 Du        
   3944 ****        24.5000 -11.5000   1.5000 Du        
   3945 ****        24.5000 -11.5000   1.7500 Du        
   3946 ****        24.5000 -11.2500  -0.5000 Du        
   3947 ****        24.5000 -11.2500  -0.2500 Du        
   3948 ****        24.5000 -11.2500   0.0000 Du        
   3949 ****        24.5000 -11.2500   0.2500 Du        
   3950 ****        24.5000 -11.2500   0.5000 Du        
   3951 ****        24.5000 -11.2500   0.7500 Du        
   3952 ****        24.5000 -11.2500   1.0000 Du        
   3953 ****        24.5000 -11.2500   1.2500 Du        
   3954 ****        24.5000 -11.2500   1.5000 Du        
   3955 ****        24.5000 -11.2500   1.7500 Du        
   3956 ****        24.5000 -11.0000  -0.5000 Du        
   3957 ****        24.5000 -11.0000  -0.2500 Du        
   3958 ****        24.5000 -11.0000   0.0000 Du        
   3959 ****        24.5000 -11.0000   0.2500 Du        
   3960 ****        24.5000 -11.0000   0.5000 Du        
   3961 ****        24.5000 -11.0000   0.7500 Du        
   3962 ****        24.5000 -11.0000   1.0000 Du        
   3963 ****        24.5000 -11.0000   1.2500 Du        
   3964 ****        24.5000 -11.0000   1.5000 Du        
   3965 ****        24.5000 -11.0000   1.7500 Du        
   3966 ****        24.5000 -10.7500  -0.2500 Du        
   3967 ****        24.5000 -10.7500   0.0000 Du        
   3968 ****        24.5000 -10.7500   0.2500 Du        
   3969 ****        24.5000 -10.7500   0.5000 Du        
   3970 ****        24.5000 -10.7500   0.7500 Du        
   3971 ****        24.5000 -10.7500   1.0000 Du        
   3972 ****        24.5000 -10.7500   1.2500 Du        
   3973 ****        24.5000 -10.7500   1.5000 Du        
   3974 ****        24.5000 -10.7500   1.7500 Du        
   3975 ****        24.5000 -10.7500   2.0000 Du        
   3976 ****        24.5000 -10.5000   0.0000 Du        
   3977 ****        24.5000 -10.5000   0.2500 Du        
   3978 ****        24.5000 -10.5000   0.5000 Du        
   3979 ****        24.5000 -10.5000   0.7500 Du        
   3980 ****        24.5000 -10.5000   1.0000 Du        
   3981 ****        24.5000 -10.5000   1.2500 Du        
   3982 ****        24.5000 -10.5000   1.5000 Du        
   3983 ****        24.5000 -10.2500   0.0000 Du        
   3984 ****        24.5000 -10.2500   0.2500 Du        
   3985 ****        24.5000 -10.2500   0.5000 Du        
   3986 ****        24.5000 -10.2500   0.7500 Du        
   3987 ****        24.5000 -10.2500   1.0000 Du        
   3988 ****        24.5000 -10.2500   1.2500 Du        
   3989 ****        24.5000 -10.2500   1.5000 Du        
   3990 ****        24.5000 -10.2500   1.7500 Du        
   3991 ****        24.5000 -10.0000   0.5000 Du        
   3992 ****        24.5000 -10.0000   0.7500 Du        
   3993 ****        24.5000 -10.0000   1.0000 Du        
   3994 ****        24.5000 -10.0000   1.2500 Du        
   3995 ****        24.5000  -9.7500   0.5000 Du        
   3996 ****        24.5000  -9.7500   0.7500 Du        
   3997 ****        24.5000  -9.7500   1.0000 Du        
   3998 ****        24.5000  -9.7500   1.2500 Du        
   3999 ****        24.5000  -9.0000   1.2500 Du        
   4000 ****        24.5000  -9.0000   1.5000 Du        
   4001 ****        24.5000  -9.0000   1.7500 Du        
   4002 ****        24.5000  -9.0000   4.0000 Du        
   4003 ****        24.5000  -9.0000   4.2500 Du        
   4004 ****        24.5000  -9.0000   4.5000 Du        
   4005 ****        24.5000  -9.0000   4.7500 Du        
   4006 ****        24.5000  -9.0000   5.0000 Du        
   4007 ****        24.5000  -9.0000   5.2500 Du        
   4008 ****        24.5000  -8.7500   1.2500 Du        
   4009 ****        24.5000  -8.7500   1.5000 Du        
   4010 ****        24.5000  -8.7500   1.7500 Du        
   4011 ****        24.5000  -8.7500   4.0000 Du        
   4012 ****        24.5000  -8.7500   4.2500 Du        
   4013 ****        24.5000  -8.7500   4.5000 Du        
   4014 ****        24.5000  -8.7500   4.7500 Du        
   4015 ****        24.5000  -8.7500   5.0000 Du        
   4016 ****        24.5000  -8.7500   5.2500 Du        
   4017 ****        24.5000  -8.5000   2.5000 Du        
   4018 ****        24.5000  -8.5000   2.7500 Du        
   4019 ****        24.5000  -8.5000   3.0000 Du        
   4020 ****        24.5000  -8.5000   3.2500 Du        
   4021 ****        24.5000  -8.5000   4.5000 Du        
   4022 ****        24.5000  -8.2500   2.5000 Du        
   4023 ****        24.5000  -8.2500   2.7500 Du        
   4024 ****        24.5000  -8.2500   3.0000 Du        
   4025 ****        24.5000  -8.2500   3.2500 Du        
   4026 ****        24.5000  -8.2500   3.7500 Du        
   4027 ****        24.5000  -8.2500   4.5000 Du        
   4028 ****        24.5000  -8.2500   4.7500 Du        
   4029 ****        24.5000  -8.0000   2.5000 Du        
   4030 ****        24.5000  -8.0000   2.7500 Du        
   4031 ****        24.5000  -8.0000   3.0000 Du        
   4032 ****        24.5000  -8.0000   3.2500 Du        
   4033 ****        24.5000  -8.0000   3.7500 Du        
   4034 ****        24.5000  -8.0000   4.0000 Du        
   4035 ****        24.5000  -7.7500   2.7500 Du        
   4036 ****        24.5000  -7.7500   3.0000 Du        
   4037 ****        24.5000  -7.7500   3.2500 Du        
   4038 ****        24.5000  -7.7500   4.0000 Du        
   4039 ****        24.5000  -7.5000   3.2500 Du        
   4040 ****        24.5000  -7.5000   3.5000 Du        
   4041 ****        24.5000  -7.2500  10.0000 Du        
   4042 ****        24.5000  -7.2500  10.2500 Du        
   4043 ****        24.5000  -7.2500  10.5000 Du        
   4044 ****        24.5000  -7.0000  10.0000 Du        
   4045 ****        24.5000  -7.0000  10.2500 Du        
   4046 ****        24.5000  -7.0000  10.5000 Du        
   4047 ****        24.5000  -7.0000  10.7500 Du        
   4048 ****        24.5000  -6.7500  10.2500 Du        
   4049 ****        24.5000  -6.7500  10.5000 Du        
   4050 ****        24.5000  -6.7500  10.7500 Du        
   4051 ****        24.7500 -14.2500  -0.5000 Du        
   4052 ****        24.7500 -14.2500  -0.2500 Du        
   4053 ****        24.7500 -14.0000  -0.7500 Du        
   4054 ****        24.7500 -14.0000  -0.5000 Du        
   4055 ****        24.7500 -14.0000  -0.2500 Du        
   4056 ****        24.7500 -14.0000   0.0000 Du        
   4057 ****        24.7500 -14.0000   0.2500 Du        
   4058 ****        24.7500 -13.7500  -0.7500 Du        
   4059 ****        24.7500 -13.7500  -0.5000 Du        
   4060 ****        24.7500 -13.7500  -0.2500 Du        
   4061 ****        24.7500 -13.7500   0.0000 Du        
   4062 ****        24.7500 -13.7500   0.2500 Du        
   4063 ****        24.7500 -13.7500   0.5000 Du        
   4064 ****        24.7500 -13.5000  -0.7500 Du        
   4065 ****        24.7500 -13.5000  -0.5000 Du        
   4066 ****        24.7500 -13.5000  -0.2500 Du        
   4067 ****        24.7500 -13.5000   0.0000 Du        
   4068 ****        24.7500 -13.5000   0.2500 Du        
   4069 ****        24.7500 -13.5000   0.5000 Du        
   4070 ****        24.7500 -13.5000   0.7500 Du        
   4071 ****        24.7500 -13.2500  -1.0000 Du        
   4072 ****        24.7500 -13.2500  -0.7500 Du        
   4073 ****        24.7500 -13.2500  -0.5000 Du        
   4074 ****        24.7500 -13.2500  -0.2500 Du        
   4075 ****        24.7500 -13.2500   0.0000 Du        
   4076 ****        24.7500 -13.2500   0.2500 Du        
   4077 ****        24.7500 -13.2500   0.5000 Du        
   4078 ****        24.7500 -13.2500   0.7500 Du        
   4079 ****        24.7500 -13.2500   1.0000 Du        
   4080 ****        24.7500 -13.0000  -1.0000 Du        
   4081 ****        24.7500 -13.0000  -0.7500 Du        
   4082 ****        24.7500 -13.0000  -0.5000 Du        
   4083 ****        24.7500 -13.0000  -0.2500 Du        
   4084 ****        24.7500 -13.0000   0.0000 Du        
   4085 ****        24.7500 -13.0000   0.2500 Du        
   4086 ****        24.7500 -13.0000   0.5000 Du        
   4087 ****        24.7500 -13.0000   0.7500 Du        
   4088 ****        24.7500 -13.0000   1.0000 Du        
   4089 ****        24.7500 -12.7500  -1.0000 Du        
   4090 ****        24.7500 -12.7500  -0.7500 Du        
   4091 ****        24.7500 -12.7500  -0.5000 Du        
   4092 ****        24.7500 -12.7500  -0.2500 Du        
   4093 ****        24.7500 -12.7500   0.0000 Du        
   4094 ****        24.7500 -12.7500   0.2500 Du        
   4095 ****        24.7500 -12.7500   0.5000 Du        
   4096 ****        24.7500 -12.7500   0.7500 Du        
   4097 ****        24.7500 -12.7500   1.0000 Du        
   4098 ****        24.7500 -12.7500   1.2500 Du        
   4099 ****        24.7500 -12.5000  -0.7500 Du        
   4100 ****        24.7500 -12.5000  -0.5000 Du        
   4101 ****        24.7500 -12.5000  -0.2500 Du        
   4102 ****        24.7500 -12.5000   0.0000 Du        
   4103 ****        24.7500 -12.5000   0.2500 Du        
   4104 ****        24.7500 -12.5000   0.5000 Du        
   4105 ****        24.7500 -12.5000   0.7500 Du        
   4106 ****        24.7500 -12.5000   1.0000 Du        
   4107 ****        24.7500 -12.5000   1.2500 Du        
   4108 ****        24.7500 -12.2500  -0.7500 Du        
   4109 ****        24.7500 -12.2500  -0.5000 Du        
   4110 ****        24.7500 -12.2500  -0.2500 Du        
   4111 ****        24.7500 -12.2500   0.0000 Du        
   4112 ****        24.7500 -12.2500   0.2500 Du        
   4113 ****        24.7500 -12.2500   0.5000 Du        
   4114 ****        24.7500 -12.2500   0.7500 Du        
   4115 ****        24.7500 -12.2500   1.0000 Du        
   4116 ****        24.7500 -12.2500   1.2500 Du        
   4117 ****        24.7500 -12.2500   1.5000 Du        
   4118 ****        24.7500 -12.0000  -0.5000 Du        
   4119 ****        24.7500 -12.0000  -0.2500 Du        
   4120 ****        24.7500 -12.0000   0.0000 Du        
   4121 ****        24.7500 -12.0000   0.2500 Du        
   4122 ****        24.7500 -12.0000   0.5000 Du        
   4123 ****        24.7500 -12.0000   0.7500 Du        
   4124 ****        24.7500 -12.0000   1.0000 Du        
   4125 ****        24.7500 -12.0000   1.2500 Du        
   4126 ****        24.7500 -12.0000   1.5000 Du        
   4127 ****        24.7500 -12.0000   1.7500 Du        
   4128 ****        24.7500 -11.7500  -0.2500 Du        
   4129 ****        24.7500 -11.7500   0.0000 Du        
   4130 ****        24.7500 -11.7500   0.2500 Du        
   4131 ****        24.7500 -11.7500   0.5000 Du        
   4132 ****        24.7500 -11.7500   0.7500 Du        
   4133 ****        24.7500 -11.7500   1.0000 Du        
   4134 ****        24.7500 -11.7500   1.2500 Du        
   4135 ****        24.7500 -11.7500   1.5000 Du        
   4136 ****        24.7500 -11.7500   1.7500 Du        
   4137 ****        24.7500 -11.7500   2.0000 Du        
   4138 ****        24.7500 -11.5000  -0.2500 Du        
   4139 ****        24.7500 -11.5000   0.0000 Du        
   4140 ****        24.7500 -11.5000   0.2500 Du        
   4141 ****        24.7500 -11.5000   0.5000 Du        
   4142 ****        24.7500 -11.5000   0.7500 Du        
   4143 ****        24.7500 -11.5000   1.0000 Du        
   4144 ****        24.7500 -11.5000   1.2500 Du        
   4145 ****        24.7500 -11.5000   1.5000 Du        
   4146 ****        24.7500 -11.5000   1.7500 Du        
   4147 ****        24.7500 -11.5000   2.0000 Du        
   4148 ****        24.7500 -11.2500  -0.2500 Du        
   4149 ****        24.7500 -11.2500   0.0000 Du        
   4150 ****        24.7500 -11.2500   0.2500 Du        
   4151 ****        24.7500 -11.2500   0.5000 Du        
   4152 ****        24.7500 -11.2500   0.7500 Du        
   4153 ****        24.7500 -11.2500   1.0000 Du        
   4154 ****        24.7500 -11.2500   1.2500 Du        
   4155 ****        24.7500 -11.2500   1.5000 Du        
   4156 ****        24.7500 -11.2500   1.7500 Du        
   4157 ****        24.7500 -11.2500   2.0000 Du        
   4158 ****        24.7500 -11.0000  -0.2500 Du        
   4159 ****        24.7500 -11.0000   0.0000 Du        
   4160 ****        24.7500 -11.0000   0.2500 Du        
   4161 ****        24.7500 -11.0000   0.5000 Du        
   4162 ****        24.7500 -11.0000   0.7500 Du        
   4163 ****        24.7500 -11.0000   1.0000 Du        
   4164 ****        24.7500 -11.0000   1.2500 Du        
   4165 ****        24.7500 -11.0000   1.5000 Du        
   4166 ****        24.7500 -11.0000   1.7500 Du        
   4167 ****        24.7500 -11.0000   2.0000 Du        
   4168 ****        24.7500 -11.0000   2.2500 Du        
   4169 ****        24.7500 -10.7500  -0.2500 Du        
   4170 ****        24.7500 -10.7500   0.0000 Du        
   4171 ****        24.7500 -10.7500   0.2500 Du        
   4172 ****        24.7500 -10.7500   0.5000 Du        
   4173 ****        24.7500 -10.7500   0.7500 Du        
   4174 ****        24.7500 -10.7500   1.0000 Du        
   4175 ****        24.7500 -10.7500   1.2500 Du        
   4176 ****        24.7500 -10.7500   1.5000 Du        
   4177 ****        24.7500 -10.7500   1.7500 Du        
   4178 ****        24.7500 -10.7500   2.0000 Du        
   4179 ****        24.7500 -10.7500   2.2500 Du        
   4180 ****        24.7500 -10.5000   0.0000 Du        
   4181 ****        24.7500 -10.5000   0.2500 Du        
   4182 ****        24.7500 -10.5000   0.5000 Du        
   4183 ****        24.7500 -10.5000   0.7500 Du        
   4184 ****        24.7500 -10.5000   1.0000 Du        
   4185 ****        24.7500 -10.5000   1.2500 Du        
   4186 ****        24.7500 -10.5000   1.5000 Du        
   4187 ****        24.7500 -10.5000   1.7500 Du        
   4188 ****        24.7500 -10.5000   2.0000 Du        
   4189 ****        24.7500 -10.2500   0.0000 Du        
   4190 ****        24.7500 -10.2500   0.2500 Du        
   4191 ****        24.7500 -10.2500   0.5000 Du        
   4192 ****        24.7500 -10.2500   0.7500 Du        
   4193 ****        24.7500 -10.2500   1.0000 Du        
   4194 ****        24.7500 -10.2500   1.2500 Du        
   4195 ****        24.7500 -10.2500   1.5000 Du        
   4196 ****        24.7500 -10.2500   1.7500 Du        
   4197 ****        24.7500 -10.2500   2.0000 Du        
   4198 ****        24.7500 -10.0000   0.2500 Du        
   4199 ****        24.7500 -10.0000   0.5000 Du        
   4200 ****        24.7500 -10.0000   0.7500 Du        
   4201 ****        24.7500 -10.0000   1.0000 Du        
   4202 ****        24.7500 -10.0000   1.2500 Du        
   4203 ****        24.7500 -10.0000   1.5000 Du        
   4204 ****        24.7500 -10.0000   2.0000 Du        
   4205 ****        24.7500 -10.0000   2.2500 Du        
   4206 ****        24.7500  -9.7500   0.5000 Du        
   4207 ****        24.7500  -9.7500   0.7500 Du        
   4208 ****        24.7500  -9.7500   1.0000 Du        
   4209 ****        24.7500  -9.7500   1.2500 Du        
   4210 ****        24.7500  -9.7500   1.5000 Du        
   4211 ****        24.7500  -9.7500   1.7500 Du        
   4212 ****        24.7500  -9.7500   2.0000 Du        
   4213 ****        24.7500  -9.5000   0.7500 Du        
   4214 ****        24.7500  -9.5000   1.0000 Du        
   4215 ****        24.7500  -9.5000   1.2500 Du        
   4216 ****        24.7500  -9.5000   1.5000 Du        
   4217 ****        24.7500  -9.2500   0.7500 Du        
   4218 ****        24.7500  -9.2500   1.0000 Du        
   4219 ****        24.7500  -9.2500   1.2500 Du        
   4220 ****        24.7500  -9.2500   1.5000 Du        
   4221 ****        24.7500  -9.2500   1.7500 Du        
   4222 ****        24.7500  -9.2500   2.0000 Du        
   4223 ****        24.7500  -9.2500   4.0000 Du        
   4224 ****        24.7500  -9.2500   4.2500 Du        
   4225 ****        24.7500  -9.2500   4.5000 Du        
   4226 ****        24.7500  -9.2500   4.7500 Du        
   4227 ****        24.7500  -9.0000   1.0000 Du        
   4228 ****        24.7500  -9.0000   1.2500 Du        
   4229 ****        24.7500  -9.0000   1.5000 Du        
   4230 ****        24.7500  -9.0000   1.7500 Du        
   4231 ****        24.7500  -9.0000   2.0000 Du        
   4232 ****        24.7500  -9.0000   2.2500 Du        
   4233 ****        24.7500  -9.0000   3.7500 Du        
   4234 ****        24.7500  -9.0000   4.0000 Du        
   4235 ****        24.7500  -9.0000   4.2500 Du        
   4236 ****        24.7500  -9.0000   4.5000 Du        
   4237 ****        24.7500  -9.0000   4.7500 Du        
   4238 ****        24.7500  -9.0000   5.0000 Du        
   4239 ****        24.7500  -8.7500   1.2500 Du        
   4240 ****        24.7500  -8.7500   1.5000 Du        
   4241 ****        24.7500  -8.7500   1.7500 Du        
   4242 ****        24.7500  -8.7500   2.0000 Du        
   4243 ****        24.7500  -8.7500   2.2500 Du        
   4244 ****        24.7500  -8.7500   3.0000 Du        
   4245 ****        24.7500  -8.7500   3.5000 Du        
   4246 ****        24.7500  -8.7500   3.7500 Du        
   4247 ****        24.7500  -8.7500   4.0000 Du        
   4248 ****        24.7500  -8.7500   4.2500 Du        
   4249 ****        24.7500  -8.7500   4.5000 Du        
   4250 ****        24.7500  -8.7500   4.7500 Du        
   4251 ****        24.7500  -8.7500   5.0000 Du        
   4252 ****        24.7500  -8.5000   2.5000 Du        
   4253 ****        24.7500  -8.5000   2.7500 Du        
   4254 ****        24.7500  -8.5000   3.0000 Du        
   4255 ****        24.7500  -8.5000   3.2500 Du        
   4256 ****        24.7500  -8.5000   4.5000 Du        
   4257 ****        24.7500  -8.2500   2.0000 Du        
   4258 ****        24.7500  -8.2500   2.5000 Du        
   4259 ****        24.7500  -8.2500   2.7500 Du        
   4260 ****        24.7500  -8.2500   3.0000 Du        
   4261 ****        24.7500  -8.2500   3.2500 Du        
   4262 ****        24.7500  -8.2500   3.5000 Du        
   4263 ****        24.7500  -8.2500   3.7500 Du        
   4264 ****        24.7500  -8.0000   2.5000 Du        
   4265 ****        24.7500  -8.0000   2.7500 Du        
   4266 ****        24.7500  -8.0000   3.0000 Du        
   4267 ****        24.7500  -8.0000   3.2500 Du        
   4268 ****        24.7500  -8.0000   3.5000 Du        
   4269 ****        24.7500  -8.0000   3.7500 Du        
   4270 ****        24.7500  -8.0000   4.0000 Du        
   4271 ****        24.7500  -7.7500   2.7500 Du        
   4272 ****        24.7500  -7.7500   3.0000 Du        
   4273 ****        24.7500  -7.7500   3.2500 Du        
   4274 ****        24.7500  -7.7500   3.5000 Du        
   4275 ****        24.7500  -7.7500   3.7500 Du        
   4276 ****        24.7500  -7.7500   4.0000 Du        
   4277 ****        24.7500  -7.5000   3.0000 Du        
   4278 ****        24.7500  -7.5000   3.2500 Du        
   4279 ****        24.7500  -7.5000   3.5000 Du        
   4280 ****        24.7500  -7.5000   3.7500 Du        
   4281 ****        24.7500  -7.5000  10.5000 Du        
   4282 ****        24.7500  -7.2500  10.2500 Du        
   4283 ****        24.7500  -7.2500  10.5000 Du        
   4284 ****        24.7500  -7.2500  10.7500 Du        
   4285 ****        24.7500  -7.0000  10.2500 Du        
   4286 ****        24.7500  -7.0000  10.5000 Du        
   4287 ****        24.7500  -7.0000  10.7500 Du        
   4288 ****        24.7500  -6.7500  10.2500 Du        
   4289 ****        24.7500  -6.7500  10.5000 Du        
   4290 ****        24.7500  -6.7500  10.7500 Du        
   4291 ****        25.0000 -14.0000  -0.5000 Du        
   4292 ****        25.0000 -14.0000  -0.2500 Du        
   4293 ****        25.0000 -14.0000   0.0000 Du        
   4294 ****        25.0000 -13.7500  -0.5000 Du        
   4295 ****        25.0000 -13.7500  -0.2500 Du        
   4296 ****        25.0000 -13.7500   0.0000 Du        
   4297 ****        25.0000 -13.7500   0.2500 Du        
   4298 ****        25.0000 -13.5000  -0.5000 Du        
   4299 ****        25.0000 -13.5000  -0.2500 Du        
   4300 ****        25.0000 -13.5000   0.0000 Du        
   4301 ****        25.0000 -13.5000   0.2500 Du        
   4302 ****        25.0000 -13.5000   0.5000 Du        
   4303 ****        25.0000 -13.2500  -0.5000 Du        
   4304 ****        25.0000 -13.2500  -0.2500 Du        
   4305 ****        25.0000 -13.2500   0.0000 Du        
   4306 ****        25.0000 -13.2500   0.2500 Du        
   4307 ****        25.0000 -13.2500   0.5000 Du        
   4308 ****        25.0000 -13.0000  -0.5000 Du        
   4309 ****        25.0000 -13.0000  -0.2500 Du        
   4310 ****        25.0000 -13.0000   0.0000 Du        
   4311 ****        25.0000 -13.0000   0.2500 Du        
   4312 ****        25.0000 -13.0000   0.5000 Du        
   4313 ****        25.0000 -12.7500  -0.5000 Du        
   4314 ****        25.0000 -12.7500  -0.2500 Du        
   4315 ****        25.0000 -12.7500   0.0000 Du        
   4316 ****        25.0000 -12.7500   0.2500 Du        
   4317 ****        25.0000 -12.7500   0.5000 Du        
   4318 ****        25.0000 -12.7500   0.7500 Du        
   4319 ****        25.0000 -12.5000  -0.2500 Du        
   4320 ****        25.0000 -12.5000   0.0000 Du        
   4321 ****        25.0000 -12.5000   0.2500 Du        
   4322 ****        25.0000 -12.5000   0.5000 Du        
   4323 ****        25.0000 -12.5000   0.7500 Du        
   4324 ****        25.0000 -12.2500   0.0000 Du        
   4325 ****        25.0000 -12.2500   0.2500 Du        
   4326 ****        25.0000 -12.2500   0.5000 Du        
   4327 ****        25.0000 -12.2500   0.7500 Du        
   4328 ****        25.0000 -12.2500   1.0000 Du        
   4329 ****        25.0000 -12.0000   0.0000 Du        
   4330 ****        25.0000 -12.0000   0.2500 Du        
   4331 ****        25.0000 -12.0000   0.5000 Du        
   4332 ****        25.0000 -12.0000   0.7500 Du        
   4333 ****        25.0000 -12.0000   1.0000 Du        
   4334 ****        25.0000 -12.0000   1.2500 Du        
   4335 ****        25.0000 -11.7500   0.0000 Du        
   4336 ****        25.0000 -11.7500   0.2500 Du        
   4337 ****        25.0000 -11.7500   0.5000 Du        
   4338 ****        25.0000 -11.7500   0.7500 Du        
   4339 ****        25.0000 -11.7500   1.0000 Du        
   4340 ****        25.0000 -11.7500   1.2500 Du        
   4341 ****        25.0000 -11.7500   1.5000 Du        
   4342 ****        25.0000 -11.7500   1.7500 Du        
   4343 ****        25.0000 -11.5000   0.0000 Du        
   4344 ****        25.0000 -11.5000   0.2500 Du        
   4345 ****        25.0000 -11.5000   0.5000 Du        
   4346 ****        25.0000 -11.5000   0.7500 Du        
   4347 ****        25.0000 -11.5000   1.0000 Du        
   4348 ****        25.0000 -11.5000   1.2500 Du        
   4349 ****        25.0000 -11.5000   1.5000 Du        
   4350 ****        25.0000 -11.5000   1.7500 Du        
   4351 ****        25.0000 -11.5000   2.0000 Du        
   4352 ****        25.0000 -11.2500   0.0000 Du        
   4353 ****        25.0000 -11.2500   0.2500 Du        
   4354 ****        25.0000 -11.2500   0.5000 Du        
   4355 ****        25.0000 -11.2500   0.7500 Du        
   4356 ****        25.0000 -11.2500   1.0000 Du        
   4357 ****        25.0000 -11.2500   1.2500 Du        
   4358 ****        25.0000 -11.2500   1.5000 Du        
   4359 ****        25.0000 -11.2500   1.7500 Du        
   4360 ****        25.0000 -11.2500   2.0000 Du        
   4361 ****        25.0000 -11.2500   2.2500 Du        
   4362 ****        25.0000 -11.0000   0.0000 Du        
   4363 ****        25.0000 -11.0000   0.2500 Du        
   4364 ****        25.0000 -11.0000   0.5000 Du        
   4365 ****        25.0000 -11.0000   0.7500 Du        
   4366 ****        25.0000 -11.0000   1.0000 Du        
   4367 ****        25.0000 -11.0000   1.2500 Du        
   4368 ****        25.0000 -11.0000   1.5000 Du        
   4369 ****        25.0000 -11.0000   1.7500 Du        
   4370 ****        25.0000 -11.0000   2.0000 Du        
   4371 ****        25.0000 -11.0000   2.2500 Du        
   4372 ****        25.0000 -11.0000   2.5000 Du        
   4373 ****        25.0000 -11.0000   2.7500 Du        
   4374 ****        25.0000 -10.7500   0.0000 Du        
   4375 ****        25.0000 -10.7500   0.2500 Du        
   4376 ****        25.0000 -10.7500   0.5000 Du        
   4377 ****        25.0000 -10.7500   0.7500 Du        
   4378 ****        25.0000 -10.7500   1.0000 Du        
   4379 ****        25.0000 -10.7500   1.2500 Du        
   4380 ****        25.0000 -10.7500   1.5000 Du        
   4381 ****        25.0000 -10.7500   1.7500 Du        
   4382 ****        25.0000 -10.7500   2.0000 Du        
   4383 ****        25.0000 -10.7500   2.2500 Du        
   4384 ****        25.0000 -10.7500   2.5000 Du        
   4385 ****        25.0000 -10.7500   2.7500 Du        
   4386 ****        25.0000 -10.5000   0.2500 Du        
   4387 ****        25.0000 -10.5000   0.5000 Du        
   4388 ****        25.0000 -10.5000   0.7500 Du        
   4389 ****        25.0000 -10.5000   1.0000 Du        
   4390 ****        25.0000 -10.5000   1.2500 Du        
   4391 ****        25.0000 -10.5000   1.5000 Du        
   4392 ****        25.0000 -10.5000   1.7500 Du        
   4393 ****        25.0000 -10.5000   2.0000 Du        
   4394 ****        25.0000 -10.5000   2.2500 Du        
   4395 ****        25.0000 -10.5000   2.5000 Du        
   4396 ****        25.0000 -10.5000   2.7500 Du        
   4397 ****        25.0000 -10.2500   0.2500 Du        
   4398 ****        25.0000 -10.2500   0.5000 Du        
   4399 ****        25.0000 -10.2500   0.7500 Du        
   4400 ****        25.0000 -10.2500   1.0000 Du        
   4401 ****        25.0000 -10.2500   1.2500 Du        
   4402 ****        25.0000 -10.2500   1.5000 Du        
   4403 ****        25.0000 -10.2500   1.7500 Du        
   4404 ****        25.0000 -10.2500   2.0000 Du        
   4405 ****        25.0000 -10.2500   2.2500 Du        
   4406 ****        25.0000 -10.2500   2.5000 Du        
   4407 ****        25.0000 -10.2500   2.7500 Du        
   4408 ****        25.0000 -10.2500   3.0000 Du        
   4409 ****        25.0000 -10.0000   0.2500 Du        
   4410 ****        25.0000 -10.0000   0.5000 Du        
   4411 ****        25.0000 -10.0000   0.7500 Du        
   4412 ****        25.0000 -10.0000   1.0000 Du        
   4413 ****        25.0000 -10.0000   1.2500 Du        
   4414 ****        25.0000 -10.0000   1.5000 Du        
   4415 ****        25.0000 -10.0000   1.7500 Du        
   4416 ****        25.0000 -10.0000   2.0000 Du        
   4417 ****        25.0000 -10.0000   2.2500 Du        
   4418 ****        25.0000 -10.0000   2.5000 Du        
   4419 ****        25.0000 -10.0000   2.7500 Du        
   4420 ****        25.0000  -9.7500   0.2500 Du        
   4421 ****        25.0000  -9.7500   0.5000 Du        
   4422 ****        25.0000  -9.7500   0.7500 Du        
   4423 ****        25.0000  -9.7500   1.0000 Du        
   4424 ****        25.0000  -9.7500   1.2500 Du        
   4425 ****        25.0000  -9.7500   1.5000 Du        
   4426 ****        25.0000  -9.7500   1.7500 Du        
   4427 ****        25.0000  -9.7500   2.0000 Du        
   4428 ****        25.0000  -9.7500   2.2500 Du        
   4429 ****        25.0000  -9.5000   0.7500 Du        
   4430 ****        25.0000  -9.5000   1.0000 Du        
   4431 ****        25.0000  -9.5000   1.2500 Du        
   4432 ****        25.0000  -9.5000   1.5000 Du        
   4433 ****        25.0000  -9.5000   1.7500 Du        
   4434 ****        25.0000  -9.5000   2.0000 Du        
   4435 ****        25.0000  -9.5000   4.0000 Du        
   4436 ****        25.0000  -9.2500   0.7500 Du        
   4437 ****        25.0000  -9.2500   1.0000 Du        
   4438 ****        25.0000  -9.2500   1.2500 Du        
   4439 ****        25.0000  -9.2500   1.5000 Du        
   4440 ****        25.0000  -9.2500   1.7500 Du        
   4441 ****        25.0000  -9.2500   2.0000 Du        
   4442 ****        25.0000  -9.2500   2.2500 Du        
   4443 ****        25.0000  -9.2500   2.5000 Du        
   4444 ****        25.0000  -9.2500   2.7500 Du        
   4445 ****        25.0000  -9.2500   3.0000 Du        
   4446 ****        25.0000  -9.2500   3.7500 Du        
   4447 ****        25.0000  -9.2500   4.0000 Du        
   4448 ****        25.0000  -9.2500   4.2500 Du        
   4449 ****        25.0000  -9.2500   4.5000 Du        
   4450 ****        25.0000  -9.2500   4.7500 Du        
   4451 ****        25.0000  -9.0000   0.7500 Du        
   4452 ****        25.0000  -9.0000   1.0000 Du        
   4453 ****        25.0000  -9.0000   1.2500 Du        
   4454 ****        25.0000  -9.0000   1.5000 Du        
   4455 ****        25.0000  -9.0000   1.7500 Du        
   4456 ****        25.0000  -9.0000   2.0000 Du        
   4457 ****        25.0000  -9.0000   2.2500 Du        
   4458 ****        25.0000  -9.0000   2.5000 Du        
   4459 ****        25.0000  -9.0000   2.7500 Du        
   4460 ****        25.0000  -9.0000   3.0000 Du        
   4461 ****        25.0000  -9.0000   3.2500 Du        
   4462 ****        25.0000  -9.0000   3.5000 Du        
   4463 ****        25.0000  -9.0000   3.7500 Du        
   4464 ****        25.0000  -9.0000   4.0000 Du        
   4465 ****        25.0000  -9.0000   4.2500 Du        
   4466 ****        25.0000  -9.0000   4.5000 Du        
   4467 ****        25.0000  -9.0000   4.7500 Du        
   4468 ****        25.0000  -9.0000   5.0000 Du        
   4469 ****        25.0000  -8.7500   1.2500 Du        
   4470 ****        25.0000  -8.7500   1.5000 Du        
   4471 ****        25.0000  -8.7500   1.7500 Du        
   4472 ****        25.0000  -8.7500   2.0000 Du        
   4473 ****        25.0000  -8.7500   2.2500 Du        
   4474 ****        25.0000  -8.7500   2.7500 Du        
   4475 ****        25.0000  -8.7500   3.0000 Du        
   4476 ****        25.0000  -8.7500   3.2500 Du        
   4477 ****        25.0000  -8.7500   3.7500 Du        
   4478 ****        25.0000  -8.7500   4.0000 Du        
   4479 ****        25.0000  -8.7500   4.2500 Du        
   4480 ****        25.0000  -8.7500   4.5000 Du        
   4481 ****        25.0000  -8.7500   4.7500 Du        
   4482 ****        25.0000  -8.5000   1.2500 Du        
   4483 ****        25.0000  -8.5000   2.0000 Du        
   4484 ****        25.0000  -8.5000   2.5000 Du        
   4485 ****        25.0000  -8.5000   2.7500 Du        
   4486 ****        25.0000  -8.5000   3.0000 Du        
   4487 ****        25.0000  -8.5000   3.2500 Du        
   4488 ****        25.0000  -8.5000   3.5000 Du        
   4489 ****        25.0000  -8.5000   3.7500 Du        
   4490 ****        25.0000  -8.2500   2.0000 Du        
   4491 ****        25.0000  -8.2500   2.5000 Du        
   4492 ****        25.0000  -8.2500   2.7500 Du        
   4493 ****        25.0000  -8.2500   3.0000 Du        
   4494 ****        25.0000  -8.2500   3.2500 Du        
   4495 ****        25.0000  -8.2500   3.5000 Du        
   4496 ****        25.0000  -8.2500   3.7500 Du        
   4497 ****        25.0000  -8.2500   4.0000 Du        
   4498 ****        25.0000  -8.0000   2.5000 Du        
   4499 ****        25.0000  -8.0000   2.7500 Du        
   4500 ****        25.0000  -8.0000   3.0000 Du        
   4501 ****        25.0000  -8.0000   3.2500 Du        
   4502 ****        25.0000  -8.0000   3.5000 Du        
   4503 ****        25.0000  -8.0000   3.7500 Du        
   4504 ****        25.0000  -8.0000   4.0000 Du        
   4505 ****        25.0000  -7.7500   2.7500 Du        
   4506 ****        25.0000  -7.7500   3.0000 Du        
   4507 ****        25.0000  -7.7500   3.2500 Du        
   4508 ****        25.0000  -7.7500   3.5000 Du        
   4509 ****        25.0000  -7.7500   3.7500 Du        
   4510 ****        25.0000  -7.7500   4.0000 Du        
   4511 ****        25.0000  -7.5000   3.2500 Du        
   4512 ****        25.0000  -7.5000   3.5000 Du        
   4513 ****        25.0000  -7.5000   3.7500 Du        
   4514 ****        25.0000  -7.5000  10.2500 Du        
   4515 ****        25.0000  -7.5000  10.5000 Du        
   4516 ****        25.0000  -7.2500  10.2500 Du        
   4517 ****        25.0000  -7.2500  10.5000 Du        
   4518 ****        25.0000  -7.2500  10.7500 Du        
   4519 ****        25.0000  -7.0000  10.2500 Du        
   4520 ****        25.0000  -7.0000  10.5000 Du        
   4521 ****        25.0000  -7.0000  10.7500 Du        
   4522 ****        25.0000  -6.7500  10.5000 Du        
   4523 ****        25.0000  -6.7500  10.7500 Du        
   4524 ****        25.2500 -11.7500   0.5000 Du        
   4525 ****        25.2500 -11.7500   0.7500 Du        
   4526 ****        25.2500 -11.5000   0.5000 Du        
   4527 ****        25.2500 -11.5000   0.7500 Du        
   4528 ****        25.2500 -11.5000   1.0000 Du        
   4529 ****        25.2500 -11.2500   0.5000 Du        
   4530 ****        25.2500 -11.2500   0.7500 Du        
   4531 ****        25.2500 -11.2500   1.0000 Du        
   4532 ****        25.2500 -11.2500   1.2500 Du        
   4533 ****        25.2500 -11.2500   1.5000 Du        
   4534 ****        25.2500 -11.2500   1.7500 Du        
   4535 ****        25.2500 -11.2500   2.0000 Du        
   4536 ****        25.2500 -11.2500   2.2500 Du        
   4537 ****        25.2500 -11.2500   2.5000 Du        
   4538 ****        25.2500 -11.2500   2.7500 Du        
   4539 ****        25.2500 -11.0000   0.2500 Du        
   4540 ****        25.2500 -11.0000   0.5000 Du        
   4541 ****        25.2500 -11.0000   0.7500 Du        
   4542 ****        25.2500 -11.0000   1.0000 Du        
   4543 ****        25.2500 -11.0000   1.2500 Du        
   4544 ****        25.2500 -11.0000   1.5000 Du        
   4545 ****        25.2500 -11.0000   1.7500 Du        
   4546 ****        25.2500 -11.0000   2.0000 Du        
   4547 ****        25.2500 -11.0000   2.2500 Du        
   4548 ****        25.2500 -11.0000   2.5000 Du        
   4549 ****        25.2500 -11.0000   2.7500 Du        
   4550 ****        25.2500 -11.0000   3.0000 Du        
   4551 ****        25.2500 -10.7500   0.2500 Du        
   4552 ****        25.2500 -10.7500   0.5000 Du        
   4553 ****        25.2500 -10.7500   0.7500 Du        
   4554 ****        25.2500 -10.7500   1.0000 Du        
   4555 ****        25.2500 -10.7500   1.2500 Du        
   4556 ****        25.2500 -10.7500   1.5000 Du        
   4557 ****        25.2500 -10.7500   1.7500 Du        
   4558 ****        25.2500 -10.7500   2.0000 Du        
   4559 ****        25.2500 -10.7500   2.2500 Du        
   4560 ****        25.2500 -10.7500   2.5000 Du        
   4561 ****        25.2500 -10.7500   2.7500 Du        
   4562 ****        25.2500 -10.7500   3.0000 Du        
   4563 ****        25.2500 -10.5000   0.5000 Du        
   4564 ****        25.2500 -10.5000   0.7500 Du        
   4565 ****        25.2500 -10.5000   1.0000 Du        
   4566 ****        25.2500 -10.5000   1.2500 Du        
   4567 ****        25.2500 -10.5000   1.5000 Du        
   4568 ****        25.2500 -10.5000   1.7500 Du        
   4569 ****        25.2500 -10.5000   2.0000 Du        
   4570 ****        25.2500 -10.5000   2.2500 Du        
   4571 ****        25.2500 -10.5000   2.5000 Du        
   4572 ****        25.2500 -10.5000   2.7500 Du        
   4573 ****        25.2500 -10.5000   3.0000 Du        
   4574 ****        25.2500 -10.2500   0.2500 Du        
   4575 ****        25.2500 -10.2500   0.5000 Du        
   4576 ****        25.2500 -10.2500   0.7500 Du        
   4577 ****        25.2500 -10.2500   1.0000 Du        
   4578 ****        25.2500 -10.2500   1.2500 Du        
   4579 ****        25.2500 -10.2500   1.5000 Du        
   4580 ****        25.2500 -10.2500   1.7500 Du        
   4581 ****        25.2500 -10.2500   2.0000 Du        
   4582 ****        25.2500 -10.2500   2.2500 Du        
   4583 ****        25.2500 -10.2500   2.5000 Du        
   4584 ****        25.2500 -10.2500   2.7500 Du        
   4585 ****        25.2500 -10.2500   3.0000 Du        
   4586 ****        25.2500 -10.2500   3.2500 Du        
   4587 ****        25.2500 -10.0000   0.2500 Du        
   4588 ****        25.2500 -10.0000   0.5000 Du        
   4589 ****        25.2500 -10.0000   0.7500 Du        
   4590 ****        25.2500 -10.0000   1.0000 Du        
   4591 ****        25.2500 -10.0000   1.2500 Du        
   4592 ****        25.2500 -10.0000   1.5000 Du        
   4593 ****        25.2500 -10.0000   1.7500 Du        
   4594 ****        25.2500 -10.0000   2.0000 Du        
   4595 ****        25.2500 -10.0000   2.2500 Du        
   4596 ****        25.2500 -10.0000   2.5000 Du        
   4597 ****        25.2500 -10.0000   2.7500 Du        
   4598 ****        25.2500 -10.0000   3.0000 Du        
   4599 ****        25.2500 -10.0000   3.2500 Du        
   4600 ****        25.2500 -10.0000   3.5000 Du        
   4601 ****        25.2500  -9.7500   0.2500 Du        
   4602 ****        25.2500  -9.7500   0.5000 Du        
   4603 ****        25.2500  -9.7500   0.7500 Du        
   4604 ****        25.2500  -9.7500   1.0000 Du        
   4605 ****        25.2500  -9.7500   1.2500 Du        
   4606 ****        25.2500  -9.7500   1.5000 Du        
   4607 ****        25.2500  -9.7500   1.7500 Du        
   4608 ****        25.2500  -9.7500   2.0000 Du        
   4609 ****        25.2500  -9.7500   2.2500 Du        
   4610 ****        25.2500  -9.7500   3.0000 Du        
   4611 ****        25.2500  -9.7500   3.2500 Du        
   4612 ****        25.2500  -9.7500   3.5000 Du        
   4613 ****        25.2500  -9.7500   3.7500 Du        
   4614 ****        25.2500  -9.5000   0.5000 Du        
   4615 ****        25.2500  -9.5000   0.7500 Du        
   4616 ****        25.2500  -9.5000   1.0000 Du        
   4617 ****        25.2500  -9.5000   1.2500 Du        
   4618 ****        25.2500  -9.5000   1.5000 Du        
   4619 ****        25.2500  -9.5000   1.7500 Du        
   4620 ****        25.2500  -9.5000   2.0000 Du        
   4621 ****        25.2500  -9.5000   2.2500 Du        
   4622 ****        25.2500  -9.5000   3.5000 Du        
   4623 ****        25.2500  -9.5000   3.7500 Du        
   4624 ****        25.2500  -9.5000   4.0000 Du        
   4625 ****        25.2500  -9.5000   4.2500 Du        
   4626 ****        25.2500  -9.2500   0.7500 Du        
   4627 ****        25.2500  -9.2500   1.0000 Du        
   4628 ****        25.2500  -9.2500   1.2500 Du        
   4629 ****        25.2500  -9.2500   1.5000 Du        
   4630 ****        25.2500  -9.2500   1.7500 Du        
   4631 ****        25.2500  -9.2500   2.0000 Du        
   4632 ****        25.2500  -9.2500   2.2500 Du        
   4633 ****        25.2500  -9.2500   2.5000 Du        
   4634 ****        25.2500  -9.2500   2.7500 Du        
   4635 ****        25.2500  -9.2500   3.0000 Du        
   4636 ****        25.2500  -9.2500   3.2500 Du        
   4637 ****        25.2500  -9.2500   3.5000 Du        
   4638 ****        25.2500  -9.2500   3.7500 Du        
   4639 ****        25.2500  -9.2500   4.0000 Du        
   4640 ****        25.2500  -9.2500   4.2500 Du        
   4641 ****        25.2500  -9.2500   4.5000 Du        
   4642 ****        25.2500  -9.0000   0.7500 Du        
   4643 ****        25.2500  -9.0000   1.0000 Du        
   4644 ****        25.2500  -9.0000   1.2500 Du        
   4645 ****        25.2500  -9.0000   1.5000 Du        
   4646 ****        25.2500  -9.0000   1.7500 Du        
   4647 ****        25.2500  -9.0000   2.0000 Du        
   4648 ****        25.2500  -9.0000   2.2500 Du        
   4649 ****        25.2500  -9.0000   2.5000 Du        
   4650 ****        25.2500  -9.0000   2.7500 Du        
   4651 ****        25.2500  -9.0000   3.0000 Du        
   4652 ****        25.2500  -9.0000   3.2500 Du        
   4653 ****        25.2500  -9.0000   3.5000 Du        
   4654 ****        25.2500  -9.0000   3.7500 Du        
   4655 ****        25.2500  -9.0000   4.0000 Du        
   4656 ****        25.2500  -9.0000   4.2500 Du        
   4657 ****        25.2500  -8.7500   1.0000 Du        
   4658 ****        25.2500  -8.7500   1.2500 Du        
   4659 ****        25.2500  -8.7500   1.5000 Du        
   4660 ****        25.2500  -8.7500   1.7500 Du        
   4661 ****        25.2500  -8.7500   2.0000 Du        
   4662 ****        25.2500  -8.7500   2.2500 Du        
   4663 ****        25.2500  -8.7500   2.5000 Du        
   4664 ****        25.2500  -8.7500   2.7500 Du        
   4665 ****        25.2500  -8.7500   3.0000 Du        
   4666 ****        25.2500  -8.7500   3.2500 Du        
   4667 ****        25.2500  -8.7500   3.5000 Du        
   4668 ****        25.2500  -8.7500   3.7500 Du        
   4669 ****        25.2500  -8.7500   4.0000 Du        
   4670 ****        25.2500  -8.7500   4.2500 Du        
   4671 ****        25.2500  -8.5000   1.2500 Du        
   4672 ****        25.2500  -8.5000   2.0000 Du        
   4673 ****        25.2500  -8.5000   2.5000 Du        
   4674 ****        25.2500  -8.5000   2.7500 Du        
   4675 ****        25.2500  -8.5000   3.0000 Du        
   4676 ****        25.2500  -8.5000   3.2500 Du        
   4677 ****        25.2500  -8.5000   3.5000 Du        
   4678 ****        25.2500  -8.5000   3.7500 Du        
   4679 ****        25.2500  -8.2500   2.0000 Du        
   4680 ****        25.2500  -8.2500   2.2500 Du        
   4681 ****        25.2500  -8.2500   2.5000 Du        
   4682 ****        25.2500  -8.2500   2.7500 Du        
   4683 ****        25.2500  -8.2500   3.0000 Du        
   4684 ****        25.2500  -8.2500   3.2500 Du        
   4685 ****        25.2500  -8.2500   3.5000 Du        
   4686 ****        25.2500  -8.2500   3.7500 Du        
   4687 ****        25.2500  -8.2500   4.0000 Du        
   4688 ****        25.2500  -8.0000   2.5000 Du        
   4689 ****        25.2500  -8.0000   2.7500 Du        
   4690 ****        25.2500  -8.0000   3.0000 Du        
   4691 ****        25.2500  -8.0000   3.2500 Du        
   4692 ****        25.2500  -8.0000   3.5000 Du        
   4693 ****        25.2500  -8.0000   3.7500 Du        
   4694 ****        25.2500  -8.0000   4.0000 Du        
   4695 ****        25.2500  -7.7500   2.7500 Du        
   4696 ****        25.2500  -7.7500   3.0000 Du        
   4697 ****        25.2500  -7.7500   3.2500 Du        
   4698 ****        25.2500  -7.7500   3.7500 Du        
   4699 ****        25.2500  -7.7500  10.5000 Du        
   4700 ****        25.2500  -7.5000   3.5000 Du        
   4701 ****        25.2500  -7.5000   3.7500 Du        
   4702 ****        25.2500  -7.5000  10.2500 Du        
   4703 ****        25.2500  -7.5000  10.5000 Du        
   4704 ****        25.2500  -7.5000  10.7500 Du        
   4705 ****        25.2500  -7.2500  10.2500 Du        
   4706 ****        25.2500  -7.2500  10.5000 Du        
   4707 ****        25.2500  -7.2500  10.7500 Du        
   4708 ****        25.2500  -7.0000  10.5000 Du        
   4709 ****        25.2500  -7.0000  10.7500 Du        
   4710 ****        25.5000 -11.0000   0.7500 Du        
   4711 ****        25.5000 -11.0000   1.0000 Du        
   4712 ****        25.5000 -11.0000   1.2500 Du        
   4713 ****        25.5000 -11.0000   1.5000 Du        
   4714 ****        25.5000 -11.0000   1.7500 Du        
   4715 ****        25.5000 -11.0000   2.0000 Du        
   4716 ****        25.5000 -11.0000   2.2500 Du        
   4717 ****        25.5000 -11.0000   2.7500 Du        
   4718 ****        25.5000 -11.0000   3.0000 Du        
   4719 ****        25.5000 -10.7500   0.5000 Du        
   4720 ****        25.5000 -10.7500   0.7500 Du        
   4721 ****        25.5000 -10.7500   1.0000 Du        
   4722 ****        25.5000 -10.7500   1.2500 Du        
   4723 ****        25.5000 -10.7500   1.5000 Du        
   4724 ****        25.5000 -10.7500   1.7500 Du        
   4725 ****        25.5000 -10.7500   2.0000 Du        
   4726 ****        25.5000 -10.7500   2.2500 Du        
   4727 ****        25.5000 -10.7500   2.5000 Du        
   4728 ****        25.5000 -10.7500   2.7500 Du        
   4729 ****        25.5000 -10.7500   3.0000 Du        
   4730 ****        25.5000 -10.7500   3.2500 Du        
   4731 ****        25.5000 -10.5000   0.5000 Du        
   4732 ****        25.5000 -10.5000   0.7500 Du        
   4733 ****        25.5000 -10.5000   1.0000 Du        
   4734 ****        25.5000 -10.5000   1.2500 Du        
   4735 ****        25.5000 -10.5000   1.5000 Du        
   4736 ****        25.5000 -10.5000   1.7500 Du        
   4737 ****        25.5000 -10.5000   2.0000 Du        
   4738 ****        25.5000 -10.5000   2.2500 Du        
   4739 ****        25.5000 -10.5000   2.5000 Du        
   4740 ****        25.5000 -10.5000   2.7500 Du        
   4741 ****        25.5000 -10.5000   3.0000 Du        
   4742 ****        25.5000 -10.5000   3.2500 Du        
   4743 ****        25.5000 -10.2500   0.5000 Du        
   4744 ****        25.5000 -10.2500   0.7500 Du        
   4745 ****        25.5000 -10.2500   1.0000 Du        
   4746 ****        25.5000 -10.2500   1.2500 Du        
   4747 ****        25.5000 -10.2500   1.5000 Du        
   4748 ****        25.5000 -10.2500   1.7500 Du        
   4749 ****        25.5000 -10.2500   2.0000 Du        
   4750 ****        25.5000 -10.2500   2.2500 Du        
   4751 ****        25.5000 -10.2500   2.5000 Du        
   4752 ****        25.5000 -10.2500   2.7500 Du        
   4753 ****        25.5000 -10.2500   3.0000 Du        
   4754 ****        25.5000 -10.2500   3.2500 Du        
   4755 ****        25.5000 -10.2500   3.5000 Du        
   4756 ****        25.5000 -10.0000   0.2500 Du        
   4757 ****        25.5000 -10.0000   0.5000 Du        
   4758 ****        25.5000 -10.0000   0.7500 Du        
   4759 ****        25.5000 -10.0000   1.0000 Du        
   4760 ****        25.5000 -10.0000   1.2500 Du        
   4761 ****        25.5000 -10.0000   1.5000 Du        
   4762 ****        25.5000 -10.0000   1.7500 Du        
   4763 ****        25.5000 -10.0000   2.0000 Du        
   4764 ****        25.5000 -10.0000   2.2500 Du        
   4765 ****        25.5000 -10.0000   2.5000 Du        
   4766 ****        25.5000 -10.0000   2.7500 Du        
   4767 ****        25.5000 -10.0000   3.0000 Du        
   4768 ****        25.5000 -10.0000   3.2500 Du        
   4769 ****        25.5000 -10.0000   3.5000 Du        
   4770 ****        25.5000 -10.0000   3.7500 Du        
   4771 ****        25.5000  -9.7500   0.5000 Du        
   4772 ****        25.5000  -9.7500   0.7500 Du        
   4773 ****        25.5000  -9.7500   1.0000 Du        
   4774 ****        25.5000  -9.7500   1.2500 Du        
   4775 ****        25.5000  -9.7500   1.5000 Du        
   4776 ****        25.5000  -9.7500   1.7500 Du        
   4777 ****        25.5000  -9.7500   2.0000 Du        
   4778 ****        25.5000  -9.7500   2.2500 Du        
   4779 ****        25.5000  -9.7500   2.5000 Du        
   4780 ****        25.5000  -9.7500   2.7500 Du        
   4781 ****        25.5000  -9.7500   3.0000 Du        
   4782 ****        25.5000  -9.7500   3.2500 Du        
   4783 ****        25.5000  -9.7500   3.5000 Du        
   4784 ****        25.5000  -9.7500   3.7500 Du        
   4785 ****        25.5000  -9.7500   4.0000 Du        
   4786 ****        25.5000  -9.5000   0.5000 Du        
   4787 ****        25.5000  -9.5000   0.7500 Du        
   4788 ****        25.5000  -9.5000   1.0000 Du        
   4789 ****        25.5000  -9.5000   1.2500 Du        
   4790 ****        25.5000  -9.5000   1.5000 Du        
   4791 ****        25.5000  -9.5000   1.7500 Du        
   4792 ****        25.5000  -9.5000   3.5000 Du        
   4793 ****        25.5000  -9.2500   0.5000 Du        
   4794 ****        25.5000  -9.2500   0.7500 Du        
   4795 ****        25.5000  -9.2500   1.0000 Du        
   4796 ****        25.5000  -9.2500   1.2500 Du        
   4797 ****        25.5000  -9.2500   1.5000 Du        
   4798 ****        25.5000  -9.2500   1.7500 Du        
   4799 ****        25.5000  -9.2500   2.0000 Du        
   4800 ****        25.5000  -9.2500   2.2500 Du        
   4801 ****        25.5000  -9.2500   2.7500 Du        
   4802 ****        25.5000  -9.2500   3.2500 Du        
   4803 ****        25.5000  -9.2500   3.5000 Du        
   4804 ****        25.5000  -9.2500   3.7500 Du        
   4805 ****        25.5000  -9.0000   0.7500 Du        
   4806 ****        25.5000  -9.0000   1.0000 Du        
   4807 ****        25.5000  -9.0000   1.2500 Du        
   4808 ****        25.5000  -9.0000   1.5000 Du        
   4809 ****        25.5000  -9.0000   1.7500 Du        
   4810 ****        25.5000  -9.0000   2.0000 Du        
   4811 ****        25.5000  -9.0000   2.2500 Du        
   4812 ****        25.5000  -9.0000   2.5000 Du        
   4813 ****        25.5000  -9.0000   2.7500 Du        
   4814 ****        25.5000  -9.0000   3.0000 Du        
   4815 ****        25.5000  -9.0000   3.2500 Du        
   4816 ****        25.5000  -9.0000   3.5000 Du        
   4817 ****        25.5000  -9.0000   3.7500 Du        
   4818 ****        25.5000  -9.0000   4.0000 Du        
   4819 ****        25.5000  -9.0000   4.2500 Du        
   4820 ****        25.5000  -8.7500   0.7500 Du        
   4821 ****        25.5000  -8.7500   1.0000 Du        
   4822 ****        25.5000  -8.7500   1.2500 Du        
   4823 ****        25.5000  -8.7500   1.5000 Du        
   4824 ****        25.5000  -8.7500   1.7500 Du        
   4825 ****        25.5000  -8.7500   2.0000 Du        
   4826 ****        25.5000  -8.7500   2.2500 Du        
   4827 ****        25.5000  -8.7500   2.5000 Du        
   4828 ****        25.5000  -8.7500   2.7500 Du        
   4829 ****        25.5000  -8.7500   3.0000 Du        
   4830 ****        25.5000  -8.7500   3.2500 Du        
   4831 ****        25.5000  -8.7500   3.5000 Du        
   4832 ****        25.5000  -8.7500   3.7500 Du        
   4833 ****        25.5000  -8.7500   4.0000 Du        
   4834 ****        25.5000  -8.7500   4.2500 Du        
   4835 ****        25.5000  -8.5000   1.2500 Du        
   4836 ****        25.5000  -8.5000   1.5000 Du        
   4837 ****        25.5000  -8.5000   1.7500 Du        
   4838 ****        25.5000  -8.5000   2.0000 Du        
   4839 ****        25.5000  -8.5000   2.5000 Du        
   4840 ****        25.5000  -8.5000   2.7500 Du        
   4841 ****        25.5000  -8.5000   3.0000 Du        
   4842 ****        25.5000  -8.5000   3.2500 Du        
   4843 ****        25.5000  -8.5000   3.7500 Du        
   4844 ****        25.5000  -8.5000   4.0000 Du        
   4845 ****        25.5000  -8.2500   1.5000 Du        
   4846 ****        25.5000  -8.2500   1.7500 Du        
   4847 ****        25.5000  -8.2500   2.0000 Du        
   4848 ****        25.5000  -8.2500   2.2500 Du        
   4849 ****        25.5000  -8.2500   2.5000 Du        
   4850 ****        25.5000  -8.2500   2.7500 Du        
   4851 ****        25.5000  -8.2500   3.0000 Du        
   4852 ****        25.5000  -8.2500   3.2500 Du        
   4853 ****        25.5000  -8.2500   3.5000 Du        
   4854 ****        25.5000  -8.2500   3.7500 Du        
   4855 ****        25.5000  -8.2500   4.0000 Du        
   4856 ****        25.5000  -8.0000   2.5000 Du        
   4857 ****        25.5000  -8.0000   2.7500 Du        
   4858 ****        25.5000  -8.0000   3.0000 Du        
   4859 ****        25.5000  -8.0000   3.2500 Du        
   4860 ****        25.5000  -8.0000   3.5000 Du        
   4861 ****        25.5000  -8.0000   3.7500 Du        
   4862 ****        25.5000  -8.0000   4.0000 Du        
   4863 ****        25.5000  -7.7500   2.7500 Du        
   4864 ****        25.5000  -7.7500   3.0000 Du        
   4865 ****        25.5000  -7.7500   3.2500 Du        
   4866 ****        25.5000  -7.7500   3.5000 Du        
   4867 ****        25.5000  -7.7500  10.2500 Du        
   4868 ****        25.5000  -7.7500  10.5000 Du        
   4869 ****        25.5000  -7.7500  10.7500 Du        
   4870 ****        25.5000  -7.5000  10.2500 Du        
   4871 ****        25.5000  -7.5000  10.5000 Du        
   4872 ****        25.5000  -7.5000  10.7500 Du        
   4873 ****        25.5000  -7.2500  10.2500 Du        
   4874 ****        25.5000  -7.2500  10.5000 Du        
   4875 ****        25.5000  -7.2500  10.7500 Du        
   4876 ****        25.5000  -7.0000  10.5000 Du        
   4877 ****        25.5000  -7.0000  10.7500 Du        
   4878 ****        25.7500 -10.7500   0.7500 Du        
   4879 ****        25.7500 -10.7500   1.0000 Du        
   4880 ****        25.7500 -10.7500   1.2500 Du        
   4881 ****        25.7500 -10.7500   1.5000 Du        
   4882 ****        25.7500 -10.7500   1.7500 Du        
   4883 ****        25.7500 -10.7500   2.7500 Du        
   4884 ****        25.7500 -10.7500   3.0000 Du        
   4885 ****        25.7500 -10.7500   3.2500 Du        
   4886 ****        25.7500 -10.5000   0.7500 Du        
   4887 ****        25.7500 -10.5000   1.0000 Du        
   4888 ****        25.7500 -10.5000   1.2500 Du        
   4889 ****        25.7500 -10.5000   1.5000 Du        
   4890 ****        25.7500 -10.5000   1.7500 Du        
   4891 ****        25.7500 -10.5000   2.0000 Du        
   4892 ****        25.7500 -10.5000   2.2500 Du        
   4893 ****        25.7500 -10.5000   2.5000 Du        
   4894 ****        25.7500 -10.5000   2.7500 Du        
   4895 ****        25.7500 -10.5000   3.0000 Du        
   4896 ****        25.7500 -10.5000   3.2500 Du        
   4897 ****        25.7500 -10.2500   0.5000 Du        
   4898 ****        25.7500 -10.2500   0.7500 Du        
   4899 ****        25.7500 -10.2500   1.0000 Du        
   4900 ****        25.7500 -10.2500   1.2500 Du        
   4901 ****        25.7500 -10.2500   1.5000 Du        
   4902 ****        25.7500 -10.2500   1.7500 Du        
   4903 ****        25.7500 -10.2500   2.0000 Du        
   4904 ****        25.7500 -10.2500   2.2500 Du        
   4905 ****        25.7500 -10.2500   2.5000 Du        
   4906 ****        25.7500 -10.2500   2.7500 Du        
   4907 ****        25.7500 -10.2500   3.0000 Du        
   4908 ****        25.7500 -10.2500   3.2500 Du        
   4909 ****        25.7500 -10.2500   3.5000 Du        
   4910 ****        25.7500 -10.0000   0.5000 Du        
   4911 ****        25.7500 -10.0000   0.7500 Du        
   4912 ****        25.7500 -10.0000   1.0000 Du        
   4913 ****        25.7500 -10.0000   1.2500 Du        
   4914 ****        25.7500 -10.0000   1.5000 Du        
   4915 ****        25.7500 -10.0000   1.7500 Du        
   4916 ****        25.7500 -10.0000   2.0000 Du        
   4917 ****        25.7500 -10.0000   2.2500 Du        
   4918 ****        25.7500 -10.0000   2.5000 Du        
   4919 ****        25.7500 -10.0000   2.7500 Du        
   4920 ****        25.7500 -10.0000   3.0000 Du        
   4921 ****        25.7500 -10.0000   3.2500 Du        
   4922 ****        25.7500 -10.0000   3.5000 Du        
   4923 ****        25.7500 -10.0000   3.7500 Du        
   4924 ****        25.7500  -9.7500   0.2500 Du        
   4925 ****        25.7500  -9.7500   0.5000 Du        
   4926 ****        25.7500  -9.7500   0.7500 Du        
   4927 ****        25.7500  -9.7500   1.0000 Du        
   4928 ****        25.7500  -9.7500   1.2500 Du        
   4929 ****        25.7500  -9.7500   1.5000 Du        
   4930 ****        25.7500  -9.7500   1.7500 Du        
   4931 ****        25.7500  -9.7500   2.0000 Du        
   4932 ****        25.7500  -9.7500   2.2500 Du        
   4933 ****        25.7500  -9.7500   2.5000 Du        
   4934 ****        25.7500  -9.7500   2.7500 Du        
   4935 ****        25.7500  -9.7500   3.0000 Du        
   4936 ****        25.7500  -9.7500   3.2500 Du        
   4937 ****        25.7500  -9.7500   3.5000 Du        
   4938 ****        25.7500  -9.7500   3.7500 Du        
   4939 ****        25.7500  -9.7500   4.0000 Du        
   4940 ****        25.7500  -9.5000   0.2500 Du        
   4941 ****        25.7500  -9.5000   0.5000 Du        
   4942 ****        25.7500  -9.5000   0.7500 Du        
   4943 ****        25.7500  -9.5000   1.0000 Du        
   4944 ****        25.7500  -9.5000   1.2500 Du        
   4945 ****        25.7500  -9.5000   1.5000 Du        
   4946 ****        25.7500  -9.5000   1.7500 Du        
   4947 ****        25.7500  -9.5000   2.0000 Du        
   4948 ****        25.7500  -9.5000   2.2500 Du        
   4949 ****        25.7500  -9.5000   2.5000 Du        
   4950 ****        25.7500  -9.5000   2.7500 Du        
   4951 ****        25.7500  -9.5000   3.0000 Du        
   4952 ****        25.7500  -9.5000   3.5000 Du        
   4953 ****        25.7500  -9.5000   3.7500 Du        
   4954 ****        25.7500  -9.2500   0.2500 Du        
   4955 ****        25.7500  -9.2500   0.5000 Du        
   4956 ****        25.7500  -9.2500   0.7500 Du        
   4957 ****        25.7500  -9.2500   1.0000 Du        
   4958 ****        25.7500  -9.2500   1.2500 Du        
   4959 ****        25.7500  -9.2500   1.5000 Du        
   4960 ****        25.7500  -9.2500   1.7500 Du        
   4961 ****        25.7500  -9.2500   2.0000 Du        
   4962 ****        25.7500  -9.2500   2.2500 Du        
   4963 ****        25.7500  -9.2500   2.7500 Du        
   4964 ****        25.7500  -9.2500   3.0000 Du        
   4965 ****        25.7500  -9.2500   3.2500 Du        
   4966 ****        25.7500  -9.2500   3.5000 Du        
   4967 ****        25.7500  -9.2500   3.7500 Du        
   4968 ****        25.7500  -9.2500   4.0000 Du        
   4969 ****        25.7500  -9.0000   0.5000 Du        
   4970 ****        25.7500  -9.0000   0.7500 Du        
   4971 ****        25.7500  -9.0000   1.0000 Du        
   4972 ****        25.7500  -9.0000   1.2500 Du        
   4973 ****        25.7500  -9.0000   1.5000 Du        
   4974 ****        25.7500  -9.0000   1.7500 Du        
   4975 ****        25.7500  -9.0000   2.0000 Du        
   4976 ****        25.7500  -9.0000   2.2500 Du        
   4977 ****        25.7500  -9.0000   2.5000 Du        
   4978 ****        25.7500  -9.0000   2.7500 Du        
   4979 ****        25.7500  -9.0000   3.0000 Du        
   4980 ****        25.7500  -9.0000   3.2500 Du        
   4981 ****        25.7500  -9.0000   3.5000 Du        
   4982 ****        25.7500  -9.0000   3.7500 Du        
   4983 ****        25.7500  -9.0000   4.0000 Du        
   4984 ****        25.7500  -9.0000   4.2500 Du        
   4985 ****        25.7500  -8.7500   0.7500 Du        
   4986 ****        25.7500  -8.7500   1.0000 Du        
   4987 ****        25.7500  -8.7500   1.2500 Du        
   4988 ****        25.7500  -8.7500   1.5000 Du        
   4989 ****        25.7500  -8.7500   1.7500 Du        
   4990 ****        25.7500  -8.7500   2.0000 Du        
   4991 ****        25.7500  -8.7500   2.2500 Du        
   4992 ****        25.7500  -8.7500   2.5000 Du        
   4993 ****        25.7500  -8.7500   2.7500 Du        
   4994 ****        25.7500  -8.7500   3.0000 Du        
   4995 ****        25.7500  -8.7500   3.2500 Du        
   4996 ****        25.7500  -8.7500   3.5000 Du        
   4997 ****        25.7500  -8.7500   3.7500 Du        
   4998 ****        25.7500  -8.7500   4.0000 Du        
   4999 ****        25.7500  -8.7500   4.2500 Du        
   5000 ****        25.7500  -8.5000   1.0000 Du        
   5001 ****        25.7500  -8.5000   1.2500 Du        
   5002 ****        25.7500  -8.5000   1.5000 Du        
   5003 ****        25.7500  -8.5000   1.7500 Du        
   5004 ****        25.7500  -8.5000   2.0000 Du        
   5005 ****        25.7500  -8.5000   2.5000 Du        
   5006 ****        25.7500  -8.5000   2.7500 Du        
   5007 ****        25.7500  -8.5000   3.0000 Du        
   5008 ****        25.7500  -8.5000   3.2500 Du        
   5009 ****        25.7500  -8.5000   3.5000 Du        
   5010 ****        25.7500  -8.5000   3.7500 Du        
   5011 ****        25.7500  -8.2500   1.2500 Du        
   5012 ****        25.7500  -8.2500   1.5000 Du        
   5013 ****        25.7500  -8.2500   1.7500 Du        
   5014 ****        25.7500  -8.2500   2.0000 Du        
   5015 ****        25.7500  -8.2500   2.2500 Du        
   5016 ****        25.7500  -8.2500   2.5000 Du        
   5017 ****        25.7500  -8.2500   2.7500 Du        
   5018 ****        25.7500  -8.2500   3.0000 Du        
   5019 ****        25.7500  -8.2500   3.2500 Du        
   5020 ****        25.7500  -8.2500   3.5000 Du        
   5021 ****        25.7500  -8.2500   3.7500 Du        
   5022 ****        25.7500  -8.2500   4.0000 Du        
   5023 ****        25.7500  -8.0000   2.0000 Du        
   5024 ****        25.7500  -8.0000   2.5000 Du        
   5025 ****        25.7500  -8.0000   2.7500 Du        
   5026 ****        25.7500  -8.0000   3.0000 Du        
   5027 ****        25.7500  -8.0000   3.2500 Du        
   5028 ****        25.7500  -8.0000   3.5000 Du        
   5029 ****        25.7500  -8.0000   3.7500 Du        
   5030 ****        25.7500  -8.0000   4.0000 Du        
   5031 ****        25.7500  -8.0000  10.2500 Du        
   5032 ****        25.7500  -8.0000  10.5000 Du        
   5033 ****        25.7500  -7.7500   2.7500 Du        
   5034 ****        25.7500  -7.7500   3.0000 Du        
   5035 ****        25.7500  -7.7500   3.2500 Du        
   5036 ****        25.7500  -7.7500   3.5000 Du        
   5037 ****        25.7500  -7.7500   3.7500 Du        
   5038 ****        25.7500  -7.7500  10.2500 Du        
   5039 ****        25.7500  -7.7500  10.5000 Du        
   5040 ****        25.7500  -7.7500  10.7500 Du        
   5041 ****        25.7500  -7.5000  10.2500 Du        
   5042 ****        25.7500  -7.5000  10.5000 Du        
   5043 ****        25.7500  -7.5000  10.7500 Du        
   5044 ****        25.7500  -7.2500  10.5000 Du        
   5045 ****        25.7500  -7.2500  10.7500 Du        
   5046 ****        25.7500  -7.2500  11.0000 Du        
   5047 ****        25.7500  -7.0000  10.7500 Du        
   5048 ****        26.0000 -10.7500   3.0000 Du        
   5049 ****        26.0000 -10.7500   3.2500 Du        
   5050 ****        26.0000 -10.5000   1.0000 Du        
   5051 ****        26.0000 -10.5000   1.2500 Du        
   5052 ****        26.0000 -10.5000   2.7500 Du        
   5053 ****        26.0000 -10.5000   3.0000 Du        
   5054 ****        26.0000 -10.5000   3.2500 Du        
   5055 ****        26.0000 -10.2500   0.7500 Du        
   5056 ****        26.0000 -10.2500   1.0000 Du        
   5057 ****        26.0000 -10.2500   1.2500 Du        
   5058 ****        26.0000 -10.2500   1.5000 Du        
   5059 ****        26.0000 -10.2500   1.7500 Du        
   5060 ****        26.0000 -10.2500   2.0000 Du        
   5061 ****        26.0000 -10.2500   2.2500 Du        
   5062 ****        26.0000 -10.2500   2.5000 Du        
   5063 ****        26.0000 -10.2500   2.7500 Du        
   5064 ****        26.0000 -10.2500   3.0000 Du        
   5065 ****        26.0000 -10.2500   3.2500 Du        
   5066 ****        26.0000 -10.2500   3.5000 Du        
   5067 ****        26.0000 -10.0000   0.5000 Du        
   5068 ****        26.0000 -10.0000   0.7500 Du        
   5069 ****        26.0000 -10.0000   1.0000 Du        
   5070 ****        26.0000 -10.0000   1.2500 Du        
   5071 ****        26.0000 -10.0000   1.5000 Du        
   5072 ****        26.0000 -10.0000   1.7500 Du        
   5073 ****        26.0000 -10.0000   2.0000 Du        
   5074 ****        26.0000 -10.0000   2.2500 Du        
   5075 ****        26.0000 -10.0000   2.5000 Du        
   5076 ****        26.0000 -10.0000   2.7500 Du        
   5077 ****        26.0000 -10.0000   3.0000 Du        
   5078 ****        26.0000 -10.0000   3.2500 Du        
   5079 ****        26.0000 -10.0000   3.5000 Du        
   5080 ****        26.0000 -10.0000   3.7500 Du        
   5081 ****        26.0000  -9.7500   0.2500 Du        
   5082 ****        26.0000  -9.7500   0.5000 Du        
   5083 ****        26.0000  -9.7500   0.7500 Du        
   5084 ****        26.0000  -9.7500   1.0000 Du        
   5085 ****        26.0000  -9.7500   1.2500 Du        
   5086 ****        26.0000  -9.7500   1.5000 Du        
   5087 ****        26.0000  -9.7500   1.7500 Du        
   5088 ****        26.0000  -9.7500   2.0000 Du        
   5089 ****        26.0000  -9.7500   2.2500 Du        
   5090 ****        26.0000  -9.7500   2.5000 Du        
   5091 ****        26.0000  -9.7500   2.7500 Du        
   5092 ****        26.0000  -9.7500   3.0000 Du        
   5093 ****        26.0000  -9.7500   3.2500 Du        
   5094 ****        26.0000  -9.7500   3.5000 Du        
   5095 ****        26.0000  -9.7500   3.7500 Du        
   5096 ****        26.0000  -9.7500   4.0000 Du        
   5097 ****        26.0000  -9.5000   0.2500 Du        
   5098 ****        26.0000  -9.5000   0.5000 Du        
   5099 ****        26.0000  -9.5000   0.7500 Du        
   5100 ****        26.0000  -9.5000   1.0000 Du        
   5101 ****        26.0000  -9.5000   1.2500 Du        
   5102 ****        26.0000  -9.5000   1.5000 Du        
   5103 ****        26.0000  -9.5000   1.7500 Du        
   5104 ****        26.0000  -9.5000   2.0000 Du        
   5105 ****        26.0000  -9.5000   2.2500 Du        
   5106 ****        26.0000  -9.5000   2.5000 Du        
   5107 ****        26.0000  -9.5000   2.7500 Du        
   5108 ****        26.0000  -9.5000   3.0000 Du        
   5109 ****        26.0000  -9.5000   3.2500 Du        
   5110 ****        26.0000  -9.5000   3.5000 Du        
   5111 ****        26.0000  -9.5000   3.7500 Du        
   5112 ****        26.0000  -9.2500   0.2500 Du        
   5113 ****        26.0000  -9.2500   0.5000 Du        
   5114 ****        26.0000  -9.2500   0.7500 Du        
   5115 ****        26.0000  -9.2500   1.0000 Du        
   5116 ****        26.0000  -9.2500   1.2500 Du        
   5117 ****        26.0000  -9.2500   1.5000 Du        
   5118 ****        26.0000  -9.2500   1.7500 Du        
   5119 ****        26.0000  -9.2500   2.0000 Du        
   5120 ****        26.0000  -9.2500   2.2500 Du        
   5121 ****        26.0000  -9.2500   2.5000 Du        
   5122 ****        26.0000  -9.2500   2.7500 Du        
   5123 ****        26.0000  -9.2500   3.0000 Du        
   5124 ****        26.0000  -9.2500   3.2500 Du        
   5125 ****        26.0000  -9.2500   3.5000 Du        
   5126 ****        26.0000  -9.2500   3.7500 Du        
   5127 ****        26.0000  -9.2500   4.0000 Du        
   5128 ****        26.0000  -9.0000   0.5000 Du        
   5129 ****        26.0000  -9.0000   0.7500 Du        
   5130 ****        26.0000  -9.0000   1.0000 Du        
   5131 ****        26.0000  -9.0000   1.2500 Du        
   5132 ****        26.0000  -9.0000   1.5000 Du        
   5133 ****        26.0000  -9.0000   1.7500 Du        
   5134 ****        26.0000  -9.0000   2.0000 Du        
   5135 ****        26.0000  -9.0000   2.2500 Du        
   5136 ****        26.0000  -9.0000   2.5000 Du        
   5137 ****        26.0000  -9.0000   2.7500 Du        
   5138 ****        26.0000  -9.0000   3.0000 Du        
   5139 ****        26.0000  -9.0000   3.2500 Du        
   5140 ****        26.0000  -9.0000   3.5000 Du        
   5141 ****        26.0000  -9.0000   3.7500 Du        
   5142 ****        26.0000  -9.0000   4.0000 Du        
   5143 ****        26.0000  -9.0000   4.2500 Du        
   5144 ****        26.0000  -8.7500   0.7500 Du        
   5145 ****        26.0000  -8.7500   1.0000 Du        
   5146 ****        26.0000  -8.7500   1.2500 Du        
   5147 ****        26.0000  -8.7500   1.5000 Du        
   5148 ****        26.0000  -8.7500   1.7500 Du        
   5149 ****        26.0000  -8.7500   2.0000 Du        
   5150 ****        26.0000  -8.7500   2.2500 Du        
   5151 ****        26.0000  -8.7500   2.5000 Du        
   5152 ****        26.0000  -8.7500   2.7500 Du        
   5153 ****        26.0000  -8.7500   3.0000 Du        
   5154 ****        26.0000  -8.7500   3.2500 Du        
   5155 ****        26.0000  -8.7500   3.5000 Du        
   5156 ****        26.0000  -8.7500   3.7500 Du        
   5157 ****        26.0000  -8.7500   4.0000 Du        
   5158 ****        26.0000  -8.5000   1.0000 Du        
   5159 ****        26.0000  -8.5000   1.2500 Du        
   5160 ****        26.0000  -8.5000   1.5000 Du        
   5161 ****        26.0000  -8.5000   1.7500 Du        
   5162 ****        26.0000  -8.5000   2.0000 Du        
   5163 ****        26.0000  -8.5000   2.2500 Du        
   5164 ****        26.0000  -8.5000   2.5000 Du        
   5165 ****        26.0000  -8.5000   2.7500 Du        
   5166 ****        26.0000  -8.5000   3.0000 Du        
   5167 ****        26.0000  -8.5000   3.2500 Du        
   5168 ****        26.0000  -8.5000   3.5000 Du        
   5169 ****        26.0000  -8.5000   3.7500 Du        
   5170 ****        26.0000  -8.2500   1.2500 Du        
   5171 ****        26.0000  -8.2500   1.5000 Du        
   5172 ****        26.0000  -8.2500   1.7500 Du        
   5173 ****        26.0000  -8.2500   2.0000 Du        
   5174 ****        26.0000  -8.2500   2.2500 Du        
   5175 ****        26.0000  -8.2500   2.5000 Du        
   5176 ****        26.0000  -8.2500   2.7500 Du        
   5177 ****        26.0000  -8.2500   3.0000 Du        
   5178 ****        26.0000  -8.2500   3.2500 Du        
   5179 ****        26.0000  -8.2500   3.5000 Du        
   5180 ****        26.0000  -8.2500   3.7500 Du        
   5181 ****        26.0000  -8.2500   4.0000 Du        
   5182 ****        26.0000  -8.2500  10.2500 Du        
   5183 ****        26.0000  -8.0000   1.7500 Du        
   5184 ****        26.0000  -8.0000   2.0000 Du        
   5185 ****        26.0000  -8.0000   2.2500 Du        
   5186 ****        26.0000  -8.0000   2.5000 Du        
   5187 ****        26.0000  -8.0000   2.7500 Du        
   5188 ****        26.0000  -8.0000   3.0000 Du        
   5189 ****        26.0000  -8.0000   3.2500 Du        
   5190 ****        26.0000  -8.0000   3.5000 Du        
   5191 ****        26.0000  -8.0000   3.7500 Du        
   5192 ****        26.0000  -8.0000   4.0000 Du        
   5193 ****        26.0000  -8.0000  10.2500 Du        
   5194 ****        26.0000  -8.0000  10.5000 Du        
   5195 ****        26.0000  -8.0000  10.7500 Du        
   5196 ****        26.0000  -7.7500   2.7500 Du        
   5197 ****        26.0000  -7.7500   3.0000 Du        
   5198 ****        26.0000  -7.7500   3.2500 Du        
   5199 ****        26.0000  -7.7500   3.5000 Du        
   5200 ****        26.0000  -7.7500   3.7500 Du        
   5201 ****        26.0000  -7.7500  10.2500 Du        
   5202 ****        26.0000  -7.7500  10.5000 Du        
   5203 ****        26.0000  -7.7500  10.7500 Du        
   5204 ****        26.0000  -7.5000  10.2500 Du        
   5205 ****        26.0000  -7.5000  10.5000 Du        
   5206 ****        26.0000  -7.5000  10.7500 Du        
   5207 ****        26.0000  -7.5000  11.0000 Du        
   5208 ****        26.0000  -7.2500  10.5000 Du        
   5209 ****        26.0000  -7.2500  10.7500 Du        
   5210 ****        26.0000  -7.2500  11.0000 Du        
   5211 ****        26.2500 -10.5000   3.2500 Du        
   5212 ****        26.2500 -10.2500   1.0000 Du        
   5213 ****        26.2500 -10.2500   1.2500 Du        
   5214 ****        26.2500 -10.2500   2.7500 Du        
   5215 ****        26.2500 -10.2500   3.0000 Du        
   5216 ****        26.2500 -10.2500   3.2500 Du        
   5217 ****        26.2500 -10.2500   3.5000 Du        
   5218 ****        26.2500 -10.0000   0.7500 Du        
   5219 ****        26.2500 -10.0000   1.0000 Du        
   5220 ****        26.2500 -10.0000   1.2500 Du        
   5221 ****        26.2500 -10.0000   1.5000 Du        
   5222 ****        26.2500 -10.0000   1.7500 Du        
   5223 ****        26.2500 -10.0000   2.0000 Du        
   5224 ****        26.2500 -10.0000   2.2500 Du        
   5225 ****        26.2500 -10.0000   2.5000 Du        
   5226 ****        26.2500 -10.0000   2.7500 Du        
   5227 ****        26.2500 -10.0000   3.0000 Du        
   5228 ****        26.2500 -10.0000   3.2500 Du        
   5229 ****        26.2500 -10.0000   3.5000 Du        
   5230 ****        26.2500 -10.0000   3.7500 Du        
   5231 ****        26.2500  -9.7500   0.5000 Du        
   5232 ****        26.2500  -9.7500   0.7500 Du        
   5233 ****        26.2500  -9.7500   1.0000 Du        
   5234 ****        26.2500  -9.7500   1.2500 Du        
   5235 ****        26.2500  -9.7500   1.5000 Du        
   5236 ****        26.2500  -9.7500   1.7500 Du        
   5237 ****        26.2500  -9.7500   2.0000 Du        
   5238 ****        26.2500  -9.7500   2.2500 Du        
   5239 ****        26.2500  -9.7500   2.5000 Du        
   5240 ****        26.2500  -9.7500   2.7500 Du        
   5241 ****        26.2500  -9.7500   3.0000 Du        
   5242 ****        26.2500  -9.7500   3.2500 Du        
   5243 ****        26.2500  -9.7500   3.5000 Du        
   5244 ****        26.2500  -9.7500   3.7500 Du        
   5245 ****        26.2500  -9.7500   4.0000 Du        
   5246 ****        26.2500  -9.5000   0.2500 Du        
   5247 ****        26.2500  -9.5000   0.5000 Du        
   5248 ****        26.2500  -9.5000   0.7500 Du        
   5249 ****        26.2500  -9.5000   1.0000 Du        
   5250 ****        26.2500  -9.5000   1.2500 Du        
   5251 ****        26.2500  -9.5000   1.5000 Du        
   5252 ****        26.2500  -9.5000   1.7500 Du        
   5253 ****        26.2500  -9.5000   2.0000 Du        
   5254 ****        26.2500  -9.5000   2.2500 Du        
   5255 ****        26.2500  -9.5000   2.5000 Du        
   5256 ****        26.2500  -9.5000   2.7500 Du        
   5257 ****        26.2500  -9.5000   3.0000 Du        
   5258 ****        26.2500  -9.5000   3.2500 Du        
   5259 ****        26.2500  -9.5000   3.5000 Du        
   5260 ****        26.2500  -9.5000   3.7500 Du        
   5261 ****        26.2500  -9.2500   0.2500 Du        
   5262 ****        26.2500  -9.2500   0.5000 Du        
   5263 ****        26.2500  -9.2500   0.7500 Du        
   5264 ****        26.2500  -9.2500   1.0000 Du        
   5265 ****        26.2500  -9.2500   1.2500 Du        
   5266 ****        26.2500  -9.2500   1.5000 Du        
   5267 ****        26.2500  -9.2500   1.7500 Du        
   5268 ****        26.2500  -9.2500   2.0000 Du        
   5269 ****        26.2500  -9.2500   2.2500 Du        
   5270 ****        26.2500  -9.2500   2.5000 Du        
   5271 ****        26.2500  -9.2500   2.7500 Du        
   5272 ****        26.2500  -9.2500   3.0000 Du        
   5273 ****        26.2500  -9.2500   3.2500 Du        
   5274 ****        26.2500  -9.2500   3.5000 Du        
   5275 ****        26.2500  -9.2500   3.7500 Du        
   5276 ****        26.2500  -9.2500   4.0000 Du        
   5277 ****        26.2500  -9.0000   0.2500 Du        
   5278 ****        26.2500  -9.0000   0.5000 Du        
   5279 ****        26.2500  -9.0000   0.7500 Du        
   5280 ****        26.2500  -9.0000   1.0000 Du        
   5281 ****        26.2500  -9.0000   1.2500 Du        
   5282 ****        26.2500  -9.0000   1.5000 Du        
   5283 ****        26.2500  -9.0000   1.7500 Du        
   5284 ****        26.2500  -9.0000   2.0000 Du        
   5285 ****        26.2500  -9.0000   2.2500 Du        
   5286 ****        26.2500  -9.0000   2.5000 Du        
   5287 ****        26.2500  -9.0000   2.7500 Du        
   5288 ****        26.2500  -9.0000   3.0000 Du        
   5289 ****        26.2500  -9.0000   3.2500 Du        
   5290 ****        26.2500  -9.0000   3.5000 Du        
   5291 ****        26.2500  -9.0000   3.7500 Du        
   5292 ****        26.2500  -9.0000   4.0000 Du        
   5293 ****        26.2500  -9.0000   4.2500 Du        
   5294 ****        26.2500  -8.7500   0.5000 Du        
   5295 ****        26.2500  -8.7500   0.7500 Du        
   5296 ****        26.2500  -8.7500   1.0000 Du        
   5297 ****        26.2500  -8.7500   1.2500 Du        
   5298 ****        26.2500  -8.7500   1.5000 Du        
   5299 ****        26.2500  -8.7500   1.7500 Du        
   5300 ****        26.2500  -8.7500   2.0000 Du        
   5301 ****        26.2500  -8.7500   2.2500 Du        
   5302 ****        26.2500  -8.7500   2.5000 Du        
   5303 ****        26.2500  -8.7500   2.7500 Du        
   5304 ****        26.2500  -8.7500   3.0000 Du        
   5305 ****        26.2500  -8.7500   3.2500 Du        
   5306 ****        26.2500  -8.7500   3.5000 Du        
   5307 ****        26.2500  -8.7500   3.7500 Du        
   5308 ****        26.2500  -8.7500   4.0000 Du        
   5309 ****        26.2500  -8.5000   0.7500 Du        
   5310 ****        26.2500  -8.5000   1.0000 Du        
   5311 ****        26.2500  -8.5000   1.2500 Du        
   5312 ****        26.2500  -8.5000   1.5000 Du        
   5313 ****        26.2500  -8.5000   1.7500 Du        
   5314 ****        26.2500  -8.5000   2.0000 Du        
   5315 ****        26.2500  -8.5000   2.2500 Du        
   5316 ****        26.2500  -8.5000   2.5000 Du        
   5317 ****        26.2500  -8.5000   2.7500 Du        
   5318 ****        26.2500  -8.5000   3.0000 Du        
   5319 ****        26.2500  -8.5000   3.2500 Du        
   5320 ****        26.2500  -8.5000   3.5000 Du        
   5321 ****        26.2500  -8.5000   3.7500 Du        
   5322 ****        26.2500  -8.5000   4.0000 Du        
   5323 ****        26.2500  -8.2500   1.0000 Du        
   5324 ****        26.2500  -8.2500   1.2500 Du        
   5325 ****        26.2500  -8.2500   1.5000 Du        
   5326 ****        26.2500  -8.2500   1.7500 Du        
   5327 ****        26.2500  -8.2500   2.0000 Du        
   5328 ****        26.2500  -8.2500   2.2500 Du        
   5329 ****        26.2500  -8.2500   2.5000 Du        
   5330 ****        26.2500  -8.2500   2.7500 Du        
   5331 ****        26.2500  -8.2500   3.0000 Du        
   5332 ****        26.2500  -8.2500   3.2500 Du        
   5333 ****        26.2500  -8.2500   3.5000 Du        
   5334 ****        26.2500  -8.2500   3.7500 Du        
   5335 ****        26.2500  -8.2500  10.0000 Du        
   5336 ****        26.2500  -8.2500  10.2500 Du        
   5337 ****        26.2500  -8.2500  10.5000 Du        
   5338 ****        26.2500  -8.0000   1.5000 Du        
   5339 ****        26.2500  -8.0000   1.7500 Du        
   5340 ****        26.2500  -8.0000   2.0000 Du        
   5341 ****        26.2500  -8.0000   2.2500 Du        
   5342 ****        26.2500  -8.0000   2.5000 Du        
   5343 ****        26.2500  -8.0000   2.7500 Du        
   5344 ****        26.2500  -8.0000   3.0000 Du        
   5345 ****        26.2500  -8.0000   3.2500 Du        
   5346 ****        26.2500  -8.0000   3.5000 Du        
   5347 ****        26.2500  -8.0000   3.7500 Du        
   5348 ****        26.2500  -8.0000  10.0000 Du        
   5349 ****        26.2500  -8.0000  10.2500 Du        
   5350 ****        26.2500  -8.0000  10.5000 Du        
   5351 ****        26.2500  -8.0000  10.7500 Du        
   5352 ****        26.2500  -7.7500   2.2500 Du        
   5353 ****        26.2500  -7.7500   2.5000 Du        
   5354 ****        26.2500  -7.7500   2.7500 Du        
   5355 ****        26.2500  -7.7500   3.0000 Du        
   5356 ****        26.2500  -7.7500   3.2500 Du        
   5357 ****        26.2500  -7.7500   3.5000 Du        
   5358 ****        26.2500  -7.7500  10.2500 Du        
   5359 ****        26.2500  -7.7500  10.5000 Du        
   5360 ****        26.2500  -7.7500  10.7500 Du        
   5361 ****        26.2500  -7.5000   3.0000 Du        
   5362 ****        26.2500  -7.5000   3.2500 Du        
   5363 ****        26.2500  -7.5000  10.2500 Du        
   5364 ****        26.2500  -7.5000  10.5000 Du        
   5365 ****        26.2500  -7.5000  10.7500 Du        
   5366 ****        26.2500  -7.2500  10.5000 Du        
   5367 ****        26.2500  -7.2500  10.7500 Du        
   5368 ****        26.5000 -10.2500   3.2500 Du        
   5369 ****        26.5000 -10.2500   3.5000 Du        
   5370 ****        26.5000 -10.0000   0.7500 Du        
   5371 ****        26.5000 -10.0000   1.0000 Du        
   5372 ****        26.5000 -10.0000   1.2500 Du        
   5373 ****        26.5000 -10.0000   1.5000 Du        
   5374 ****        26.5000 -10.0000   3.0000 Du        
   5375 ****        26.5000 -10.0000   3.2500 Du        
   5376 ****        26.5000 -10.0000   3.5000 Du        
   5377 ****        26.5000 -10.0000   3.7500 Du        
   5378 ****        26.5000  -9.7500   0.5000 Du        
   5379 ****        26.5000  -9.7500   0.7500 Du        
   5380 ****        26.5000  -9.7500   1.0000 Du        
   5381 ****        26.5000  -9.7500   1.2500 Du        
   5382 ****        26.5000  -9.7500   1.5000 Du        
   5383 ****        26.5000  -9.7500   1.7500 Du        
   5384 ****        26.5000  -9.7500   2.0000 Du        
   5385 ****        26.5000  -9.7500   2.2500 Du        
   5386 ****        26.5000  -9.7500   3.0000 Du        
   5387 ****        26.5000  -9.7500   3.2500 Du        
   5388 ****        26.5000  -9.7500   3.5000 Du        
   5389 ****        26.5000  -9.7500   3.7500 Du        
   5390 ****        26.5000  -9.7500   4.0000 Du        
   5391 ****        26.5000  -9.5000   0.2500 Du        
   5392 ****        26.5000  -9.5000   0.5000 Du        
   5393 ****        26.5000  -9.5000   0.7500 Du        
   5394 ****        26.5000  -9.5000   1.0000 Du        
   5395 ****        26.5000  -9.5000   1.2500 Du        
   5396 ****        26.5000  -9.5000   1.5000 Du        
   5397 ****        26.5000  -9.5000   1.7500 Du        
   5398 ****        26.5000  -9.5000   2.0000 Du        
   5399 ****        26.5000  -9.5000   2.2500 Du        
   5400 ****        26.5000  -9.5000   2.5000 Du        
   5401 ****        26.5000  -9.5000   2.7500 Du        
   5402 ****        26.5000  -9.5000   3.0000 Du        
   5403 ****        26.5000  -9.5000   3.2500 Du        
   5404 ****        26.5000  -9.5000   3.5000 Du        
   5405 ****        26.5000  -9.5000   3.7500 Du        
   5406 ****        26.5000  -9.5000   4.0000 Du        
   5407 ****        26.5000  -9.2500   0.2500 Du        
   5408 ****        26.5000  -9.2500   0.5000 Du        
   5409 ****        26.5000  -9.2500   0.7500 Du        
   5410 ****        26.5000  -9.2500   1.0000 Du        
   5411 ****        26.5000  -9.2500   1.2500 Du        
   5412 ****        26.5000  -9.2500   1.5000 Du        
   5413 ****        26.5000  -9.2500   1.7500 Du        
   5414 ****        26.5000  -9.2500   2.0000 Du        
   5415 ****        26.5000  -9.2500   2.2500 Du        
   5416 ****        26.5000  -9.2500   2.5000 Du        
   5417 ****        26.5000  -9.2500   2.7500 Du        
   5418 ****        26.5000  -9.2500   3.0000 Du        
   5419 ****        26.5000  -9.2500   3.2500 Du        
   5420 ****        26.5000  -9.2500   3.5000 Du        
   5421 ****        26.5000  -9.2500   3.7500 Du        
   5422 ****        26.5000  -9.2500   4.0000 Du        
   5423 ****        26.5000  -9.0000   0.2500 Du        
   5424 ****        26.5000  -9.0000   0.5000 Du        
   5425 ****        26.5000  -9.0000   0.7500 Du        
   5426 ****        26.5000  -9.0000   1.0000 Du        
   5427 ****        26.5000  -9.0000   1.2500 Du        
   5428 ****        26.5000  -9.0000   1.5000 Du        
   5429 ****        26.5000  -9.0000   1.7500 Du        
   5430 ****        26.5000  -9.0000   2.0000 Du        
   5431 ****        26.5000  -9.0000   2.2500 Du        
   5432 ****        26.5000  -9.0000   2.5000 Du        
   5433 ****        26.5000  -9.0000   2.7500 Du        
   5434 ****        26.5000  -9.0000   3.0000 Du        
   5435 ****        26.5000  -9.0000   3.2500 Du        
   5436 ****        26.5000  -9.0000   3.5000 Du        
   5437 ****        26.5000  -9.0000   3.7500 Du        
   5438 ****        26.5000  -9.0000   4.0000 Du        
   5439 ****        26.5000  -8.7500   0.5000 Du        
   5440 ****        26.5000  -8.7500   0.7500 Du        
   5441 ****        26.5000  -8.7500   1.0000 Du        
   5442 ****        26.5000  -8.7500   1.2500 Du        
   5443 ****        26.5000  -8.7500   1.5000 Du        
   5444 ****        26.5000  -8.7500   1.7500 Du        
   5445 ****        26.5000  -8.7500   2.0000 Du        
   5446 ****        26.5000  -8.7500   2.2500 Du        
   5447 ****        26.5000  -8.7500   2.5000 Du        
   5448 ****        26.5000  -8.7500   2.7500 Du        
   5449 ****        26.5000  -8.7500   3.0000 Du        
   5450 ****        26.5000  -8.7500   3.2500 Du        
   5451 ****        26.5000  -8.7500   3.5000 Du        
   5452 ****        26.5000  -8.7500   3.7500 Du        
   5453 ****        26.5000  -8.7500   4.0000 Du        
   5454 ****        26.5000  -8.5000   0.7500 Du        
   5455 ****        26.5000  -8.5000   1.0000 Du        
   5456 ****        26.5000  -8.5000   1.2500 Du        
   5457 ****        26.5000  -8.5000   1.5000 Du        
   5458 ****        26.5000  -8.5000   1.7500 Du        
   5459 ****        26.5000  -8.5000   2.0000 Du        
   5460 ****        26.5000  -8.5000   2.2500 Du        
   5461 ****        26.5000  -8.5000   2.5000 Du        
   5462 ****        26.5000  -8.5000   2.7500 Du        
   5463 ****        26.5000  -8.5000   3.0000 Du        
   5464 ****        26.5000  -8.5000   3.2500 Du        
   5465 ****        26.5000  -8.5000   3.5000 Du        
   5466 ****        26.5000  -8.5000   3.7500 Du        
   5467 ****        26.5000  -8.5000   4.0000 Du        
   5468 ****        26.5000  -8.5000  10.0000 Du        
   5469 ****        26.5000  -8.5000  10.2500 Du        
   5470 ****        26.5000  -8.2500   1.0000 Du        
   5471 ****        26.5000  -8.2500   1.2500 Du        
   5472 ****        26.5000  -8.2500   1.5000 Du        
   5473 ****        26.5000  -8.2500   1.7500 Du        
   5474 ****        26.5000  -8.2500   2.0000 Du        
   5475 ****        26.5000  -8.2500   2.2500 Du        
   5476 ****        26.5000  -8.2500   2.5000 Du        
   5477 ****        26.5000  -8.2500   2.7500 Du        
   5478 ****        26.5000  -8.2500   3.0000 Du        
   5479 ****        26.5000  -8.2500   3.2500 Du        
   5480 ****        26.5000  -8.2500   3.5000 Du        
   5481 ****        26.5000  -8.2500   3.7500 Du        
   5482 ****        26.5000  -8.2500   4.0000 Du        
   5483 ****        26.5000  -8.2500  10.0000 Du        
   5484 ****        26.5000  -8.2500  10.2500 Du        
   5485 ****        26.5000  -8.2500  10.5000 Du        
   5486 ****        26.5000  -8.0000   1.2500 Du        
   5487 ****        26.5000  -8.0000   1.5000 Du        
   5488 ****        26.5000  -8.0000   1.7500 Du        
   5489 ****        26.5000  -8.0000   2.0000 Du        
   5490 ****        26.5000  -8.0000   2.2500 Du        
   5491 ****        26.5000  -8.0000   2.5000 Du        
   5492 ****        26.5000  -8.0000   2.7500 Du        
   5493 ****        26.5000  -8.0000   3.0000 Du        
   5494 ****        26.5000  -8.0000   3.2500 Du        
   5495 ****        26.5000  -8.0000   3.5000 Du        
   5496 ****        26.5000  -8.0000   3.7500 Du        
   5497 ****        26.5000  -8.0000  10.0000 Du        
   5498 ****        26.5000  -8.0000  10.2500 Du        
   5499 ****        26.5000  -8.0000  10.5000 Du        
   5500 ****        26.5000  -7.7500   1.7500 Du        
   5501 ****        26.5000  -7.7500   2.0000 Du        
   5502 ****        26.5000  -7.7500   2.2500 Du        
   5503 ****        26.5000  -7.7500   2.5000 Du        
   5504 ****        26.5000  -7.7500   2.7500 Du        
   5505 ****        26.5000  -7.7500   3.0000 Du        
   5506 ****        26.5000  -7.7500   3.2500 Du        
   5507 ****        26.5000  -7.7500   3.5000 Du        
   5508 ****        26.5000  -7.7500  10.2500 Du        
   5509 ****        26.5000  -7.7500  10.5000 Du        
   5510 ****        26.5000  -7.7500  10.7500 Du        
   5511 ****        26.5000  -7.5000   2.2500 Du        
   5512 ****        26.5000  -7.5000   2.5000 Du        
   5513 ****        26.5000  -7.5000   2.7500 Du        
   5514 ****        26.5000  -7.5000   3.0000 Du        
   5515 ****        26.5000  -7.5000   3.2500 Du        
   5516 ****        26.5000  -7.5000  10.2500 Du        
   5517 ****        26.5000  -7.5000  10.5000 Du        
   5518 ****        26.5000  -7.5000  10.7500 Du        
   5519 ****        26.5000  -7.2500  10.5000 Du        
   5520 ****        26.5000  -7.2500  10.7500 Du        
   5521 ****        26.7500 -10.2500   3.5000 Du        
   5522 ****        26.7500 -10.2500   3.7500 Du        
   5523 ****        26.7500 -10.0000   3.0000 Du        
   5524 ****        26.7500 -10.0000   3.2500 Du        
   5525 ****        26.7500 -10.0000   3.5000 Du        
   5526 ****        26.7500 -10.0000   3.7500 Du        
   5527 ****        26.7500  -9.7500   0.5000 Du        
   5528 ****        26.7500  -9.7500   0.7500 Du        
   5529 ****        26.7500  -9.7500   1.0000 Du        
   5530 ****        26.7500  -9.7500   1.2500 Du        
   5531 ****        26.7500  -9.7500   1.5000 Du        
   5532 ****        26.7500  -9.7500   1.7500 Du        
   5533 ****        26.7500  -9.7500   2.0000 Du        
   5534 ****        26.7500  -9.7500   3.0000 Du        
   5535 ****        26.7500  -9.7500   3.2500 Du        
   5536 ****        26.7500  -9.7500   3.5000 Du        
   5537 ****        26.7500  -9.7500   3.7500 Du        
   5538 ****        26.7500  -9.7500   4.0000 Du        
   5539 ****        26.7500  -9.5000   0.2500 Du        
   5540 ****        26.7500  -9.5000   0.5000 Du        
   5541 ****        26.7500  -9.5000   0.7500 Du        
   5542 ****        26.7500  -9.5000   1.0000 Du        
   5543 ****        26.7500  -9.5000   1.2500 Du        
   5544 ****        26.7500  -9.5000   1.5000 Du        
   5545 ****        26.7500  -9.5000   1.7500 Du        
   5546 ****        26.7500  -9.5000   2.0000 Du        
   5547 ****        26.7500  -9.5000   2.2500 Du        
   5548 ****        26.7500  -9.5000   2.5000 Du        
   5549 ****        26.7500  -9.5000   2.7500 Du        
   5550 ****        26.7500  -9.5000   3.0000 Du        
   5551 ****        26.7500  -9.5000   3.2500 Du        
   5552 ****        26.7500  -9.5000   3.5000 Du        
   5553 ****        26.7500  -9.5000   3.7500 Du        
   5554 ****        26.7500  -9.5000   4.0000 Du        
   5555 ****        26.7500  -9.2500   0.2500 Du        
   5556 ****        26.7500  -9.2500   0.5000 Du        
   5557 ****        26.7500  -9.2500   0.7500 Du        
   5558 ****        26.7500  -9.2500   1.0000 Du        
   5559 ****        26.7500  -9.2500   1.2500 Du        
   5560 ****        26.7500  -9.2500   1.5000 Du        
   5561 ****        26.7500  -9.2500   1.7500 Du        
   5562 ****        26.7500  -9.2500   2.0000 Du        
   5563 ****        26.7500  -9.2500   2.2500 Du        
   5564 ****        26.7500  -9.2500   2.5000 Du        
   5565 ****        26.7500  -9.2500   2.7500 Du        
   5566 ****        26.7500  -9.2500   3.0000 Du        
   5567 ****        26.7500  -9.2500   3.2500 Du        
   5568 ****        26.7500  -9.2500   3.5000 Du        
   5569 ****        26.7500  -9.2500   3.7500 Du        
   5570 ****        26.7500  -9.2500   4.0000 Du        
   5571 ****        26.7500  -9.2500   4.2500 Du        
   5572 ****        26.7500  -9.0000   0.2500 Du        
   5573 ****        26.7500  -9.0000   0.5000 Du        
   5574 ****        26.7500  -9.0000   0.7500 Du        
   5575 ****        26.7500  -9.0000   1.0000 Du        
   5576 ****        26.7500  -9.0000   1.2500 Du        
   5577 ****        26.7500  -9.0000   1.5000 Du        
   5578 ****        26.7500  -9.0000   1.7500 Du        
   5579 ****        26.7500  -9.0000   2.0000 Du        
   5580 ****        26.7500  -9.0000   2.2500 Du        
   5581 ****        26.7500  -9.0000   2.5000 Du        
   5582 ****        26.7500  -9.0000   2.7500 Du        
   5583 ****        26.7500  -9.0000   3.0000 Du        
   5584 ****        26.7500  -9.0000   3.2500 Du        
   5585 ****        26.7500  -9.0000   3.5000 Du        
   5586 ****        26.7500  -9.0000   3.7500 Du        
   5587 ****        26.7500  -9.0000   4.0000 Du        
   5588 ****        26.7500  -9.0000   4.2500 Du        
   5589 ****        26.7500  -8.7500   0.5000 Du        
   5590 ****        26.7500  -8.7500   0.7500 Du        
   5591 ****        26.7500  -8.7500   1.0000 Du        
   5592 ****        26.7500  -8.7500   1.2500 Du        
   5593 ****        26.7500  -8.7500   1.5000 Du        
   5594 ****        26.7500  -8.7500   1.7500 Du        
   5595 ****        26.7500  -8.7500   2.0000 Du        
   5596 ****        26.7500  -8.7500   2.2500 Du        
   5597 ****        26.7500  -8.7500   2.5000 Du        
   5598 ****        26.7500  -8.7500   2.7500 Du        
   5599 ****        26.7500  -8.7500   3.0000 Du        
   5600 ****        26.7500  -8.7500   3.2500 Du        
   5601 ****        26.7500  -8.7500   3.5000 Du        
   5602 ****        26.7500  -8.7500   3.7500 Du        
   5603 ****        26.7500  -8.7500   4.0000 Du        
   5604 ****        26.7500  -8.7500  10.0000 Du        
   5605 ****        26.7500  -8.5000   0.7500 Du        
   5606 ****        26.7500  -8.5000   1.0000 Du        
   5607 ****        26.7500  -8.5000   1.2500 Du        
   5608 ****        26.7500  -8.5000   1.5000 Du        
   5609 ****        26.7500  -8.5000   1.7500 Du        
   5610 ****        26.7500  -8.5000   2.0000 Du        
   5611 ****        26.7500  -8.5000   2.2500 Du        
   5612 ****        26.7500  -8.5000   2.5000 Du        
   5613 ****        26.7500  -8.5000   2.7500 Du        
   5614 ****        26.7500  -8.5000   3.0000 Du        
   5615 ****        26.7500  -8.5000   3.2500 Du        
   5616 ****        26.7500  -8.5000   3.5000 Du        
   5617 ****        26.7500  -8.5000   3.7500 Du        
   5618 ****        26.7500  -8.5000   4.0000 Du        
   5619 ****        26.7500  -8.5000  10.0000 Du        
   5620 ****        26.7500  -8.5000  10.2500 Du        
   5621 ****        26.7500  -8.2500   1.0000 Du        
   5622 ****        26.7500  -8.2500   1.2500 Du        
   5623 ****        26.7500  -8.2500   1.5000 Du        
   5624 ****        26.7500  -8.2500   1.7500 Du        
   5625 ****        26.7500  -8.2500   2.0000 Du        
   5626 ****        26.7500  -8.2500   2.2500 Du        
   5627 ****        26.7500  -8.2500   2.5000 Du        
   5628 ****        26.7500  -8.2500   2.7500 Du        
   5629 ****        26.7500  -8.2500   3.0000 Du        
   5630 ****        26.7500  -8.2500   3.2500 Du        
   5631 ****        26.7500  -8.2500   3.5000 Du        
   5632 ****        26.7500  -8.2500   3.7500 Du        
   5633 ****        26.7500  -8.2500   4.0000 Du        
   5634 ****        26.7500  -8.2500  10.0000 Du        
   5635 ****        26.7500  -8.2500  10.2500 Du        
   5636 ****        26.7500  -8.0000   1.2500 Du        
   5637 ****        26.7500  -8.0000   1.5000 Du        
   5638 ****        26.7500  -8.0000   1.7500 Du        
   5639 ****        26.7500  -8.0000   2.0000 Du        
   5640 ****        26.7500  -8.0000   2.2500 Du        
   5641 ****        26.7500  -8.0000   2.5000 Du        
   5642 ****        26.7500  -8.0000   2.7500 Du        
   5643 ****        26.7500  -8.0000   3.0000 Du        
   5644 ****        26.7500  -8.0000   3.2500 Du        
   5645 ****        26.7500  -8.0000   3.5000 Du        
   5646 ****        26.7500  -8.0000   3.7500 Du        
   5647 ****        26.7500  -8.0000  10.0000 Du        
   5648 ****        26.7500  -8.0000  10.2500 Du        
   5649 ****        26.7500  -8.0000  10.5000 Du        
   5650 ****        26.7500  -7.7500   1.7500 Du        
   5651 ****        26.7500  -7.7500   2.0000 Du        
   5652 ****        26.7500  -7.7500   2.2500 Du        
   5653 ****        26.7500  -7.7500   2.5000 Du        
   5654 ****        26.7500  -7.7500   2.7500 Du        
   5655 ****        26.7500  -7.7500   3.0000 Du        
   5656 ****        26.7500  -7.7500   3.2500 Du        
   5657 ****        26.7500  -7.7500   3.5000 Du        
   5658 ****        26.7500  -7.7500  10.2500 Du        
   5659 ****        26.7500  -7.7500  10.5000 Du        
   5660 ****        26.7500  -7.7500  10.7500 Du        
   5661 ****        26.7500  -7.5000   2.2500 Du        
   5662 ****        26.7500  -7.5000   2.5000 Du        
   5663 ****        26.7500  -7.5000   2.7500 Du        
   5664 ****        26.7500  -7.5000   3.0000 Du        
   5665 ****        26.7500  -7.5000   3.2500 Du        
   5666 ****        26.7500  -7.5000  10.5000 Du        
   5667 ****        26.7500  -7.5000  10.7500 Du        
   5668 ****        27.0000 -10.2500   3.5000 Du        
   5669 ****        27.0000 -10.2500   3.7500 Du        
   5670 ****        27.0000 -10.0000   3.2500 Du        
   5671 ****        27.0000 -10.0000   3.5000 Du        
   5672 ****        27.0000 -10.0000   3.7500 Du        
   5673 ****        27.0000 -10.0000   4.0000 Du        
   5674 ****        27.0000  -9.7500   0.7500 Du        
   5675 ****        27.0000  -9.7500   1.0000 Du        
   5676 ****        27.0000  -9.7500   1.2500 Du        
   5677 ****        27.0000  -9.7500   3.0000 Du        
   5678 ****        27.0000  -9.7500   3.2500 Du        
   5679 ****        27.0000  -9.7500   3.5000 Du        
   5680 ****        27.0000  -9.7500   3.7500 Du        
   5681 ****        27.0000  -9.7500   4.0000 Du        
   5682 ****        27.0000  -9.7500   4.2500 Du        
   5683 ****        27.0000  -9.5000   0.2500 Du        
   5684 ****        27.0000  -9.5000   0.5000 Du        
   5685 ****        27.0000  -9.5000   0.7500 Du        
   5686 ****        27.0000  -9.5000   1.0000 Du        
   5687 ****        27.0000  -9.5000   1.2500 Du        
   5688 ****        27.0000  -9.5000   1.5000 Du        
   5689 ****        27.0000  -9.5000   1.7500 Du        
   5690 ****        27.0000  -9.5000   2.0000 Du        
   5691 ****        27.0000  -9.5000   2.2500 Du        
   5692 ****        27.0000  -9.5000   2.5000 Du        
   5693 ****        27.0000  -9.5000   2.7500 Du        
   5694 ****        27.0000  -9.5000   3.0000 Du        
   5695 ****        27.0000  -9.5000   3.2500 Du        
   5696 ****        27.0000  -9.5000   3.5000 Du        
   5697 ****        27.0000  -9.5000   3.7500 Du        
   5698 ****        27.0000  -9.5000   4.0000 Du        
   5699 ****        27.0000  -9.5000   4.2500 Du        
   5700 ****        27.0000  -9.2500   0.0000 Du        
   5701 ****        27.0000  -9.2500   0.2500 Du        
   5702 ****        27.0000  -9.2500   0.5000 Du        
   5703 ****        27.0000  -9.2500   0.7500 Du        
   5704 ****        27.0000  -9.2500   1.0000 Du        
   5705 ****        27.0000  -9.2500   1.2500 Du        
   5706 ****        27.0000  -9.2500   1.5000 Du        
   5707 ****        27.0000  -9.2500   1.7500 Du        
   5708 ****        27.0000  -9.2500   2.0000 Du        
   5709 ****        27.0000  -9.2500   2.2500 Du        
   5710 ****        27.0000  -9.2500   2.5000 Du        
   5711 ****        27.0000  -9.2500   2.7500 Du        
   5712 ****        27.0000  -9.2500   3.0000 Du        
   5713 ****        27.0000  -9.2500   3.2500 Du        
   5714 ****        27.0000  -9.2500   3.5000 Du        
   5715 ****        27.0000  -9.2500   3.7500 Du        
   5716 ****        27.0000  -9.2500   4.0000 Du        
   5717 ****        27.0000  -9.2500   4.2500 Du        
   5718 ****        27.0000  -9.2500   4.5000 Du        
   5719 ****        27.0000  -9.0000   0.2500 Du        
   5720 ****        27.0000  -9.0000   0.5000 Du        
   5721 ****        27.0000  -9.0000   0.7500 Du        
   5722 ****        27.0000  -9.0000   1.0000 Du        
   5723 ****        27.0000  -9.0000   1.2500 Du        
   5724 ****        27.0000  -9.0000   1.5000 Du        
   5725 ****        27.0000  -9.0000   1.7500 Du        
   5726 ****        27.0000  -9.0000   2.0000 Du        
   5727 ****        27.0000  -9.0000   2.2500 Du        
   5728 ****        27.0000  -9.0000   2.5000 Du        
   5729 ****        27.0000  -9.0000   2.7500 Du        
   5730 ****        27.0000  -9.0000   3.0000 Du        
   5731 ****        27.0000  -9.0000   3.2500 Du        
   5732 ****        27.0000  -9.0000   3.5000 Du        
   5733 ****        27.0000  -9.0000   3.7500 Du        
   5734 ****        27.0000  -9.0000   4.0000 Du        
   5735 ****        27.0000  -9.0000   4.2500 Du        
   5736 ****        27.0000  -8.7500   0.5000 Du        
   5737 ****        27.0000  -8.7500   0.7500 Du        
   5738 ****        27.0000  -8.7500   1.0000 Du        
   5739 ****        27.0000  -8.7500   1.2500 Du        
   5740 ****        27.0000  -8.7500   1.5000 Du        
   5741 ****        27.0000  -8.7500   1.7500 Du        
   5742 ****        27.0000  -8.7500   2.0000 Du        
   5743 ****        27.0000  -8.7500   2.2500 Du        
   5744 ****        27.0000  -8.7500   2.5000 Du        
   5745 ****        27.0000  -8.7500   2.7500 Du        
   5746 ****        27.0000  -8.7500   3.0000 Du        
   5747 ****        27.0000  -8.7500   3.2500 Du        
   5748 ****        27.0000  -8.7500   3.5000 Du        
   5749 ****        27.0000  -8.7500   3.7500 Du        
   5750 ****        27.0000  -8.7500   4.0000 Du        
   5751 ****        27.0000  -8.7500   9.7500 Du        
   5752 ****        27.0000  -8.7500  10.0000 Du        
   5753 ****        27.0000  -8.5000   1.0000 Du        
   5754 ****        27.0000  -8.5000   1.2500 Du        
   5755 ****        27.0000  -8.5000   1.5000 Du        
   5756 ****        27.0000  -8.5000   1.7500 Du        
   5757 ****        27.0000  -8.5000   2.0000 Du        
   5758 ****        27.0000  -8.5000   2.2500 Du        
   5759 ****        27.0000  -8.5000   2.5000 Du        
   5760 ****        27.0000  -8.5000   2.7500 Du        
   5761 ****        27.0000  -8.5000   3.0000 Du        
   5762 ****        27.0000  -8.5000   3.2500 Du        
   5763 ****        27.0000  -8.5000   3.5000 Du        
   5764 ****        27.0000  -8.5000   3.7500 Du        
   5765 ****        27.0000  -8.5000   4.0000 Du        
   5766 ****        27.0000  -8.5000   9.7500 Du        
   5767 ****        27.0000  -8.5000  10.0000 Du        
   5768 ****        27.0000  -8.5000  10.2500 Du        
   5769 ****        27.0000  -8.2500   1.2500 Du        
   5770 ****        27.0000  -8.2500   1.5000 Du        
   5771 ****        27.0000  -8.2500   1.7500 Du        
   5772 ****        27.0000  -8.2500   2.0000 Du        
   5773 ****        27.0000  -8.2500   2.2500 Du        
   5774 ****        27.0000  -8.2500   2.5000 Du        
   5775 ****        27.0000  -8.2500   2.7500 Du        
   5776 ****        27.0000  -8.2500   3.0000 Du        
   5777 ****        27.0000  -8.2500   3.2500 Du        
   5778 ****        27.0000  -8.2500   3.5000 Du        
   5779 ****        27.0000  -8.2500   3.7500 Du        
   5780 ****        27.0000  -8.2500   4.0000 Du        
   5781 ****        27.0000  -8.2500  10.0000 Du        
   5782 ****        27.0000  -8.2500  10.2500 Du        
   5783 ****        27.0000  -8.0000   1.5000 Du        
   5784 ****        27.0000  -8.0000   1.7500 Du        
   5785 ****        27.0000  -8.0000   2.0000 Du        
   5786 ****        27.0000  -8.0000   2.2500 Du        
   5787 ****        27.0000  -8.0000   2.5000 Du        
   5788 ****        27.0000  -8.0000   2.7500 Du        
   5789 ****        27.0000  -8.0000   3.0000 Du        
   5790 ****        27.0000  -8.0000   3.2500 Du        
   5791 ****        27.0000  -8.0000   3.5000 Du        
   5792 ****        27.0000  -8.0000   3.7500 Du        
   5793 ****        27.0000  -8.0000   4.0000 Du        
   5794 ****        27.0000  -8.0000  10.0000 Du        
   5795 ****        27.0000  -8.0000  10.2500 Du        
   5796 ****        27.0000  -8.0000  10.5000 Du        
   5797 ****        27.0000  -7.7500   1.7500 Du        
   5798 ****        27.0000  -7.7500   2.0000 Du        
   5799 ****        27.0000  -7.7500   2.2500 Du        
   5800 ****        27.0000  -7.7500   2.5000 Du        
   5801 ****        27.0000  -7.7500   2.7500 Du        
   5802 ****        27.0000  -7.7500   3.0000 Du        
   5803 ****        27.0000  -7.7500   3.2500 Du        
   5804 ****        27.0000  -7.7500   3.5000 Du        
   5805 ****        27.0000  -7.7500   3.7500 Du        
   5806 ****        27.0000  -7.7500  10.2500 Du        
   5807 ****        27.0000  -7.7500  10.5000 Du        
   5808 ****        27.0000  -7.5000   2.0000 Du        
   5809 ****        27.0000  -7.5000   2.2500 Du        
   5810 ****        27.0000  -7.5000   2.5000 Du        
   5811 ****        27.0000  -7.5000   2.7500 Du        
   5812 ****        27.0000  -7.5000   3.0000 Du        
   5813 ****        27.0000  -7.5000   3.2500 Du        
   5814 ****        27.0000  -7.5000   3.5000 Du        
   5815 ****        27.0000  -7.5000  10.5000 Du        
   5816 ****        27.0000  -7.5000  10.7500 Du        
   5817 ****        27.0000  -7.2500   2.7500 Du        
   5818 ****        27.0000  -7.2500   3.0000 Du        
   5819 ****        27.2500 -10.2500   3.7500 Du        
   5820 ****        27.2500 -10.0000   3.5000 Du        
   5821 ****        27.2500 -10.0000   3.7500 Du        
   5822 ****        27.2500 -10.0000   4.0000 Du        
   5823 ****        27.2500  -9.7500   3.2500 Du        
   5824 ****        27.2500  -9.7500   3.5000 Du        
   5825 ****        27.2500  -9.7500   3.7500 Du        
   5826 ****        27.2500  -9.7500   4.0000 Du        
   5827 ****        27.2500  -9.7500   4.2500 Du        
   5828 ****        27.2500  -9.5000   0.2500 Du        
   5829 ****        27.2500  -9.5000   0.5000 Du        
   5830 ****        27.2500  -9.5000   0.7500 Du        
   5831 ****        27.2500  -9.5000   1.0000 Du        
   5832 ****        27.2500  -9.5000   1.2500 Du        
   5833 ****        27.2500  -9.5000   2.7500 Du        
   5834 ****        27.2500  -9.5000   3.0000 Du        
   5835 ****        27.2500  -9.5000   3.2500 Du        
   5836 ****        27.2500  -9.5000   3.5000 Du        
   5837 ****        27.2500  -9.5000   3.7500 Du        
   5838 ****        27.2500  -9.5000   4.0000 Du        
   5839 ****        27.2500  -9.5000   4.2500 Du        
   5840 ****        27.2500  -9.5000   4.5000 Du        
   5841 ****        27.2500  -9.2500   0.0000 Du        
   5842 ****        27.2500  -9.2500   0.2500 Du        
   5843 ****        27.2500  -9.2500   0.5000 Du        
   5844 ****        27.2500  -9.2500   0.7500 Du        
   5845 ****        27.2500  -9.2500   1.0000 Du        
   5846 ****        27.2500  -9.2500   1.2500 Du        
   5847 ****        27.2500  -9.2500   1.5000 Du        
   5848 ****        27.2500  -9.2500   1.7500 Du        
   5849 ****        27.2500  -9.2500   2.0000 Du        
   5850 ****        27.2500  -9.2500   2.2500 Du        
   5851 ****        27.2500  -9.2500   2.5000 Du        
   5852 ****        27.2500  -9.2500   2.7500 Du        
   5853 ****        27.2500  -9.2500   3.0000 Du        
   5854 ****        27.2500  -9.2500   3.2500 Du        
   5855 ****        27.2500  -9.2500   3.5000 Du        
   5856 ****        27.2500  -9.2500   3.7500 Du        
   5857 ****        27.2500  -9.2500   4.0000 Du        
   5858 ****        27.2500  -9.2500   4.2500 Du        
   5859 ****        27.2500  -9.2500   4.5000 Du        
   5860 ****        27.2500  -9.0000   0.2500 Du        
   5861 ****        27.2500  -9.0000   0.5000 Du        
   5862 ****        27.2500  -9.0000   0.7500 Du        
   5863 ****        27.2500  -9.0000   1.0000 Du        
   5864 ****        27.2500  -9.0000   1.2500 Du        
   5865 ****        27.2500  -9.0000   1.5000 Du        
   5866 ****        27.2500  -9.0000   1.7500 Du        
   5867 ****        27.2500  -9.0000   2.0000 Du        
   5868 ****        27.2500  -9.0000   2.2500 Du        
   5869 ****        27.2500  -9.0000   2.5000 Du        
   5870 ****        27.2500  -9.0000   2.7500 Du        
   5871 ****        27.2500  -9.0000   3.0000 Du        
   5872 ****        27.2500  -9.0000   3.2500 Du        
   5873 ****        27.2500  -9.0000   3.5000 Du        
   5874 ****        27.2500  -9.0000   3.7500 Du        
   5875 ****        27.2500  -9.0000   4.0000 Du        
   5876 ****        27.2500  -9.0000   4.2500 Du        
   5877 ****        27.2500  -9.0000   4.5000 Du        
   5878 ****        27.2500  -8.7500   0.5000 Du        
   5879 ****        27.2500  -8.7500   0.7500 Du        
   5880 ****        27.2500  -8.7500   1.0000 Du        
   5881 ****        27.2500  -8.7500   1.2500 Du        
   5882 ****        27.2500  -8.7500   1.5000 Du        
   5883 ****        27.2500  -8.7500   1.7500 Du        
   5884 ****        27.2500  -8.7500   2.0000 Du        
   5885 ****        27.2500  -8.7500   2.2500 Du        
   5886 ****        27.2500  -8.7500   2.5000 Du        
   5887 ****        27.2500  -8.7500   2.7500 Du        
   5888 ****        27.2500  -8.7500   3.0000 Du        
   5889 ****        27.2500  -8.7500   3.2500 Du        
   5890 ****        27.2500  -8.7500   3.5000 Du        
   5891 ****        27.2500  -8.7500   3.7500 Du        
   5892 ****        27.2500  -8.7500   4.0000 Du        
   5893 ****        27.2500  -8.5000   1.2500 Du        
   5894 ****        27.2500  -8.5000   1.5000 Du        
   5895 ****        27.2500  -8.5000   1.7500 Du        
   5896 ****        27.2500  -8.5000   2.0000 Du        
   5897 ****        27.2500  -8.5000   2.2500 Du        
   5898 ****        27.2500  -8.5000   2.5000 Du        
   5899 ****        27.2500  -8.5000   2.7500 Du        
   5900 ****        27.2500  -8.5000   3.0000 Du        
   5901 ****        27.2500  -8.5000   3.2500 Du        
   5902 ****        27.2500  -8.5000   3.5000 Du        
   5903 ****        27.2500  -8.5000   3.7500 Du        
   5904 ****        27.2500  -8.5000   4.0000 Du        
   5905 ****        27.2500  -8.5000  10.0000 Du        
   5906 ****        27.2500  -8.2500   1.5000 Du        
   5907 ****        27.2500  -8.2500   1.7500 Du        
   5908 ****        27.2500  -8.2500   2.0000 Du        
   5909 ****        27.2500  -8.2500   2.2500 Du        
   5910 ****        27.2500  -8.2500   2.5000 Du        
   5911 ****        27.2500  -8.2500   2.7500 Du        
   5912 ****        27.2500  -8.2500   3.0000 Du        
   5913 ****        27.2500  -8.2500   3.2500 Du        
   5914 ****        27.2500  -8.2500   3.5000 Du        
   5915 ****        27.2500  -8.2500   3.7500 Du        
   5916 ****        27.2500  -8.2500   4.0000 Du        
   5917 ****        27.2500  -8.2500  10.0000 Du        
   5918 ****        27.2500  -8.2500  10.2500 Du        
   5919 ****        27.2500  -8.0000   1.7500 Du        
   5920 ****        27.2500  -8.0000   2.0000 Du        
   5921 ****        27.2500  -8.0000   2.2500 Du        
   5922 ****        27.2500  -8.0000   2.5000 Du        
   5923 ****        27.2500  -8.0000   2.7500 Du        
   5924 ****        27.2500  -8.0000   3.0000 Du        
   5925 ****        27.2500  -8.0000   3.2500 Du        
   5926 ****        27.2500  -8.0000   3.5000 Du        
   5927 ****        27.2500  -8.0000   3.7500 Du        
   5928 ****        27.2500  -8.0000   4.0000 Du        
   5929 ****        27.2500  -8.0000  10.0000 Du        
   5930 ****        27.2500  -8.0000  10.2500 Du        
   5931 ****        27.2500  -7.7500   2.0000 Du        
   5932 ****        27.2500  -7.7500   2.2500 Du        
   5933 ****        27.2500  -7.7500   2.5000 Du        
   5934 ****        27.2500  -7.7500   2.7500 Du        
   5935 ****        27.2500  -7.7500   3.0000 Du        
   5936 ****        27.2500  -7.7500   3.2500 Du        
   5937 ****        27.2500  -7.7500   3.5000 Du        
   5938 ****        27.2500  -7.7500   3.7500 Du        
   5939 ****        27.2500  -7.7500  10.2500 Du        
   5940 ****        27.2500  -7.7500  10.5000 Du        
   5941 ****        27.2500  -7.5000   2.2500 Du        
   5942 ****        27.2500  -7.5000   2.5000 Du        
   5943 ****        27.2500  -7.5000   2.7500 Du        
   5944 ****        27.2500  -7.5000   3.0000 Du        
   5945 ****        27.2500  -7.5000   3.2500 Du        
   5946 ****        27.2500  -7.5000   3.5000 Du        
   5947 ****        27.2500  -7.5000  10.5000 Du        
   5948 ****        27.2500  -7.2500   2.7500 Du        
   5949 ****        27.2500  -7.2500   3.0000 Du        
   5950 ****        27.5000 -10.0000   3.7500 Du        
   5951 ****        27.5000 -10.0000   4.0000 Du        
   5952 ****        27.5000 -10.0000   4.2500 Du        
   5953 ****        27.5000  -9.7500   3.2500 Du        
   5954 ****        27.5000  -9.7500   3.5000 Du        
   5955 ****        27.5000  -9.7500   3.7500 Du        
   5956 ****        27.5000  -9.7500   4.0000 Du        
   5957 ****        27.5000  -9.7500   4.2500 Du        
   5958 ****        27.5000  -9.7500   4.5000 Du        
   5959 ****        27.5000  -9.5000   0.2500 Du        
   5960 ****        27.5000  -9.5000   0.5000 Du        
   5961 ****        27.5000  -9.5000   0.7500 Du        
   5962 ****        27.5000  -9.5000   1.0000 Du        
   5963 ****        27.5000  -9.5000   1.2500 Du        
   5964 ****        27.5000  -9.5000   3.0000 Du        
   5965 ****        27.5000  -9.5000   3.2500 Du        
   5966 ****        27.5000  -9.5000   3.5000 Du        
   5967 ****        27.5000  -9.5000   3.7500 Du        
   5968 ****        27.5000  -9.5000   4.0000 Du        
   5969 ****        27.5000  -9.5000   4.2500 Du        
   5970 ****        27.5000  -9.5000   4.5000 Du        
   5971 ****        27.5000  -9.2500   0.0000 Du        
   5972 ****        27.5000  -9.2500   0.2500 Du        
   5973 ****        27.5000  -9.2500   0.5000 Du        
   5974 ****        27.5000  -9.2500   0.7500 Du        
   5975 ****        27.5000  -9.2500   1.0000 Du        
   5976 ****        27.5000  -9.2500   1.2500 Du        
   5977 ****        27.5000  -9.2500   1.5000 Du        
   5978 ****        27.5000  -9.2500   1.7500 Du        
   5979 ****        27.5000  -9.2500   2.0000 Du        
   5980 ****        27.5000  -9.2500   2.2500 Du        
   5981 ****        27.5000  -9.2500   2.7500 Du        
   5982 ****        27.5000  -9.2500   3.0000 Du        
   5983 ****        27.5000  -9.2500   3.2500 Du        
   5984 ****        27.5000  -9.2500   3.5000 Du        
   5985 ****        27.5000  -9.2500   3.7500 Du        
   5986 ****        27.5000  -9.2500   4.0000 Du        
   5987 ****        27.5000  -9.2500   4.2500 Du        
   5988 ****        27.5000  -9.2500   4.5000 Du        
   5989 ****        27.5000  -9.0000   0.2500 Du        
   5990 ****        27.5000  -9.0000   0.5000 Du        
   5991 ****        27.5000  -9.0000   0.7500 Du        
   5992 ****        27.5000  -9.0000   1.0000 Du        
   5993 ****        27.5000  -9.0000   1.2500 Du        
   5994 ****        27.5000  -9.0000   1.5000 Du        
   5995 ****        27.5000  -9.0000   1.7500 Du        
   5996 ****        27.5000  -9.0000   2.0000 Du        
   5997 ****        27.5000  -9.0000   2.2500 Du        
   5998 ****        27.5000  -9.0000   2.5000 Du        
   5999 ****        27.5000  -9.0000   2.7500 Du        
   6000 ****        27.5000  -9.0000   3.0000 Du        
   6001 ****        27.5000  -9.0000   3.2500 Du        
   6002 ****        27.5000  -9.0000   3.5000 Du        
   6003 ****        27.5000  -9.0000   3.7500 Du        
   6004 ****        27.5000  -9.0000   4.0000 Du        
   6005 ****        27.5000  -9.0000   4.2500 Du        
   6006 ****        27.5000  -9.0000   4.5000 Du        
   6007 ****        27.5000  -8.7500   0.7500 Du        
   6008 ****        27.5000  -8.7500   1.0000 Du        
   6009 ****        27.5000  -8.7500   1.2500 Du        
   6010 ****        27.5000  -8.7500   1.5000 Du        
   6011 ****        27.5000  -8.7500   1.7500 Du        
   6012 ****        27.5000  -8.7500   2.0000 Du        
   6013 ****        27.5000  -8.7500   2.2500 Du        
   6014 ****        27.5000  -8.7500   2.5000 Du        
   6015 ****        27.5000  -8.7500   2.7500 Du        
   6016 ****        27.5000  -8.7500   3.0000 Du        
   6017 ****        27.5000  -8.7500   3.2500 Du        
   6018 ****        27.5000  -8.7500   3.5000 Du        
   6019 ****        27.5000  -8.7500   3.7500 Du        
   6020 ****        27.5000  -8.7500   4.0000 Du        
   6021 ****        27.5000  -8.7500   4.2500 Du        
   6022 ****        27.5000  -8.5000   1.5000 Du        
   6023 ****        27.5000  -8.5000   1.7500 Du        
   6024 ****        27.5000  -8.5000   2.0000 Du        
   6025 ****        27.5000  -8.5000   2.2500 Du        
   6026 ****        27.5000  -8.5000   2.5000 Du        
   6027 ****        27.5000  -8.5000   2.7500 Du        
   6028 ****        27.5000  -8.5000   3.0000 Du        
   6029 ****        27.5000  -8.5000   3.2500 Du        
   6030 ****        27.5000  -8.5000   3.5000 Du        
   6031 ****        27.5000  -8.5000   3.7500 Du        
   6032 ****        27.5000  -8.5000   4.0000 Du        
   6033 ****        27.5000  -8.5000   4.2500 Du        
   6034 ****        27.5000  -8.2500   2.0000 Du        
   6035 ****        27.5000  -8.2500   2.2500 Du        
   6036 ****        27.5000  -8.2500   2.5000 Du        
   6037 ****        27.5000  -8.2500   2.7500 Du        
   6038 ****        27.5000  -8.2500   3.0000 Du        
   6039 ****        27.5000  -8.2500   3.2500 Du        
   6040 ****        27.5000  -8.2500   3.5000 Du        
   6041 ****        27.5000  -8.2500   3.7500 Du        
   6042 ****        27.5000  -8.2500   4.0000 Du        
   6043 ****        27.5000  -8.2500   4.2500 Du        
   6044 ****        27.5000  -8.0000   2.2500 Du        
   6045 ****        27.5000  -8.0000   2.5000 Du        
   6046 ****        27.5000  -8.0000   2.7500 Du        
   6047 ****        27.5000  -8.0000   3.0000 Du        
   6048 ****        27.5000  -8.0000   3.2500 Du        
   6049 ****        27.5000  -8.0000   3.5000 Du        
   6050 ****        27.5000  -8.0000   3.7500 Du        
   6051 ****        27.5000  -8.0000   4.0000 Du        
   6052 ****        27.5000  -7.7500   2.5000 Du        
   6053 ****        27.5000  -7.7500   2.7500 Du        
   6054 ****        27.5000  -7.7500   3.0000 Du        
   6055 ****        27.5000  -7.7500   3.2500 Du        
   6056 ****        27.5000  -7.7500   3.5000 Du        
   6057 ****        27.5000  -7.7500   3.7500 Du        
   6058 ****        27.5000  -7.7500   4.0000 Du        
   6059 ****        27.5000  -7.5000   2.7500 Du        
   6060 ****        27.5000  -7.5000   3.0000 Du        
   6061 ****        27.5000  -7.5000   3.2500 Du        
   6062 ****        27.5000  -7.5000   3.5000 Du        
   6063 ****        27.5000  -7.5000   3.7500 Du        
   6064 ****        27.5000  -7.2500   3.0000 Du        
   6065 ****        27.5000  -7.2500   3.2500 Du        
   6066 ****        27.7500 -10.2500   4.0000 Du        
   6067 ****        27.7500 -10.2500   4.2500 Du        
   6068 ****        27.7500 -10.0000   3.7500 Du        
   6069 ****        27.7500 -10.0000   4.0000 Du        
   6070 ****        27.7500 -10.0000   4.2500 Du        
   6071 ****        27.7500 -10.0000   4.5000 Du        
   6072 ****        27.7500  -9.7500   3.2500 Du        
   6073 ****        27.7500  -9.7500   3.5000 Du        
   6074 ****        27.7500  -9.7500   3.7500 Du        
   6075 ****        27.7500  -9.7500   4.0000 Du        
   6076 ****        27.7500  -9.7500   4.2500 Du        
   6077 ****        27.7500  -9.7500   4.5000 Du        
   6078 ****        27.7500  -9.7500   4.7500 Du        
   6079 ****        27.7500  -9.5000   0.2500 Du        
   6080 ****        27.7500  -9.5000   0.5000 Du        
   6081 ****        27.7500  -9.5000   0.7500 Du        
   6082 ****        27.7500  -9.5000   1.0000 Du        
   6083 ****        27.7500  -9.5000   3.0000 Du        
   6084 ****        27.7500  -9.5000   3.2500 Du        
   6085 ****        27.7500  -9.5000   3.5000 Du        
   6086 ****        27.7500  -9.5000   3.7500 Du        
   6087 ****        27.7500  -9.5000   4.0000 Du        
   6088 ****        27.7500  -9.5000   4.2500 Du        
   6089 ****        27.7500  -9.5000   4.5000 Du        
   6090 ****        27.7500  -9.5000   4.7500 Du        
   6091 ****        27.7500  -9.2500   0.0000 Du        
   6092 ****        27.7500  -9.2500   0.2500 Du        
   6093 ****        27.7500  -9.2500   0.5000 Du        
   6094 ****        27.7500  -9.2500   0.7500 Du        
   6095 ****        27.7500  -9.2500   1.0000 Du        
   6096 ****        27.7500  -9.2500   1.2500 Du        
   6097 ****        27.7500  -9.2500   1.5000 Du        
   6098 ****        27.7500  -9.2500   1.7500 Du        
   6099 ****        27.7500  -9.2500   2.0000 Du        
   6100 ****        27.7500  -9.2500   2.2500 Du        
   6101 ****        27.7500  -9.2500   2.7500 Du        
   6102 ****        27.7500  -9.2500   3.0000 Du        
   6103 ****        27.7500  -9.2500   3.2500 Du        
   6104 ****        27.7500  -9.2500   3.5000 Du        
   6105 ****        27.7500  -9.2500   3.7500 Du        
   6106 ****        27.7500  -9.2500   4.0000 Du        
   6107 ****        27.7500  -9.2500   4.2500 Du        
   6108 ****        27.7500  -9.2500   4.5000 Du        
   6109 ****        27.7500  -9.2500   4.7500 Du        
   6110 ****        27.7500  -9.0000   0.2500 Du        
   6111 ****        27.7500  -9.0000   0.5000 Du        
   6112 ****        27.7500  -9.0000   0.7500 Du        
   6113 ****        27.7500  -9.0000   1.0000 Du        
   6114 ****        27.7500  -9.0000   1.2500 Du        
   6115 ****        27.7500  -9.0000   1.5000 Du        
   6116 ****        27.7500  -9.0000   1.7500 Du        
   6117 ****        27.7500  -9.0000   2.0000 Du        
   6118 ****        27.7500  -9.0000   2.2500 Du        
   6119 ****        27.7500  -9.0000   2.7500 Du        
   6120 ****        27.7500  -9.0000   3.0000 Du        
   6121 ****        27.7500  -9.0000   3.2500 Du        
   6122 ****        27.7500  -9.0000   3.5000 Du        
   6123 ****        27.7500  -9.0000   3.7500 Du        
   6124 ****        27.7500  -9.0000   4.0000 Du        
   6125 ****        27.7500  -9.0000   4.2500 Du        
   6126 ****        27.7500  -9.0000   4.5000 Du        
   6127 ****        27.7500  -8.7500   1.7500 Du        
   6128 ****        27.7500  -8.7500   2.0000 Du        
   6129 ****        27.7500  -8.7500   2.2500 Du        
   6130 ****        27.7500  -8.7500   2.5000 Du        
   6131 ****        27.7500  -8.7500   2.7500 Du        
   6132 ****        27.7500  -8.7500   3.0000 Du        
   6133 ****        27.7500  -8.7500   3.2500 Du        
   6134 ****        27.7500  -8.7500   3.5000 Du        
   6135 ****        27.7500  -8.7500   3.7500 Du        
   6136 ****        27.7500  -8.7500   4.0000 Du        
   6137 ****        27.7500  -8.7500   4.2500 Du        
   6138 ****        27.7500  -8.7500   4.5000 Du        
   6139 ****        27.7500  -8.5000   2.0000 Du        
   6140 ****        27.7500  -8.5000   2.2500 Du        
   6141 ****        27.7500  -8.5000   2.5000 Du        
   6142 ****        27.7500  -8.5000   2.7500 Du        
   6143 ****        27.7500  -8.5000   3.0000 Du        
   6144 ****        27.7500  -8.5000   3.2500 Du        
   6145 ****        27.7500  -8.5000   3.5000 Du        
   6146 ****        27.7500  -8.5000   3.7500 Du        
   6147 ****        27.7500  -8.5000   4.0000 Du        
   6148 ****        27.7500  -8.5000   4.2500 Du        
   6149 ****        27.7500  -8.2500   2.5000 Du        
   6150 ****        27.7500  -8.2500   2.7500 Du        
   6151 ****        27.7500  -8.2500   3.0000 Du        
   6152 ****        27.7500  -8.2500   3.2500 Du        
   6153 ****        27.7500  -8.2500   3.5000 Du        
   6154 ****        27.7500  -8.2500   3.7500 Du        
   6155 ****        27.7500  -8.2500   4.0000 Du        
   6156 ****        27.7500  -8.2500   4.2500 Du        
   6157 ****        27.7500  -8.0000   2.7500 Du        
   6158 ****        27.7500  -8.0000   3.0000 Du        
   6159 ****        27.7500  -8.0000   3.2500 Du        
   6160 ****        27.7500  -8.0000   3.5000 Du        
   6161 ****        27.7500  -8.0000   3.7500 Du        
   6162 ****        27.7500  -8.0000   4.0000 Du        
   6163 ****        27.7500  -8.0000   4.2500 Du        
   6164 ****        27.7500  -7.7500   2.7500 Du        
   6165 ****        27.7500  -7.7500   3.0000 Du        
   6166 ****        27.7500  -7.7500   3.2500 Du        
   6167 ****        27.7500  -7.7500   3.5000 Du        
   6168 ****        27.7500  -7.7500   3.7500 Du        
   6169 ****        27.7500  -7.7500   4.0000 Du        
   6170 ****        27.7500  -7.5000   3.0000 Du        
   6171 ****        27.7500  -7.5000   3.2500 Du        
   6172 ****        27.7500  -7.5000   3.5000 Du        
   6173 ****        27.7500  -7.5000   3.7500 Du        
   6174 ****        27.7500  -7.5000   4.0000 Du        
   6175 ****        27.7500  -7.2500   3.0000 Du        
   6176 ****        27.7500  -7.2500   3.2500 Du        
   6177 ****        27.7500  -7.2500   3.5000 Du        
   6178 ****        27.7500  -7.2500   3.7500 Du        
   6179 ****        28.0000 -10.2500   4.0000 Du        
   6180 ****        28.0000 -10.2500   4.2500 Du        
   6181 ****        28.0000 -10.2500   4.5000 Du        
   6182 ****        28.0000 -10.2500   4.7500 Du        
   6183 ****        28.0000 -10.0000   3.7500 Du        
   6184 ****        28.0000 -10.0000   4.0000 Du        
   6185 ****        28.0000 -10.0000   4.2500 Du        
   6186 ****        28.0000 -10.0000   4.5000 Du        
   6187 ****        28.0000 -10.0000   4.7500 Du        
   6188 ****        28.0000 -10.0000   5.0000 Du        
   6189 ****        28.0000  -9.7500   3.5000 Du        
   6190 ****        28.0000  -9.7500   3.7500 Du        
   6191 ****        28.0000  -9.7500   4.0000 Du        
   6192 ****        28.0000  -9.7500   4.2500 Du        
   6193 ****        28.0000  -9.7500   4.5000 Du        
   6194 ****        28.0000  -9.7500   4.7500 Du        
   6195 ****        28.0000  -9.7500   5.0000 Du        
   6196 ****        28.0000  -9.7500   5.2500 Du        
   6197 ****        28.0000  -9.5000   0.2500 Du        
   6198 ****        28.0000  -9.5000   0.5000 Du        
   6199 ****        28.0000  -9.5000   0.7500 Du        
   6200 ****        28.0000  -9.5000   1.0000 Du        
   6201 ****        28.0000  -9.5000   3.2500 Du        
   6202 ****        28.0000  -9.5000   3.5000 Du        
   6203 ****        28.0000  -9.5000   3.7500 Du        
   6204 ****        28.0000  -9.5000   4.0000 Du        
   6205 ****        28.0000  -9.5000   4.2500 Du        
   6206 ****        28.0000  -9.5000   4.5000 Du        
   6207 ****        28.0000  -9.5000   4.7500 Du        
   6208 ****        28.0000  -9.5000   5.0000 Du        
   6209 ****        28.0000  -9.2500   0.0000 Du        
   6210 ****        28.0000  -9.2500   0.2500 Du        
   6211 ****        28.0000  -9.2500   0.5000 Du        
   6212 ****        28.0000  -9.2500   0.7500 Du        
   6213 ****        28.0000  -9.2500   1.0000 Du        
   6214 ****        28.0000  -9.2500   1.2500 Du        
   6215 ****        28.0000  -9.2500   1.7500 Du        
   6216 ****        28.0000  -9.2500   2.0000 Du        
   6217 ****        28.0000  -9.2500   2.2500 Du        
   6218 ****        28.0000  -9.2500   2.7500 Du        
   6219 ****        28.0000  -9.2500   3.0000 Du        
   6220 ****        28.0000  -9.2500   3.2500 Du        
   6221 ****        28.0000  -9.2500   3.5000 Du        
   6222 ****        28.0000  -9.2500   3.7500 Du        
   6223 ****        28.0000  -9.2500   4.0000 Du        
   6224 ****        28.0000  -9.2500   4.2500 Du        
   6225 ****        28.0000  -9.2500   4.5000 Du        
   6226 ****        28.0000  -9.2500   4.7500 Du        
   6227 ****        28.0000  -9.2500   5.0000 Du        
   6228 ****        28.0000  -9.0000   1.7500 Du        
   6229 ****        28.0000  -9.0000   2.0000 Du        
   6230 ****        28.0000  -9.0000   2.2500 Du        
   6231 ****        28.0000  -9.0000   2.5000 Du        
   6232 ****        28.0000  -9.0000   2.7500 Du        
   6233 ****        28.0000  -9.0000   3.0000 Du        
   6234 ****        28.0000  -9.0000   3.2500 Du        
   6235 ****        28.0000  -9.0000   3.5000 Du        
   6236 ****        28.0000  -9.0000   3.7500 Du        
   6237 ****        28.0000  -9.0000   4.0000 Du        
   6238 ****        28.0000  -9.0000   4.2500 Du        
   6239 ****        28.0000  -9.0000   4.5000 Du        
   6240 ****        28.0000  -9.0000   4.7500 Du        
   6241 ****        28.0000  -8.7500   2.2500 Du        
   6242 ****        28.0000  -8.7500   2.7500 Du        
   6243 ****        28.0000  -8.7500   3.0000 Du        
   6244 ****        28.0000  -8.7500   3.2500 Du        
   6245 ****        28.0000  -8.7500   3.5000 Du        
   6246 ****        28.0000  -8.7500   3.7500 Du        
   6247 ****        28.0000  -8.7500   4.0000 Du        
   6248 ****        28.0000  -8.7500   4.2500 Du        
   6249 ****        28.0000  -8.7500   4.5000 Du        
   6250 ****        28.0000  -8.5000   2.7500 Du        
   6251 ****        28.0000  -8.5000   3.0000 Du        
   6252 ****        28.0000  -8.5000   3.2500 Du        
   6253 ****        28.0000  -8.5000   3.5000 Du        
   6254 ****        28.0000  -8.5000   3.7500 Du        
   6255 ****        28.0000  -8.5000   4.0000 Du        
   6256 ****        28.0000  -8.5000   4.2500 Du        
   6257 ****        28.0000  -8.5000   4.5000 Du        
   6258 ****        28.0000  -8.2500   2.7500 Du        
   6259 ****        28.0000  -8.2500   3.0000 Du        
   6260 ****        28.0000  -8.2500   3.2500 Du        
   6261 ****        28.0000  -8.2500   3.5000 Du        
   6262 ****        28.0000  -8.2500   3.7500 Du        
   6263 ****        28.0000  -8.2500   4.0000 Du        
   6264 ****        28.0000  -8.2500   4.2500 Du        
   6265 ****        28.0000  -8.0000   3.0000 Du        
   6266 ****        28.0000  -8.0000   3.2500 Du        
   6267 ****        28.0000  -8.0000   3.5000 Du        
   6268 ****        28.0000  -8.0000   3.7500 Du        
   6269 ****        28.0000  -8.0000   4.0000 Du        
   6270 ****        28.0000  -8.0000   4.2500 Du        
   6271 ****        28.0000  -7.7500   3.0000 Du        
   6272 ****        28.0000  -7.7500   3.2500 Du        
   6273 ****        28.0000  -7.7500   3.5000 Du        
   6274 ****        28.0000  -7.7500   3.7500 Du        
   6275 ****        28.0000  -7.7500   4.0000 Du        
   6276 ****        28.0000  -7.7500   4.2500 Du        
   6277 ****        28.0000  -7.5000   3.2500 Du        
   6278 ****        28.0000  -7.5000   3.5000 Du        
   6279 ****        28.0000  -7.5000   3.7500 Du        
   6280 ****        28.0000  -7.5000   4.0000 Du        
   6281 ****        28.0000  -7.2500   3.2500 Du        
   6282 ****        28.0000  -7.2500   3.5000 Du        
   6283 ****        28.0000  -7.2500   3.7500 Du        
   6284 ****        28.0000  -7.2500   4.0000 Du        
   6285 ****        28.2500 -10.5000   4.5000 Du        
   6286 ****        28.2500 -10.2500   4.0000 Du        
   6287 ****        28.2500 -10.2500   4.2500 Du        
   6288 ****        28.2500 -10.2500   4.5000 Du        
   6289 ****        28.2500 -10.2500   4.7500 Du        
   6290 ****        28.2500 -10.2500   5.0000 Du        
   6291 ****        28.2500 -10.0000   3.7500 Du        
   6292 ****        28.2500 -10.0000   4.0000 Du        
   6293 ****        28.2500 -10.0000   4.2500 Du        
   6294 ****        28.2500 -10.0000   4.5000 Du        
   6295 ****        28.2500 -10.0000   4.7500 Du        
   6296 ****        28.2500 -10.0000   5.0000 Du        
   6297 ****        28.2500 -10.0000   5.2500 Du        
   6298 ****        28.2500 -10.0000   5.5000 Du        
   6299 ****        28.2500  -9.7500   3.5000 Du        
   6300 ****        28.2500  -9.7500   3.7500 Du        
   6301 ****        28.2500  -9.7500   4.0000 Du        
   6302 ****        28.2500  -9.7500   4.2500 Du        
   6303 ****        28.2500  -9.7500   4.5000 Du        
   6304 ****        28.2500  -9.7500   4.7500 Du        
   6305 ****        28.2500  -9.7500   5.0000 Du        
   6306 ****        28.2500  -9.7500   5.2500 Du        
   6307 ****        28.2500  -9.7500   5.5000 Du        
   6308 ****        28.2500  -9.7500   5.7500 Du        
   6309 ****        28.2500  -9.5000   0.2500 Du        
   6310 ****        28.2500  -9.5000   0.5000 Du        
   6311 ****        28.2500  -9.5000   0.7500 Du        
   6312 ****        28.2500  -9.5000   3.2500 Du        
   6313 ****        28.2500  -9.5000   3.5000 Du        
   6314 ****        28.2500  -9.5000   3.7500 Du        
   6315 ****        28.2500  -9.5000   4.0000 Du        
   6316 ****        28.2500  -9.5000   4.2500 Du        
   6317 ****        28.2500  -9.5000   4.5000 Du        
   6318 ****        28.2500  -9.5000   4.7500 Du        
   6319 ****        28.2500  -9.5000   5.0000 Du        
   6320 ****        28.2500  -9.5000   5.2500 Du        
   6321 ****        28.2500  -9.5000   5.5000 Du        
   6322 ****        28.2500  -9.2500   0.2500 Du        
   6323 ****        28.2500  -9.2500   0.5000 Du        
   6324 ****        28.2500  -9.2500   0.7500 Du        
   6325 ****        28.2500  -9.2500   2.7500 Du        
   6326 ****        28.2500  -9.2500   3.0000 Du        
   6327 ****        28.2500  -9.2500   3.2500 Du        
   6328 ****        28.2500  -9.2500   3.5000 Du        
   6329 ****        28.2500  -9.2500   3.7500 Du        
   6330 ****        28.2500  -9.2500   4.0000 Du        
   6331 ****        28.2500  -9.2500   4.2500 Du        
   6332 ****        28.2500  -9.2500   4.5000 Du        
   6333 ****        28.2500  -9.2500   4.7500 Du        
   6334 ****        28.2500  -9.2500   5.0000 Du        
   6335 ****        28.2500  -9.2500   5.2500 Du        
   6336 ****        28.2500  -9.0000   2.2500 Du        
   6337 ****        28.2500  -9.0000   2.7500 Du        
   6338 ****        28.2500  -9.0000   3.0000 Du        
   6339 ****        28.2500  -9.0000   3.2500 Du        
   6340 ****        28.2500  -9.0000   3.5000 Du        
   6341 ****        28.2500  -9.0000   3.7500 Du        
   6342 ****        28.2500  -9.0000   4.0000 Du        
   6343 ****        28.2500  -9.0000   4.2500 Du        
   6344 ****        28.2500  -9.0000   4.5000 Du        
   6345 ****        28.2500  -9.0000   4.7500 Du        
   6346 ****        28.2500  -9.0000   5.0000 Du        
   6347 ****        28.2500  -8.7500   3.0000 Du        
   6348 ****        28.2500  -8.7500   3.2500 Du        
   6349 ****        28.2500  -8.7500   3.5000 Du        
   6350 ****        28.2500  -8.7500   3.7500 Du        
   6351 ****        28.2500  -8.7500   4.0000 Du        
   6352 ****        28.2500  -8.7500   4.2500 Du        
   6353 ****        28.2500  -8.7500   4.5000 Du        
   6354 ****        28.2500  -8.7500   4.7500 Du        
   6355 ****        28.2500  -8.5000   3.0000 Du        
   6356 ****        28.2500  -8.5000   3.2500 Du        
   6357 ****        28.2500  -8.5000   3.5000 Du        
   6358 ****        28.2500  -8.5000   3.7500 Du        
   6359 ****        28.2500  -8.5000   4.0000 Du        
   6360 ****        28.2500  -8.5000   4.2500 Du        
   6361 ****        28.2500  -8.5000   4.5000 Du        
   6362 ****        28.2500  -8.2500   3.0000 Du        
   6363 ****        28.2500  -8.2500   3.2500 Du        
   6364 ****        28.2500  -8.2500   3.5000 Du        
   6365 ****        28.2500  -8.2500   3.7500 Du        
   6366 ****        28.2500  -8.2500   4.0000 Du        
   6367 ****        28.2500  -8.2500   4.2500 Du        
   6368 ****        28.2500  -8.2500   4.5000 Du        
   6369 ****        28.2500  -8.0000   3.2500 Du        
   6370 ****        28.2500  -8.0000   3.5000 Du        
   6371 ****        28.2500  -8.0000   3.7500 Du        
   6372 ****        28.2500  -8.0000   4.0000 Du        
   6373 ****        28.2500  -8.0000   4.2500 Du        
   6374 ****        28.2500  -7.7500   3.2500 Du        
   6375 ****        28.2500  -7.7500   3.5000 Du        
   6376 ****        28.2500  -7.7500   3.7500 Du        
   6377 ****        28.2500  -7.7500   4.0000 Du        
   6378 ****        28.2500  -7.7500   4.2500 Du        
   6379 ****        28.2500  -7.5000   3.5000 Du        
   6380 ****        28.2500  -7.5000   3.7500 Du        
   6381 ****        28.2500  -7.5000   4.0000 Du        
   6382 ****        28.2500  -7.2500   3.5000 Du        
   6383 ****        28.2500  -7.2500   3.7500 Du        
   6384 ****        28.2500  -7.2500   4.0000 Du        
   6385 ****        28.5000 -10.5000   4.5000 Du        
   6386 ****        28.5000 -10.5000   4.7500 Du        
   6387 ****        28.5000 -10.5000   5.0000 Du        
   6388 ****        28.5000 -10.5000   5.2500 Du        
   6389 ****        28.5000 -10.2500   4.0000 Du        
   6390 ****        28.5000 -10.2500   4.2500 Du        
   6391 ****        28.5000 -10.2500   4.5000 Du        
   6392 ****        28.5000 -10.2500   4.7500 Du        
   6393 ****        28.5000 -10.2500   5.0000 Du        
   6394 ****        28.5000 -10.2500   5.2500 Du        
   6395 ****        28.5000 -10.2500   5.5000 Du        
   6396 ****        28.5000 -10.0000   3.7500 Du        
   6397 ****        28.5000 -10.0000   4.0000 Du        
   6398 ****        28.5000 -10.0000   4.2500 Du        
   6399 ****        28.5000 -10.0000   4.5000 Du        
   6400 ****        28.5000 -10.0000   4.7500 Du        
   6401 ****        28.5000 -10.0000   5.0000 Du        
   6402 ****        28.5000 -10.0000   5.2500 Du        
   6403 ****        28.5000 -10.0000   5.5000 Du        
   6404 ****        28.5000 -10.0000   5.7500 Du        
   6405 ****        28.5000 -10.0000   6.0000 Du        
   6406 ****        28.5000  -9.7500   0.2500 Du        
   6407 ****        28.5000  -9.7500   3.2500 Du        
   6408 ****        28.5000  -9.7500   3.5000 Du        
   6409 ****        28.5000  -9.7500   3.7500 Du        
   6410 ****        28.5000  -9.7500   4.0000 Du        
   6411 ****        28.5000  -9.7500   4.2500 Du        
   6412 ****        28.5000  -9.7500   4.5000 Du        
   6413 ****        28.5000  -9.7500   4.7500 Du        
   6414 ****        28.5000  -9.7500   5.0000 Du        
   6415 ****        28.5000  -9.7500   5.2500 Du        
   6416 ****        28.5000  -9.7500   5.5000 Du        
   6417 ****        28.5000  -9.7500   5.7500 Du        
   6418 ****        28.5000  -9.7500   6.0000 Du        
   6419 ****        28.5000  -9.5000   0.0000 Du        
   6420 ****        28.5000  -9.5000   0.2500 Du        
   6421 ****        28.5000  -9.5000   0.5000 Du        
   6422 ****        28.5000  -9.5000   3.2500 Du        
   6423 ****        28.5000  -9.5000   3.5000 Du        
   6424 ****        28.5000  -9.5000   3.7500 Du        
   6425 ****        28.5000  -9.5000   4.0000 Du        
   6426 ****        28.5000  -9.5000   4.2500 Du        
   6427 ****        28.5000  -9.5000   4.5000 Du        
   6428 ****        28.5000  -9.5000   4.7500 Du        
   6429 ****        28.5000  -9.5000   5.0000 Du        
   6430 ****        28.5000  -9.5000   5.2500 Du        
   6431 ****        28.5000  -9.5000   5.5000 Du        
   6432 ****        28.5000  -9.5000   5.7500 Du        
   6433 ****        28.5000  -9.5000   6.0000 Du        
   6434 ****        28.5000  -9.2500   3.0000 Du        
   6435 ****        28.5000  -9.2500   3.2500 Du        
   6436 ****        28.5000  -9.2500   3.5000 Du        
   6437 ****        28.5000  -9.2500   3.7500 Du        
   6438 ****        28.5000  -9.2500   4.0000 Du        
   6439 ****        28.5000  -9.2500   4.2500 Du        
   6440 ****        28.5000  -9.2500   4.5000 Du        
   6441 ****        28.5000  -9.2500   4.7500 Du        
   6442 ****        28.5000  -9.2500   5.0000 Du        
   6443 ****        28.5000  -9.2500   5.2500 Du        
   6444 ****        28.5000  -9.2500   5.5000 Du        
   6445 ****        28.5000  -9.0000   2.7500 Du        
   6446 ****        28.5000  -9.0000   3.0000 Du        
   6447 ****        28.5000  -9.0000   3.2500 Du        
   6448 ****        28.5000  -9.0000   3.5000 Du        
   6449 ****        28.5000  -9.0000   3.7500 Du        
   6450 ****        28.5000  -9.0000   4.0000 Du        
   6451 ****        28.5000  -9.0000   4.2500 Du        
   6452 ****        28.5000  -9.0000   4.5000 Du        
   6453 ****        28.5000  -9.0000   4.7500 Du        
   6454 ****        28.5000  -9.0000   5.0000 Du        
   6455 ****        28.5000  -9.0000   5.2500 Du        
   6456 ****        28.5000  -8.7500   3.0000 Du        
   6457 ****        28.5000  -8.7500   3.2500 Du        
   6458 ****        28.5000  -8.7500   3.5000 Du        
   6459 ****        28.5000  -8.7500   3.7500 Du        
   6460 ****        28.5000  -8.7500   4.0000 Du        
   6461 ****        28.5000  -8.7500   4.2500 Du        
   6462 ****        28.5000  -8.7500   4.5000 Du        
   6463 ****        28.5000  -8.7500   4.7500 Du        
   6464 ****        28.5000  -8.7500   5.0000 Du        
   6465 ****        28.5000  -8.5000   3.2500 Du        
   6466 ****        28.5000  -8.5000   3.5000 Du        
   6467 ****        28.5000  -8.5000   3.7500 Du        
   6468 ****        28.5000  -8.5000   4.0000 Du        
   6469 ****        28.5000  -8.5000   4.2500 Du        
   6470 ****        28.5000  -8.5000   4.5000 Du        
   6471 ****        28.5000  -8.5000   4.7500 Du        
   6472 ****        28.5000  -8.2500   3.2500 Du        
   6473 ****        28.5000  -8.2500   3.5000 Du        
   6474 ****        28.5000  -8.2500   3.7500 Du        
   6475 ****        28.5000  -8.2500   4.0000 Du        
   6476 ****        28.5000  -8.2500   4.2500 Du        
   6477 ****        28.5000  -8.2500   4.5000 Du        
   6478 ****        28.5000  -8.0000   3.5000 Du        
   6479 ****        28.5000  -8.0000   3.7500 Du        
   6480 ****        28.5000  -8.0000   4.0000 Du        
   6481 ****        28.5000  -8.0000   4.2500 Du        
   6482 ****        28.5000  -7.7500   3.5000 Du        
   6483 ****        28.5000  -7.7500   3.7500 Du        
   6484 ****        28.5000  -7.7500   4.0000 Du        
   6485 ****        28.5000  -7.7500   4.2500 Du        
   6486 ****        28.5000  -7.5000   3.7500 Du        
   6487 ****        28.7500 -10.7500   5.0000 Du        
   6488 ****        28.7500 -10.7500   5.2500 Du        
   6489 ****        28.7500 -10.5000   4.5000 Du        
   6490 ****        28.7500 -10.5000   4.7500 Du        
   6491 ****        28.7500 -10.5000   5.0000 Du        
   6492 ****        28.7500 -10.5000   5.2500 Du        
   6493 ****        28.7500 -10.5000   5.5000 Du        
   6494 ****        28.7500 -10.2500   4.0000 Du        
   6495 ****        28.7500 -10.2500   4.2500 Du        
   6496 ****        28.7500 -10.2500   4.5000 Du        
   6497 ****        28.7500 -10.2500   4.7500 Du        
   6498 ****        28.7500 -10.2500   5.0000 Du        
   6499 ****        28.7500 -10.2500   5.2500 Du        
   6500 ****        28.7500 -10.2500   5.5000 Du        
   6501 ****        28.7500 -10.2500   5.7500 Du        
   6502 ****        28.7500 -10.0000   3.5000 Du        
   6503 ****        28.7500 -10.0000   3.7500 Du        
   6504 ****        28.7500 -10.0000   4.0000 Du        
   6505 ****        28.7500 -10.0000   4.2500 Du        
   6506 ****        28.7500 -10.0000   4.5000 Du        
   6507 ****        28.7500 -10.0000   4.7500 Du        
   6508 ****        28.7500 -10.0000   5.0000 Du        
   6509 ****        28.7500 -10.0000   5.2500 Du        
   6510 ****        28.7500 -10.0000   5.5000 Du        
   6511 ****        28.7500 -10.0000   5.7500 Du        
   6512 ****        28.7500 -10.0000   6.0000 Du        
   6513 ****        28.7500  -9.7500   0.0000 Du        
   6514 ****        28.7500  -9.7500   0.2500 Du        
   6515 ****        28.7500  -9.7500   3.2500 Du        
   6516 ****        28.7500  -9.7500   3.5000 Du        
   6517 ****        28.7500  -9.7500   3.7500 Du        
   6518 ****        28.7500  -9.7500   4.0000 Du        
   6519 ****        28.7500  -9.7500   4.2500 Du        
   6520 ****        28.7500  -9.7500   4.5000 Du        
   6521 ****        28.7500  -9.7500   4.7500 Du        
   6522 ****        28.7500  -9.7500   5.0000 Du        
   6523 ****        28.7500  -9.7500   5.2500 Du        
   6524 ****        28.7500  -9.7500   5.5000 Du        
   6525 ****        28.7500  -9.7500   5.7500 Du        
   6526 ****        28.7500  -9.7500   6.0000 Du        
   6527 ****        28.7500  -9.7500   6.2500 Du        
   6528 ****        28.7500  -9.5000   0.0000 Du        
   6529 ****        28.7500  -9.5000   0.2500 Du        
   6530 ****        28.7500  -9.5000   3.0000 Du        
   6531 ****        28.7500  -9.5000   3.2500 Du        
   6532 ****        28.7500  -9.5000   3.5000 Du        
   6533 ****        28.7500  -9.5000   3.7500 Du        
   6534 ****        28.7500  -9.5000   4.0000 Du        
   6535 ****        28.7500  -9.5000   4.2500 Du        
   6536 ****        28.7500  -9.5000   4.5000 Du        
   6537 ****        28.7500  -9.5000   4.7500 Du        
   6538 ****        28.7500  -9.5000   5.0000 Du        
   6539 ****        28.7500  -9.5000   5.2500 Du        
   6540 ****        28.7500  -9.5000   5.5000 Du        
   6541 ****        28.7500  -9.5000   5.7500 Du        
   6542 ****        28.7500  -9.5000   6.0000 Du        
   6543 ****        28.7500  -9.5000   6.2500 Du        
   6544 ****        28.7500  -9.2500   2.7500 Du        
   6545 ****        28.7500  -9.2500   3.0000 Du        
   6546 ****        28.7500  -9.2500   3.2500 Du        
   6547 ****        28.7500  -9.2500   3.5000 Du        
   6548 ****        28.7500  -9.2500   3.7500 Du        
   6549 ****        28.7500  -9.2500   4.0000 Du        
   6550 ****        28.7500  -9.2500   4.2500 Du        
   6551 ****        28.7500  -9.2500   4.5000 Du        
   6552 ****        28.7500  -9.2500   4.7500 Du        
   6553 ****        28.7500  -9.2500   5.0000 Du        
   6554 ****        28.7500  -9.2500   5.2500 Du        
   6555 ****        28.7500  -9.2500   5.5000 Du        
   6556 ****        28.7500  -9.2500   5.7500 Du        
   6557 ****        28.7500  -9.2500   6.0000 Du        
   6558 ****        28.7500  -9.0000   3.0000 Du        
   6559 ****        28.7500  -9.0000   3.2500 Du        
   6560 ****        28.7500  -9.0000   3.5000 Du        
   6561 ****        28.7500  -9.0000   3.7500 Du        
   6562 ****        28.7500  -9.0000   4.0000 Du        
   6563 ****        28.7500  -9.0000   4.2500 Du        
   6564 ****        28.7500  -9.0000   4.5000 Du        
   6565 ****        28.7500  -9.0000   4.7500 Du        
   6566 ****        28.7500  -9.0000   5.0000 Du        
   6567 ****        28.7500  -9.0000   5.2500 Du        
   6568 ****        28.7500  -9.0000   5.5000 Du        
   6569 ****        28.7500  -8.7500   3.2500 Du        
   6570 ****        28.7500  -8.7500   3.5000 Du        
   6571 ****        28.7500  -8.7500   3.7500 Du        
   6572 ****        28.7500  -8.7500   4.0000 Du        
   6573 ****        28.7500  -8.7500   4.2500 Du        
   6574 ****        28.7500  -8.7500   4.5000 Du        
   6575 ****        28.7500  -8.7500   4.7500 Du        
   6576 ****        28.7500  -8.7500   5.0000 Du        
   6577 ****        28.7500  -8.7500   5.2500 Du        
   6578 ****        28.7500  -8.5000   3.5000 Du        
   6579 ****        28.7500  -8.5000   3.7500 Du        
   6580 ****        28.7500  -8.5000   4.0000 Du        
   6581 ****        28.7500  -8.5000   4.2500 Du        
   6582 ****        28.7500  -8.5000   4.5000 Du        
   6583 ****        28.7500  -8.5000   4.7500 Du        
   6584 ****        28.7500  -8.2500   3.5000 Du        
   6585 ****        28.7500  -8.2500   3.7500 Du        
   6586 ****        28.7500  -8.2500   4.0000 Du        
   6587 ****        28.7500  -8.2500   4.2500 Du        
   6588 ****        28.7500  -8.2500   4.5000 Du        
   6589 ****        28.7500  -8.0000   3.7500 Du        
   6590 ****        28.7500  -8.0000   4.0000 Du        
   6591 ****        28.7500  -8.0000   4.2500 Du        
   6592 ****        29.0000 -10.7500   4.7500 Du        
   6593 ****        29.0000 -10.7500   5.0000 Du        
   6594 ****        29.0000 -10.7500   5.2500 Du        
   6595 ****        29.0000 -10.5000   4.2500 Du        
   6596 ****        29.0000 -10.5000   4.5000 Du        
   6597 ****        29.0000 -10.5000   4.7500 Du        
   6598 ****        29.0000 -10.5000   5.0000 Du        
   6599 ****        29.0000 -10.5000   5.2500 Du        
   6600 ****        29.0000 -10.5000   5.5000 Du        
   6601 ****        29.0000 -10.5000   5.7500 Du        
   6602 ****        29.0000 -10.2500   4.0000 Du        
   6603 ****        29.0000 -10.2500   4.2500 Du        
   6604 ****        29.0000 -10.2500   4.5000 Du        
   6605 ****        29.0000 -10.2500   4.7500 Du        
   6606 ****        29.0000 -10.2500   5.0000 Du        
   6607 ****        29.0000 -10.2500   5.2500 Du        
   6608 ****        29.0000 -10.2500   5.5000 Du        
   6609 ****        29.0000 -10.2500   5.7500 Du        
   6610 ****        29.0000 -10.2500   6.0000 Du        
   6611 ****        29.0000 -10.0000   3.5000 Du        
   6612 ****        29.0000 -10.0000   3.7500 Du        
   6613 ****        29.0000 -10.0000   4.0000 Du        
   6614 ****        29.0000 -10.0000   4.2500 Du        
   6615 ****        29.0000 -10.0000   4.5000 Du        
   6616 ****        29.0000 -10.0000   4.7500 Du        
   6617 ****        29.0000 -10.0000   5.0000 Du        
   6618 ****        29.0000 -10.0000   5.2500 Du        
   6619 ****        29.0000 -10.0000   5.5000 Du        
   6620 ****        29.0000 -10.0000   5.7500 Du        
   6621 ****        29.0000 -10.0000   6.0000 Du        
   6622 ****        29.0000 -10.0000   6.2500 Du        
   6623 ****        29.0000  -9.7500   0.0000 Du        
   6624 ****        29.0000  -9.7500   0.2500 Du        
   6625 ****        29.0000  -9.7500   0.5000 Du        
   6626 ****        29.0000  -9.7500   3.2500 Du        
   6627 ****        29.0000  -9.7500   3.5000 Du        
   6628 ****        29.0000  -9.7500   3.7500 Du        
   6629 ****        29.0000  -9.7500   4.0000 Du        
   6630 ****        29.0000  -9.7500   4.2500 Du        
   6631 ****        29.0000  -9.7500   4.5000 Du        
   6632 ****        29.0000  -9.7500   4.7500 Du        
   6633 ****        29.0000  -9.7500   5.0000 Du        
   6634 ****        29.0000  -9.7500   5.2500 Du        
   6635 ****        29.0000  -9.7500   5.5000 Du        
   6636 ****        29.0000  -9.7500   5.7500 Du        
   6637 ****        29.0000  -9.7500   6.0000 Du        
   6638 ****        29.0000  -9.7500   6.2500 Du        
   6639 ****        29.0000  -9.5000   0.0000 Du        
   6640 ****        29.0000  -9.5000   0.2500 Du        
   6641 ****        29.0000  -9.5000   3.0000 Du        
   6642 ****        29.0000  -9.5000   3.2500 Du        
   6643 ****        29.0000  -9.5000   3.5000 Du        
   6644 ****        29.0000  -9.5000   3.7500 Du        
   6645 ****        29.0000  -9.5000   4.0000 Du        
   6646 ****        29.0000  -9.5000   4.2500 Du        
   6647 ****        29.0000  -9.5000   4.5000 Du        
   6648 ****        29.0000  -9.5000   4.7500 Du        
   6649 ****        29.0000  -9.5000   5.0000 Du        
   6650 ****        29.0000  -9.5000   5.2500 Du        
   6651 ****        29.0000  -9.5000   5.5000 Du        
   6652 ****        29.0000  -9.5000   5.7500 Du        
   6653 ****        29.0000  -9.5000   6.0000 Du        
   6654 ****        29.0000  -9.5000   6.2500 Du        
   6655 ****        29.0000  -9.2500   3.0000 Du        
   6656 ****        29.0000  -9.2500   3.2500 Du        
   6657 ****        29.0000  -9.2500   3.5000 Du        
   6658 ****        29.0000  -9.2500   3.7500 Du        
   6659 ****        29.0000  -9.2500   4.0000 Du        
   6660 ****        29.0000  -9.2500   4.2500 Du        
   6661 ****        29.0000  -9.2500   4.5000 Du        
   6662 ****        29.0000  -9.2500   4.7500 Du        
   6663 ****        29.0000  -9.2500   5.0000 Du        
   6664 ****        29.0000  -9.2500   5.2500 Du        
   6665 ****        29.0000  -9.2500   5.5000 Du        
   6666 ****        29.0000  -9.2500   5.7500 Du        
   6667 ****        29.0000  -9.2500   6.0000 Du        
   6668 ****        29.0000  -9.0000   3.0000 Du        
   6669 ****        29.0000  -9.0000   3.2500 Du        
   6670 ****        29.0000  -9.0000   3.5000 Du        
   6671 ****        29.0000  -9.0000   3.7500 Du        
   6672 ****        29.0000  -9.0000   4.0000 Du        
   6673 ****        29.0000  -9.0000   4.2500 Du        
   6674 ****        29.0000  -9.0000   4.5000 Du        
   6675 ****        29.0000  -9.0000   4.7500 Du        
   6676 ****        29.0000  -9.0000   5.0000 Du        
   6677 ****        29.0000  -9.0000   5.2500 Du        
   6678 ****        29.0000  -9.0000   5.5000 Du        
   6679 ****        29.0000  -9.0000   5.7500 Du        
   6680 ****        29.0000  -9.0000   6.0000 Du        
   6681 ****        29.0000  -8.7500   3.2500 Du        
   6682 ****        29.0000  -8.7500   3.5000 Du        
   6683 ****        29.0000  -8.7500   3.7500 Du        
   6684 ****        29.0000  -8.7500   4.0000 Du        
   6685 ****        29.0000  -8.7500   4.2500 Du        
   6686 ****        29.0000  -8.7500   4.5000 Du        
   6687 ****        29.0000  -8.7500   4.7500 Du        
   6688 ****        29.0000  -8.7500   5.0000 Du        
   6689 ****        29.0000  -8.7500   5.2500 Du        
   6690 ****        29.0000  -8.7500   5.5000 Du        
   6691 ****        29.0000  -8.5000   3.5000 Du        
   6692 ****        29.0000  -8.5000   3.7500 Du        
   6693 ****        29.0000  -8.5000   4.0000 Du        
   6694 ****        29.0000  -8.5000   4.2500 Du        
   6695 ****        29.0000  -8.5000   4.5000 Du        
   6696 ****        29.0000  -8.5000   4.7500 Du        
   6697 ****        29.0000  -8.2500   3.7500 Du        
   6698 ****        29.0000  -8.2500   4.0000 Du        
   6699 ****        29.2500 -10.7500   4.7500 Du        
   6700 ****        29.2500 -10.7500   5.0000 Du        
   6701 ****        29.2500 -10.7500   5.2500 Du        
   6702 ****        29.2500 -10.7500   5.5000 Du        
   6703 ****        29.2500 -10.5000   4.2500 Du        
   6704 ****        29.2500 -10.5000   4.5000 Du        
   6705 ****        29.2500 -10.5000   4.7500 Du        
   6706 ****        29.2500 -10.5000   5.0000 Du        
   6707 ****        29.2500 -10.5000   5.2500 Du        
   6708 ****        29.2500 -10.5000   5.5000 Du        
   6709 ****        29.2500 -10.5000   5.7500 Du        
   6710 ****        29.2500 -10.2500   4.0000 Du        
   6711 ****        29.2500 -10.2500   4.2500 Du        
   6712 ****        29.2500 -10.2500   4.5000 Du        
   6713 ****        29.2500 -10.2500   4.7500 Du        
   6714 ****        29.2500 -10.2500   5.0000 Du        
   6715 ****        29.2500 -10.2500   5.2500 Du        
   6716 ****        29.2500 -10.2500   5.5000 Du        
   6717 ****        29.2500 -10.2500   5.7500 Du        
   6718 ****        29.2500 -10.2500   6.0000 Du        
   6719 ****        29.2500 -10.0000   0.0000 Du        
   6720 ****        29.2500 -10.0000   0.2500 Du        
   6721 ****        29.2500 -10.0000   3.5000 Du        
   6722 ****        29.2500 -10.0000   3.7500 Du        
   6723 ****        29.2500 -10.0000   4.0000 Du        
   6724 ****        29.2500 -10.0000   4.2500 Du        
   6725 ****        29.2500 -10.0000   4.5000 Du        
   6726 ****        29.2500 -10.0000   4.7500 Du        
   6727 ****        29.2500 -10.0000   5.0000 Du        
   6728 ****        29.2500 -10.0000   5.2500 Du        
   6729 ****        29.2500 -10.0000   5.5000 Du        
   6730 ****        29.2500 -10.0000   5.7500 Du        
   6731 ****        29.2500 -10.0000   6.0000 Du        
   6732 ****        29.2500 -10.0000   6.2500 Du        
   6733 ****        29.2500  -9.7500   0.0000 Du        
   6734 ****        29.2500  -9.7500   0.2500 Du        
   6735 ****        29.2500  -9.7500   0.5000 Du        
   6736 ****        29.2500  -9.7500   3.2500 Du        
   6737 ****        29.2500  -9.7500   3.5000 Du        
   6738 ****        29.2500  -9.7500   3.7500 Du        
   6739 ****        29.2500  -9.7500   4.0000 Du        
   6740 ****        29.2500  -9.7500   4.2500 Du        
   6741 ****        29.2500  -9.7500   4.5000 Du        
   6742 ****        29.2500  -9.7500   4.7500 Du        
   6743 ****        29.2500  -9.7500   5.0000 Du        
   6744 ****        29.2500  -9.7500   5.2500 Du        
   6745 ****        29.2500  -9.7500   5.5000 Du        
   6746 ****        29.2500  -9.7500   5.7500 Du        
   6747 ****        29.2500  -9.7500   6.0000 Du        
   6748 ****        29.2500  -9.7500   6.2500 Du        
   6749 ****        29.2500  -9.5000   3.0000 Du        
   6750 ****        29.2500  -9.5000   3.2500 Du        
   6751 ****        29.2500  -9.5000   3.5000 Du        
   6752 ****        29.2500  -9.5000   3.7500 Du        
   6753 ****        29.2500  -9.5000   4.0000 Du        
   6754 ****        29.2500  -9.5000   4.2500 Du        
   6755 ****        29.2500  -9.5000   4.5000 Du        
   6756 ****        29.2500  -9.5000   4.7500 Du        
   6757 ****        29.2500  -9.5000   5.0000 Du        
   6758 ****        29.2500  -9.5000   5.2500 Du        
   6759 ****        29.2500  -9.5000   5.5000 Du        
   6760 ****        29.2500  -9.5000   5.7500 Du        
   6761 ****        29.2500  -9.5000   6.0000 Du        
   6762 ****        29.2500  -9.5000   6.2500 Du        
   6763 ****        29.2500  -9.2500   3.0000 Du        
   6764 ****        29.2500  -9.2500   3.2500 Du        
   6765 ****        29.2500  -9.2500   3.5000 Du        
   6766 ****        29.2500  -9.2500   3.7500 Du        
   6767 ****        29.2500  -9.2500   4.0000 Du        
   6768 ****        29.2500  -9.2500   4.2500 Du        
   6769 ****        29.2500  -9.2500   4.5000 Du        
   6770 ****        29.2500  -9.2500   4.7500 Du        
   6771 ****        29.2500  -9.2500   5.0000 Du        
   6772 ****        29.2500  -9.2500   5.2500 Du        
   6773 ****        29.2500  -9.2500   5.5000 Du        
   6774 ****        29.2500  -9.2500   5.7500 Du        
   6775 ****        29.2500  -9.2500   6.0000 Du        
   6776 ****        29.2500  -9.0000   3.2500 Du        
   6777 ****        29.2500  -9.0000   3.5000 Du        
   6778 ****        29.2500  -9.0000   3.7500 Du        
   6779 ****        29.2500  -9.0000   4.0000 Du        
   6780 ****        29.2500  -9.0000   4.2500 Du        
   6781 ****        29.2500  -9.0000   4.5000 Du        
   6782 ****        29.2500  -9.0000   4.7500 Du        
   6783 ****        29.2500  -9.0000   5.0000 Du        
   6784 ****        29.2500  -9.0000   5.2500 Du        
   6785 ****        29.2500  -9.0000   5.5000 Du        
   6786 ****        29.2500  -9.0000   5.7500 Du        
   6787 ****        29.2500  -8.7500   3.5000 Du        
   6788 ****        29.2500  -8.7500   3.7500 Du        
   6789 ****        29.2500  -8.7500   4.0000 Du        
   6790 ****        29.2500  -8.7500   4.2500 Du        
   6791 ****        29.2500  -8.7500   4.5000 Du        
   6792 ****        29.2500  -8.7500   4.7500 Du        
   6793 ****        29.2500  -8.7500   5.0000 Du        
   6794 ****        29.2500  -8.7500   5.2500 Du        
   6795 ****        29.2500  -8.7500   5.5000 Du        
   6796 ****        29.2500  -8.5000   3.7500 Du        
   6797 ****        29.2500  -8.5000   4.0000 Du        
   6798 ****        29.2500  -8.5000   4.2500 Du        
   6799 ****        29.5000 -10.7500   4.7500 Du        
   6800 ****        29.5000 -10.7500   5.0000 Du        
   6801 ****        29.5000 -10.7500   5.2500 Du        
   6802 ****        29.5000 -10.7500   5.5000 Du        
   6803 ****        29.5000 -10.5000   4.5000 Du        
   6804 ****        29.5000 -10.5000   4.7500 Du        
   6805 ****        29.5000 -10.5000   5.0000 Du        
   6806 ****        29.5000 -10.5000   5.2500 Du        
   6807 ****        29.5000 -10.5000   5.5000 Du        
   6808 ****        29.5000 -10.5000   5.7500 Du        
   6809 ****        29.5000 -10.2500   4.0000 Du        
   6810 ****        29.5000 -10.2500   4.2500 Du        
   6811 ****        29.5000 -10.2500   4.5000 Du        
   6812 ****        29.5000 -10.2500   4.7500 Du        
   6813 ****        29.5000 -10.2500   5.0000 Du        
   6814 ****        29.5000 -10.2500   5.2500 Du        
   6815 ****        29.5000 -10.2500   5.5000 Du        
   6816 ****        29.5000 -10.2500   5.7500 Du        
   6817 ****        29.5000 -10.0000   0.0000 Du        
   6818 ****        29.5000 -10.0000   0.2500 Du        
   6819 ****        29.5000 -10.0000   3.5000 Du        
   6820 ****        29.5000 -10.0000   3.7500 Du        
   6821 ****        29.5000 -10.0000   4.0000 Du        
   6822 ****        29.5000 -10.0000   4.2500 Du        
   6823 ****        29.5000 -10.0000   4.5000 Du        
   6824 ****        29.5000 -10.0000   4.7500 Du        
   6825 ****        29.5000 -10.0000   5.0000 Du        
   6826 ****        29.5000 -10.0000   5.2500 Du        
   6827 ****        29.5000 -10.0000   5.5000 Du        
   6828 ****        29.5000 -10.0000   5.7500 Du        
   6829 ****        29.5000 -10.0000   6.0000 Du        
   6830 ****        29.5000  -9.7500   0.0000 Du        
   6831 ****        29.5000  -9.7500   0.2500 Du        
   6832 ****        29.5000  -9.7500   0.5000 Du        
   6833 ****        29.5000  -9.7500   3.2500 Du        
   6834 ****        29.5000  -9.7500   3.5000 Du        
   6835 ****        29.5000  -9.7500   3.7500 Du        
   6836 ****        29.5000  -9.7500   4.0000 Du        
   6837 ****        29.5000  -9.7500   4.2500 Du        
   6838 ****        29.5000  -9.7500   4.5000 Du        
   6839 ****        29.5000  -9.7500   4.7500 Du        
   6840 ****        29.5000  -9.7500   5.0000 Du        
   6841 ****        29.5000  -9.7500   5.2500 Du        
   6842 ****        29.5000  -9.7500   5.5000 Du        
   6843 ****        29.5000  -9.7500   5.7500 Du        
   6844 ****        29.5000  -9.7500   6.0000 Du        
   6845 ****        29.5000  -9.5000   3.2500 Du        
   6846 ****        29.5000  -9.5000   3.5000 Du        
   6847 ****        29.5000  -9.5000   3.7500 Du        
   6848 ****        29.5000  -9.5000   4.0000 Du        
   6849 ****        29.5000  -9.5000   4.2500 Du        
   6850 ****        29.5000  -9.5000   4.5000 Du        
   6851 ****        29.5000  -9.5000   4.7500 Du        
   6852 ****        29.5000  -9.5000   5.0000 Du        
   6853 ****        29.5000  -9.5000   5.2500 Du        
   6854 ****        29.5000  -9.5000   5.5000 Du        
   6855 ****        29.5000  -9.5000   5.7500 Du        
   6856 ****        29.5000  -9.5000   6.0000 Du        
   6857 ****        29.5000  -9.2500   3.2500 Du        
   6858 ****        29.5000  -9.2500   3.5000 Du        
   6859 ****        29.5000  -9.2500   3.7500 Du        
   6860 ****        29.5000  -9.2500   4.0000 Du        
   6861 ****        29.5000  -9.2500   4.2500 Du        
   6862 ****        29.5000  -9.2500   4.5000 Du        
   6863 ****        29.5000  -9.2500   4.7500 Du        
   6864 ****        29.5000  -9.2500   5.0000 Du        
   6865 ****        29.5000  -9.2500   5.2500 Du        
   6866 ****        29.5000  -9.2500   5.5000 Du        
   6867 ****        29.5000  -9.2500   5.7500 Du        
   6868 ****        29.5000  -9.0000   3.5000 Du        
   6869 ****        29.5000  -9.0000   3.7500 Du        
   6870 ****        29.5000  -9.0000   4.0000 Du        
   6871 ****        29.5000  -9.0000   4.2500 Du        
   6872 ****        29.5000  -9.0000   4.5000 Du        
   6873 ****        29.5000  -9.0000   4.7500 Du        
   6874 ****        29.5000  -9.0000   5.0000 Du        
   6875 ****        29.5000  -9.0000   5.2500 Du        
   6876 ****        29.5000  -9.0000   5.5000 Du        
   6877 ****        29.5000  -9.0000   5.7500 Du        
   6878 ****        29.5000  -8.7500   3.7500 Du        
   6879 ****        29.5000  -8.7500   4.0000 Du        
   6880 ****        29.5000  -8.7500   4.2500 Du        
   6881 ****        29.5000  -8.7500   4.5000 Du        
   6882 ****        29.5000  -8.7500   4.7500 Du        
   6883 ****        29.5000  -8.7500   5.0000 Du        
   6884 ****        29.7500 -10.7500   4.7500 Du        
   6885 ****        29.7500 -10.7500   5.0000 Du        
   6886 ****        29.7500 -10.7500   5.2500 Du        
   6887 ****        29.7500 -10.5000   4.5000 Du        
   6888 ****        29.7500 -10.5000   4.7500 Du        
   6889 ****        29.7500 -10.5000   5.0000 Du        
   6890 ****        29.7500 -10.5000   5.2500 Du        
   6891 ****        29.7500 -10.5000   5.5000 Du        
   6892 ****        29.7500 -10.2500   0.0000 Du        
   6893 ****        29.7500 -10.2500   0.2500 Du        
   6894 ****        29.7500 -10.2500   4.0000 Du        
   6895 ****        29.7500 -10.2500   4.2500 Du        
   6896 ****        29.7500 -10.2500   4.5000 Du        
   6897 ****        29.7500 -10.2500   4.7500 Du        
   6898 ****        29.7500 -10.2500   5.0000 Du        
   6899 ****        29.7500 -10.2500   5.2500 Du        
   6900 ****        29.7500 -10.2500   5.5000 Du        
   6901 ****        29.7500 -10.2500   5.7500 Du        
   6902 ****        29.7500 -10.0000   0.0000 Du        
   6903 ****        29.7500 -10.0000   0.2500 Du        
   6904 ****        29.7500 -10.0000   0.5000 Du        
   6905 ****        29.7500 -10.0000   0.7500 Du        
   6906 ****        29.7500 -10.0000   3.5000 Du        
   6907 ****        29.7500 -10.0000   3.7500 Du        
   6908 ****        29.7500 -10.0000   4.0000 Du        
   6909 ****        29.7500 -10.0000   4.2500 Du        
   6910 ****        29.7500 -10.0000   4.5000 Du        
   6911 ****        29.7500 -10.0000   4.7500 Du        
   6912 ****        29.7500 -10.0000   5.0000 Du        
   6913 ****        29.7500 -10.0000   5.2500 Du        
   6914 ****        29.7500 -10.0000   5.5000 Du        
   6915 ****        29.7500 -10.0000   5.7500 Du        
   6916 ****        29.7500 -10.0000   6.0000 Du        
   6917 ****        29.7500  -9.7500   0.2500 Du        
   6918 ****        29.7500  -9.7500   0.5000 Du        
   6919 ****        29.7500  -9.7500   3.2500 Du        
   6920 ****        29.7500  -9.7500   3.5000 Du        
   6921 ****        29.7500  -9.7500   3.7500 Du        
   6922 ****        29.7500  -9.7500   4.0000 Du        
   6923 ****        29.7500  -9.7500   4.2500 Du        
   6924 ****        29.7500  -9.7500   4.5000 Du        
   6925 ****        29.7500  -9.7500   4.7500 Du        
   6926 ****        29.7500  -9.7500   5.0000 Du        
   6927 ****        29.7500  -9.7500   5.2500 Du        
   6928 ****        29.7500  -9.7500   5.5000 Du        
   6929 ****        29.7500  -9.7500   5.7500 Du        
   6930 ****        29.7500  -9.7500   6.0000 Du        
   6931 ****        29.7500  -9.5000   3.2500 Du        
   6932 ****        29.7500  -9.5000   3.5000 Du        
   6933 ****        29.7500  -9.5000   3.7500 Du        
   6934 ****        29.7500  -9.5000   4.0000 Du        
   6935 ****        29.7500  -9.5000   4.2500 Du        
   6936 ****        29.7500  -9.5000   4.5000 Du        
   6937 ****        29.7500  -9.5000   4.7500 Du        
   6938 ****        29.7500  -9.5000   5.0000 Du        
   6939 ****        29.7500  -9.5000   5.2500 Du        
   6940 ****        29.7500  -9.5000   5.5000 Du        
   6941 ****        29.7500  -9.5000   5.7500 Du        
   6942 ****        29.7500  -9.2500   3.5000 Du        
   6943 ****        29.7500  -9.2500   3.7500 Du        
   6944 ****        29.7500  -9.2500   4.0000 Du        
   6945 ****        29.7500  -9.2500   4.2500 Du        
   6946 ****        29.7500  -9.2500   4.5000 Du        
   6947 ****        29.7500  -9.2500   4.7500 Du        
   6948 ****        29.7500  -9.2500   5.0000 Du        
   6949 ****        29.7500  -9.2500   5.2500 Du        
   6950 ****        29.7500  -9.2500   5.5000 Du        
   6951 ****        29.7500  -9.2500   5.7500 Du        
   6952 ****        29.7500  -9.0000   3.5000 Du        
   6953 ****        29.7500  -9.0000   3.7500 Du        
   6954 ****        29.7500  -9.0000   4.0000 Du        
   6955 ****        29.7500  -9.0000   4.2500 Du        
   6956 ****        29.7500  -9.0000   4.5000 Du        
   6957 ****        29.7500  -9.0000   4.7500 Du        
   6958 ****        29.7500  -9.0000   5.0000 Du        
   6959 ****        29.7500  -9.0000   5.2500 Du        
   6960 ****        29.7500  -9.0000   5.5000 Du        
   6961 ****        30.0000 -10.7500   4.7500 Du        
   6962 ****        30.0000 -10.7500   5.0000 Du        
   6963 ****        30.0000 -10.7500   5.2500 Du        
   6964 ****        30.0000 -10.5000   4.5000 Du        
   6965 ****        30.0000 -10.5000   4.7500 Du        
   6966 ****        30.0000 -10.5000   5.0000 Du        
   6967 ****        30.0000 -10.5000   5.2500 Du        
   6968 ****        30.0000 -10.5000   5.5000 Du        
   6969 ****        30.0000 -10.2500   0.0000 Du        
   6970 ****        30.0000 -10.2500   0.2500 Du        
   6971 ****        30.0000 -10.2500   0.5000 Du        
   6972 ****        30.0000 -10.2500   0.7500 Du        
   6973 ****        30.0000 -10.2500   4.0000 Du        
   6974 ****        30.0000 -10.2500   4.2500 Du        
   6975 ****        30.0000 -10.2500   4.5000 Du        
   6976 ****        30.0000 -10.2500   4.7500 Du        
   6977 ****        30.0000 -10.2500   5.0000 Du        
   6978 ****        30.0000 -10.2500   5.2500 Du        
   6979 ****        30.0000 -10.2500   5.5000 Du        
   6980 ****        30.0000 -10.2500   5.7500 Du        
   6981 ****        30.0000 -10.0000   0.0000 Du        
   6982 ****        30.0000 -10.0000   0.2500 Du        
   6983 ****        30.0000 -10.0000   0.5000 Du        
   6984 ****        30.0000 -10.0000   0.7500 Du        
   6985 ****        30.0000 -10.0000   1.0000 Du        
   6986 ****        30.0000 -10.0000   3.5000 Du        
   6987 ****        30.0000 -10.0000   3.7500 Du        
   6988 ****        30.0000 -10.0000   4.0000 Du        
   6989 ****        30.0000 -10.0000   4.2500 Du        
   6990 ****        30.0000 -10.0000   4.5000 Du        
   6991 ****        30.0000 -10.0000   4.7500 Du        
   6992 ****        30.0000 -10.0000   5.0000 Du        
   6993 ****        30.0000 -10.0000   5.2500 Du        
   6994 ****        30.0000 -10.0000   5.5000 Du        
   6995 ****        30.0000 -10.0000   5.7500 Du        
   6996 ****        30.0000  -9.7500   0.5000 Du        
   6997 ****        30.0000  -9.7500   0.7500 Du        
   6998 ****        30.0000  -9.7500   3.2500 Du        
   6999 ****        30.0000  -9.7500   3.5000 Du        
   7000 ****        30.0000  -9.7500   3.7500 Du        
   7001 ****        30.0000  -9.7500   4.0000 Du        
   7002 ****        30.0000  -9.7500   4.2500 Du        
   7003 ****        30.0000  -9.7500   4.5000 Du        
   7004 ****        30.0000  -9.7500   4.7500 Du        
   7005 ****        30.0000  -9.7500   5.0000 Du        
   7006 ****        30.0000  -9.7500   5.2500 Du        
   7007 ****        30.0000  -9.7500   5.5000 Du        
   7008 ****        30.0000  -9.7500   5.7500 Du        
   7009 ****        30.0000  -9.5000   3.2500 Du        
   7010 ****        30.0000  -9.5000   3.5000 Du        
   7011 ****        30.0000  -9.5000   3.7500 Du        
   7012 ****        30.0000  -9.5000   4.0000 Du        
   7013 ****        30.0000  -9.5000   4.2500 Du        
   7014 ****        30.0000  -9.5000   4.5000 Du        
   7015 ****        30.0000  -9.5000   4.7500 Du        
   7016 ****        30.0000  -9.5000   5.0000 Du        
   7017 ****        30.0000  -9.5000   5.2500 Du        
   7018 ****        30.0000  -9.5000   5.5000 Du        
   7019 ****        30.0000  -9.2500   3.5000 Du        
   7020 ****        30.0000  -9.2500   3.7500 Du        
   7021 ****        30.0000  -9.2500   4.0000 Du        
   7022 ****        30.0000  -9.2500   4.2500 Du        
   7023 ****        30.0000  -9.2500   4.5000 Du        
   7024 ****        30.0000  -9.2500   4.7500 Du        
   7025 ****        30.0000  -9.2500   5.0000 Du        
   7026 ****        30.0000  -9.2500   5.2500 Du        
   7027 ****        30.0000  -9.2500   5.5000 Du        
   7028 ****        30.0000  -9.0000   4.0000 Du        
   7029 ****        30.0000  -9.0000   4.2500 Du        
   7030 ****        30.0000  -9.0000   4.5000 Du        
   7031 ****        30.0000  -9.0000   4.7500 Du        
   7032 ****        30.0000  -9.0000   5.0000 Du        
   7033 ****        30.2500 -10.7500   4.7500 Du        
   7034 ****        30.2500 -10.7500   5.0000 Du        
   7035 ****        30.2500 -10.7500   5.2500 Du        
   7036 ****        30.2500 -10.5000   0.2500 Du        
   7037 ****        30.2500 -10.5000   0.5000 Du        
   7038 ****        30.2500 -10.5000   4.5000 Du        
   7039 ****        30.2500 -10.5000   4.7500 Du        
   7040 ****        30.2500 -10.5000   5.0000 Du        
   7041 ****        30.2500 -10.5000   5.2500 Du        
   7042 ****        30.2500 -10.5000   5.5000 Du        
   7043 ****        30.2500 -10.2500   0.2500 Du        
   7044 ****        30.2500 -10.2500   0.5000 Du        
   7045 ****        30.2500 -10.2500   0.7500 Du        
   7046 ****        30.2500 -10.2500   1.0000 Du        
   7047 ****        30.2500 -10.2500   4.0000 Du        
   7048 ****        30.2500 -10.2500   4.2500 Du        
   7049 ****        30.2500 -10.2500   4.5000 Du        
   7050 ****        30.2500 -10.2500   4.7500 Du        
   7051 ****        30.2500 -10.2500   5.0000 Du        
   7052 ****        30.2500 -10.2500   5.2500 Du        
   7053 ****        30.2500 -10.2500   5.5000 Du        
   7054 ****        30.2500 -10.2500   5.7500 Du        
   7055 ****        30.2500 -10.0000   0.2500 Du        
   7056 ****        30.2500 -10.0000   0.5000 Du        
   7057 ****        30.2500 -10.0000   0.7500 Du        
   7058 ****        30.2500 -10.0000   1.0000 Du        
   7059 ****        30.2500 -10.0000   1.2500 Du        
   7060 ****        30.2500 -10.0000   3.7500 Du        
   7061 ****        30.2500 -10.0000   4.0000 Du        
   7062 ****        30.2500 -10.0000   4.2500 Du        
   7063 ****        30.2500 -10.0000   4.5000 Du        
   7064 ****        30.2500 -10.0000   4.7500 Du        
   7065 ****        30.2500 -10.0000   5.0000 Du        
   7066 ****        30.2500 -10.0000   5.2500 Du        
   7067 ****        30.2500 -10.0000   5.5000 Du        
   7068 ****        30.2500 -10.0000   5.7500 Du        
   7069 ****        30.2500  -9.7500   0.7500 Du        
   7070 ****        30.2500  -9.7500   1.0000 Du        
   7071 ****        30.2500  -9.7500   1.2500 Du        
   7072 ****        30.2500  -9.7500   3.2500 Du        
   7073 ****        30.2500  -9.7500   3.5000 Du        
   7074 ****        30.2500  -9.7500   3.7500 Du        
   7075 ****        30.2500  -9.7500   4.0000 Du        
   7076 ****        30.2500  -9.7500   4.2500 Du        
   7077 ****        30.2500  -9.7500   4.5000 Du        
   7078 ****        30.2500  -9.7500   4.7500 Du        
   7079 ****        30.2500  -9.7500   5.0000 Du        
   7080 ****        30.2500  -9.7500   5.2500 Du        
   7081 ****        30.2500  -9.7500   5.5000 Du        
   7082 ****        30.2500  -9.5000   3.5000 Du        
   7083 ****        30.2500  -9.5000   3.7500 Du        
   7084 ****        30.2500  -9.5000   4.0000 Du        
   7085 ****        30.2500  -9.5000   4.2500 Du        
   7086 ****        30.2500  -9.5000   4.5000 Du        
   7087 ****        30.2500  -9.5000   4.7500 Du        
   7088 ****        30.2500  -9.5000   5.0000 Du        
   7089 ****        30.2500  -9.5000   5.2500 Du        
   7090 ****        30.2500  -9.5000   5.5000 Du        
   7091 ****        30.2500  -9.2500   3.7500 Du        
   7092 ****        30.2500  -9.2500   4.0000 Du        
   7093 ****        30.2500  -9.2500   4.2500 Du        
   7094 ****        30.2500  -9.2500   4.5000 Du        
   7095 ****        30.2500  -9.2500   4.7500 Du        
   7096 ****        30.2500  -9.2500   5.0000 Du        
   7097 ****        30.2500  -9.2500   5.2500 Du        
   7098 ****        30.5000 -10.7500   0.5000 Du        
   7099 ****        30.5000 -10.7500   4.7500 Du        
   7100 ****        30.5000 -10.7500   5.0000 Du        
   7101 ****        30.5000 -10.7500   5.2500 Du        
   7102 ****        30.5000 -10.5000   0.5000 Du        
   7103 ****        30.5000 -10.5000   0.7500 Du        
   7104 ****        30.5000 -10.5000   4.5000 Du        
   7105 ****        30.5000 -10.5000   4.7500 Du        
   7106 ****        30.5000 -10.5000   5.0000 Du        
   7107 ****        30.5000 -10.5000   5.2500 Du        
   7108 ****        30.5000 -10.5000   5.5000 Du        
   7109 ****        30.5000 -10.2500   0.2500 Du        
   7110 ****        30.5000 -10.2500   0.5000 Du        
   7111 ****        30.5000 -10.2500   0.7500 Du        
   7112 ****        30.5000 -10.2500   1.0000 Du        
   7113 ****        30.5000 -10.2500   1.2500 Du        
   7114 ****        30.5000 -10.2500   4.2500 Du        
   7115 ****        30.5000 -10.2500   4.5000 Du        
   7116 ****        30.5000 -10.2500   4.7500 Du        
   7117 ****        30.5000 -10.2500   5.0000 Du        
   7118 ****        30.5000 -10.2500   5.2500 Du        
   7119 ****        30.5000 -10.2500   5.5000 Du        
   7120 ****        30.5000 -10.0000   0.5000 Du        
   7121 ****        30.5000 -10.0000   0.7500 Du        
   7122 ****        30.5000 -10.0000   1.0000 Du        
   7123 ****        30.5000 -10.0000   1.2500 Du        
   7124 ****        30.5000 -10.0000   1.5000 Du        
   7125 ****        30.5000 -10.0000   3.7500 Du        
   7126 ****        30.5000 -10.0000   4.0000 Du        
   7127 ****        30.5000 -10.0000   4.2500 Du        
   7128 ****        30.5000 -10.0000   4.5000 Du        
   7129 ****        30.5000 -10.0000   4.7500 Du        
   7130 ****        30.5000 -10.0000   5.0000 Du        
   7131 ****        30.5000 -10.0000   5.2500 Du        
   7132 ****        30.5000 -10.0000   5.5000 Du        
   7133 ****        30.5000  -9.7500   1.0000 Du        
   7134 ****        30.5000  -9.7500   1.2500 Du        
   7135 ****        30.5000  -9.7500   1.5000 Du        
   7136 ****        30.5000  -9.7500   1.7500 Du        
   7137 ****        30.5000  -9.7500   3.5000 Du        
   7138 ****        30.5000  -9.7500   3.7500 Du        
   7139 ****        30.5000  -9.7500   4.0000 Du        
   7140 ****        30.5000  -9.7500   4.2500 Du        
   7141 ****        30.5000  -9.7500   4.5000 Du        
   7142 ****        30.5000  -9.7500   4.7500 Du        
   7143 ****        30.5000  -9.7500   5.0000 Du        
   7144 ****        30.5000  -9.7500   5.2500 Du        
   7145 ****        30.5000  -9.7500   5.5000 Du        
   7146 ****        30.5000  -9.5000   3.7500 Du        
   7147 ****        30.5000  -9.5000   4.0000 Du        
   7148 ****        30.5000  -9.5000   4.2500 Du        
   7149 ****        30.5000  -9.5000   4.5000 Du        
   7150 ****        30.5000  -9.5000   4.7500 Du        
   7151 ****        30.5000  -9.5000   5.0000 Du        
   7152 ****        30.5000  -9.5000   5.2500 Du        
   7153 ****        30.5000  -9.2500   4.5000 Du        
   7154 ****        30.5000  -9.2500   4.7500 Du        
   7155 ****        30.5000  -9.2500   5.0000 Du        
   7156 ****        30.7500 -10.7500   0.5000 Du        
   7157 ****        30.7500 -10.7500   0.7500 Du        
   7158 ****        30.7500 -10.7500   4.7500 Du        
   7159 ****        30.7500 -10.7500   5.0000 Du        
   7160 ****        30.7500 -10.7500   5.2500 Du        
   7161 ****        30.7500 -10.5000   0.5000 Du        
   7162 ****        30.7500 -10.5000   0.7500 Du        
   7163 ****        30.7500 -10.5000   1.0000 Du        
   7164 ****        30.7500 -10.5000   4.5000 Du        
   7165 ****        30.7500 -10.5000   4.7500 Du        
   7166 ****        30.7500 -10.5000   5.0000 Du        
   7167 ****        30.7500 -10.5000   5.2500 Du        
   7168 ****        30.7500 -10.5000   5.5000 Du        
   7169 ****        30.7500 -10.2500   0.5000 Du        
   7170 ****        30.7500 -10.2500   0.7500 Du        
   7171 ****        30.7500 -10.2500   1.0000 Du        
   7172 ****        30.7500 -10.2500   1.2500 Du        
   7173 ****        30.7500 -10.2500   4.2500 Du        
   7174 ****        30.7500 -10.2500   4.5000 Du        
   7175 ****        30.7500 -10.2500   4.7500 Du        
   7176 ****        30.7500 -10.2500   5.0000 Du        
   7177 ****        30.7500 -10.2500   5.2500 Du        
   7178 ****        30.7500 -10.2500   5.5000 Du        
   7179 ****        30.7500 -10.0000   0.5000 Du        
   7180 ****        30.7500 -10.0000   0.7500 Du        
   7181 ****        30.7500 -10.0000   1.0000 Du        
   7182 ****        30.7500 -10.0000   1.2500 Du        
   7183 ****        30.7500 -10.0000   1.5000 Du        
   7184 ****        30.7500 -10.0000   1.7500 Du        
   7185 ****        30.7500 -10.0000   2.0000 Du        
   7186 ****        30.7500 -10.0000   3.7500 Du        
   7187 ****        30.7500 -10.0000   4.0000 Du        
   7188 ****        30.7500 -10.0000   4.2500 Du        
   7189 ****        30.7500 -10.0000   4.5000 Du        
   7190 ****        30.7500 -10.0000   4.7500 Du        
   7191 ****        30.7500 -10.0000   5.0000 Du        
   7192 ****        30.7500 -10.0000   5.2500 Du        
   7193 ****        30.7500 -10.0000   5.5000 Du        
   7194 ****        30.7500  -9.7500   1.0000 Du        
   7195 ****        30.7500  -9.7500   1.2500 Du        
   7196 ****        30.7500  -9.7500   1.5000 Du        
   7197 ****        30.7500  -9.7500   1.7500 Du        
   7198 ****        30.7500  -9.7500   2.0000 Du        
   7199 ****        30.7500  -9.7500   2.2500 Du        
   7200 ****        30.7500  -9.7500   3.5000 Du        
   7201 ****        30.7500  -9.7500   3.7500 Du        
   7202 ****        30.7500  -9.7500   4.0000 Du        
   7203 ****        30.7500  -9.7500   4.2500 Du        
   7204 ****        30.7500  -9.7500   4.5000 Du        
   7205 ****        30.7500  -9.7500   4.7500 Du        
   7206 ****        30.7500  -9.7500   5.0000 Du        
   7207 ****        30.7500  -9.7500   5.2500 Du        
   7208 ****        30.7500  -9.5000   4.2500 Du        
   7209 ****        30.7500  -9.5000   4.5000 Du        
   7210 ****        30.7500  -9.5000   4.7500 Du        
   7211 ****        30.7500  -9.5000   5.0000 Du        
   7212 ****        30.7500  -9.5000   5.2500 Du        
   7213 ****        31.0000 -10.7500   0.5000 Du        
   7214 ****        31.0000 -10.7500   0.7500 Du        
   7215 ****        31.0000 -10.7500   1.0000 Du        
   7216 ****        31.0000 -10.7500   4.7500 Du        
   7217 ****        31.0000 -10.7500   5.0000 Du        
   7218 ****        31.0000 -10.7500   5.2500 Du        
   7219 ****        31.0000 -10.5000   0.5000 Du        
   7220 ****        31.0000 -10.5000   0.7500 Du        
   7221 ****        31.0000 -10.5000   1.0000 Du        
   7222 ****        31.0000 -10.5000   1.2500 Du        
   7223 ****        31.0000 -10.5000   4.5000 Du        
   7224 ****        31.0000 -10.5000   4.7500 Du        
   7225 ****        31.0000 -10.5000   5.0000 Du        
   7226 ****        31.0000 -10.5000   5.2500 Du        
   7227 ****        31.0000 -10.5000   5.5000 Du        
   7228 ****        31.0000 -10.2500   0.5000 Du        
   7229 ****        31.0000 -10.2500   0.7500 Du        
   7230 ****        31.0000 -10.2500   1.0000 Du        
   7231 ****        31.0000 -10.2500   1.2500 Du        
   7232 ****        31.0000 -10.2500   1.5000 Du        
   7233 ****        31.0000 -10.2500   4.0000 Du        
   7234 ****        31.0000 -10.2500   4.2500 Du        
   7235 ****        31.0000 -10.2500   4.5000 Du        
   7236 ****        31.0000 -10.2500   4.7500 Du        
   7237 ****        31.0000 -10.2500   5.0000 Du        
   7238 ****        31.0000 -10.2500   5.2500 Du        
   7239 ****        31.0000 -10.2500   5.5000 Du        
   7240 ****        31.0000 -10.0000   0.7500 Du        
   7241 ****        31.0000 -10.0000   1.0000 Du        
   7242 ****        31.0000 -10.0000   1.2500 Du        
   7243 ****        31.0000 -10.0000   1.5000 Du        
   7244 ****        31.0000 -10.0000   1.7500 Du        
   7245 ****        31.0000 -10.0000   2.0000 Du        
   7246 ****        31.0000 -10.0000   3.7500 Du        
   7247 ****        31.0000 -10.0000   4.0000 Du        
   7248 ****        31.0000 -10.0000   4.2500 Du        
   7249 ****        31.0000 -10.0000   4.5000 Du        
   7250 ****        31.0000 -10.0000   4.7500 Du        
   7251 ****        31.0000 -10.0000   5.0000 Du        
   7252 ****        31.0000 -10.0000   5.2500 Du        
   7253 ****        31.0000 -10.0000   5.5000 Du        
   7254 ****        31.0000  -9.7500   1.0000 Du        
   7255 ****        31.0000  -9.7500   1.2500 Du        
   7256 ****        31.0000  -9.7500   1.5000 Du        
   7257 ****        31.0000  -9.7500   1.7500 Du        
   7258 ****        31.0000  -9.7500   2.0000 Du        
   7259 ****        31.0000  -9.7500   2.2500 Du        
   7260 ****        31.0000  -9.7500   3.7500 Du        
   7261 ****        31.0000  -9.7500   4.0000 Du        
   7262 ****        31.0000  -9.7500   4.2500 Du        
   7263 ****        31.0000  -9.7500   4.5000 Du        
   7264 ****        31.0000  -9.7500   4.7500 Du        
   7265 ****        31.0000  -9.7500   5.0000 Du        
   7266 ****        31.0000  -9.7500   5.2500 Du        
   7267 ****        31.0000  -9.5000   4.5000 Du        
   7268 ****        31.0000  -9.5000   4.7500 Du        
   7269 ****        31.0000  -9.5000   5.0000 Du        
   7270 ****        31.2500 -11.0000   0.7500 Du        
   7271 ****        31.2500 -10.7500   0.7500 Du        
   7272 ****        31.2500 -10.7500   1.0000 Du        
   7273 ****        31.2500 -10.7500   4.7500 Du        
   7274 ****        31.2500 -10.7500   5.0000 Du        
   7275 ****        31.2500 -10.5000   0.7500 Du        
   7276 ****        31.2500 -10.5000   1.0000 Du        
   7277 ****        31.2500 -10.5000   1.2500 Du        
   7278 ****        31.2500 -10.5000   4.5000 Du        
   7279 ****        31.2500 -10.5000   4.7500 Du        
   7280 ****        31.2500 -10.5000   5.0000 Du        
   7281 ****        31.2500 -10.5000   5.2500 Du        
   7282 ****        31.2500 -10.2500   0.7500 Du        
   7283 ****        31.2500 -10.2500   1.0000 Du        
   7284 ****        31.2500 -10.2500   1.2500 Du        
   7285 ****        31.2500 -10.2500   1.5000 Du        
   7286 ****        31.2500 -10.2500   1.7500 Du        
   7287 ****        31.2500 -10.2500   4.0000 Du        
   7288 ****        31.2500 -10.2500   4.2500 Du        
   7289 ****        31.2500 -10.2500   4.5000 Du        
   7290 ****        31.2500 -10.2500   4.7500 Du        
   7291 ****        31.2500 -10.2500   5.0000 Du        
   7292 ****        31.2500 -10.2500   5.2500 Du        
   7293 ****        31.2500 -10.2500   5.5000 Du        
   7294 ****        31.2500 -10.0000   0.7500 Du        
   7295 ****        31.2500 -10.0000   1.0000 Du        
   7296 ****        31.2500 -10.0000   1.2500 Du        
   7297 ****        31.2500 -10.0000   1.5000 Du        
   7298 ****        31.2500 -10.0000   1.7500 Du        
   7299 ****        31.2500 -10.0000   2.0000 Du        
   7300 ****        31.2500 -10.0000   2.2500 Du        
   7301 ****        31.2500 -10.0000   3.7500 Du        
   7302 ****        31.2500 -10.0000   4.0000 Du        
   7303 ****        31.2500 -10.0000   4.2500 Du        
   7304 ****        31.2500 -10.0000   4.5000 Du        
   7305 ****        31.2500 -10.0000   4.7500 Du        
   7306 ****        31.2500 -10.0000   5.0000 Du        
   7307 ****        31.2500 -10.0000   5.2500 Du        
   7308 ****        31.2500 -10.0000   5.5000 Du        
   7309 ****        31.2500  -9.7500   1.0000 Du        
   7310 ****        31.2500  -9.7500   1.2500 Du        
   7311 ****        31.2500  -9.7500   1.5000 Du        
   7312 ****        31.2500  -9.7500   1.7500 Du        
   7313 ****        31.2500  -9.7500   2.0000 Du        
   7314 ****        31.2500  -9.7500   2.2500 Du        
   7315 ****        31.2500  -9.7500   4.2500 Du        
   7316 ****        31.2500  -9.7500   4.5000 Du        
   7317 ****        31.2500  -9.7500   4.7500 Du        
   7318 ****        31.2500  -9.7500   5.0000 Du        
   7319 ****        31.2500  -9.7500   5.2500 Du        
   7320 ****        31.2500  -9.5000   4.7500 Du        
   7321 ****        31.2500  -9.5000   5.0000 Du        
   7322 ****        31.5000 -11.0000   0.7500 Du        
   7323 ****        31.5000 -10.7500   0.7500 Du        
   7324 ****        31.5000 -10.7500   1.0000 Du        
   7325 ****        31.5000 -10.7500   1.2500 Du        
   7326 ****        31.5000 -10.7500   4.7500 Du        
   7327 ****        31.5000 -10.7500   5.0000 Du        
   7328 ****        31.5000 -10.5000   0.7500 Du        
   7329 ****        31.5000 -10.5000   1.0000 Du        
   7330 ****        31.5000 -10.5000   1.2500 Du        
   7331 ****        31.5000 -10.5000   1.5000 Du        
   7332 ****        31.5000 -10.5000   4.2500 Du        
   7333 ****        31.5000 -10.5000   4.5000 Du        
   7334 ****        31.5000 -10.5000   4.7500 Du        
   7335 ****        31.5000 -10.5000   5.0000 Du        
   7336 ****        31.5000 -10.5000   5.2500 Du        
   7337 ****        31.5000 -10.2500   0.7500 Du        
   7338 ****        31.5000 -10.2500   1.0000 Du        
   7339 ****        31.5000 -10.2500   1.2500 Du        
   7340 ****        31.5000 -10.2500   1.5000 Du        
   7341 ****        31.5000 -10.2500   1.7500 Du        
   7342 ****        31.5000 -10.2500   4.0000 Du        
   7343 ****        31.5000 -10.2500   4.2500 Du        
   7344 ****        31.5000 -10.2500   4.5000 Du        
   7345 ****        31.5000 -10.2500   4.7500 Du        
   7346 ****        31.5000 -10.2500   5.0000 Du        
   7347 ****        31.5000 -10.2500   5.2500 Du        
   7348 ****        31.5000 -10.2500   5.5000 Du        
   7349 ****        31.5000 -10.0000   0.7500 Du        
   7350 ****        31.5000 -10.0000   1.0000 Du        
   7351 ****        31.5000 -10.0000   1.2500 Du        
   7352 ****        31.5000 -10.0000   1.5000 Du        
   7353 ****        31.5000 -10.0000   1.7500 Du        
   7354 ****        31.5000 -10.0000   2.0000 Du        
   7355 ****        31.5000 -10.0000   2.2500 Du        
   7356 ****        31.5000 -10.0000   4.0000 Du        
   7357 ****        31.5000 -10.0000   4.2500 Du        
   7358 ****        31.5000 -10.0000   4.5000 Du        
   7359 ****        31.5000 -10.0000   4.7500 Du        
   7360 ****        31.5000 -10.0000   5.0000 Du        
   7361 ****        31.5000 -10.0000   5.2500 Du        
   7362 ****        31.5000  -9.7500   1.0000 Du        
   7363 ****        31.5000  -9.7500   1.2500 Du        
   7364 ****        31.5000  -9.7500   1.5000 Du        
   7365 ****        31.5000  -9.7500   1.7500 Du        
   7366 ****        31.5000  -9.7500   2.0000 Du        
   7367 ****        31.5000  -9.7500   2.2500 Du        
   7368 ****        31.5000  -9.7500   4.5000 Du        
   7369 ****        31.5000  -9.7500   4.7500 Du        
   7370 ****        31.5000  -9.7500   5.0000 Du        
   7371 ****        31.5000  -9.7500   5.2500 Du        
   7372 ****        31.5000  -9.5000   1.5000 Du        
   7373 ****        31.5000  -9.5000   1.7500 Du        
   7374 ****        31.5000  -9.5000   5.0000 Du        
   7375 ****        31.7500 -11.0000   1.0000 Du        
   7376 ****        31.7500 -10.7500   0.7500 Du        
   7377 ****        31.7500 -10.7500   1.0000 Du        
   7378 ****        31.7500 -10.7500   1.2500 Du        
   7379 ****        31.7500 -10.7500   4.5000 Du        
   7380 ****        31.7500 -10.7500   4.7500 Du        
   7381 ****        31.7500 -10.7500   5.0000 Du        
   7382 ****        31.7500 -10.5000   0.7500 Du        
   7383 ****        31.7500 -10.5000   1.0000 Du        
   7384 ****        31.7500 -10.5000   1.2500 Du        
   7385 ****        31.7500 -10.5000   1.5000 Du        
   7386 ****        31.7500 -10.5000   4.2500 Du        
   7387 ****        31.7500 -10.5000   4.5000 Du        
   7388 ****        31.7500 -10.5000   4.7500 Du        
   7389 ****        31.7500 -10.5000   5.0000 Du        
   7390 ****        31.7500 -10.2500   0.7500 Du        
   7391 ****        31.7500 -10.2500   1.0000 Du        
   7392 ****        31.7500 -10.2500   1.2500 Du        
   7393 ****        31.7500 -10.2500   1.5000 Du        
   7394 ****        31.7500 -10.2500   1.7500 Du        
   7395 ****        31.7500 -10.2500   2.0000 Du        
   7396 ****        31.7500 -10.2500   3.7500 Du        
   7397 ****        31.7500 -10.2500   4.0000 Du        
   7398 ****        31.7500 -10.2500   4.2500 Du        
   7399 ****        31.7500 -10.2500   4.5000 Du        
   7400 ****        31.7500 -10.2500   4.7500 Du        
   7401 ****        31.7500 -10.2500   5.0000 Du        
   7402 ****        31.7500 -10.2500   5.2500 Du        
   7403 ****        31.7500 -10.0000   0.7500 Du        
   7404 ****        31.7500 -10.0000   1.0000 Du        
   7405 ****        31.7500 -10.0000   1.2500 Du        
   7406 ****        31.7500 -10.0000   1.5000 Du        
   7407 ****        31.7500 -10.0000   1.7500 Du        
   7408 ****        31.7500 -10.0000   2.0000 Du        
   7409 ****        31.7500 -10.0000   2.2500 Du        
   7410 ****        31.7500 -10.0000   2.5000 Du        
   7411 ****        31.7500 -10.0000   4.0000 Du        
   7412 ****        31.7500 -10.0000   4.2500 Du        
   7413 ****        31.7500 -10.0000   4.5000 Du        
   7414 ****        31.7500 -10.0000   4.7500 Du        
   7415 ****        31.7500 -10.0000   5.0000 Du        
   7416 ****        31.7500 -10.0000   5.2500 Du        
   7417 ****        31.7500 -10.0000   5.5000 Du        
   7418 ****        31.7500  -9.7500   1.0000 Du        
   7419 ****        31.7500  -9.7500   1.2500 Du        
   7420 ****        31.7500  -9.7500   1.5000 Du        
   7421 ****        31.7500  -9.7500   1.7500 Du        
   7422 ****        31.7500  -9.7500   2.0000 Du        
   7423 ****        31.7500  -9.7500   2.2500 Du        
   7424 ****        31.7500  -9.7500   4.5000 Du        
   7425 ****        31.7500  -9.7500   4.7500 Du        
   7426 ****        31.7500  -9.7500   5.0000 Du        
   7427 ****        31.7500  -9.7500   5.2500 Du        
   7428 ****        31.7500  -9.5000   1.2500 Du        
   7429 ****        31.7500  -9.5000   1.5000 Du        
   7430 ****        31.7500  -9.5000   1.7500 Du        
   7431 ****        32.0000 -10.7500   1.0000 Du        
   7432 ****        32.0000 -10.7500   1.2500 Du        
   7433 ****        32.0000 -10.7500   1.5000 Du        
   7434 ****        32.0000 -10.7500   4.5000 Du        
   7435 ****        32.0000 -10.7500   4.7500 Du        
   7436 ****        32.0000 -10.5000   1.0000 Du        
   7437 ****        32.0000 -10.5000   1.2500 Du        
   7438 ****        32.0000 -10.5000   1.5000 Du        
   7439 ****        32.0000 -10.5000   1.7500 Du        
   7440 ****        32.0000 -10.5000   4.0000 Du        
   7441 ****        32.0000 -10.5000   4.2500 Du        
   7442 ****        32.0000 -10.5000   4.5000 Du        
   7443 ****        32.0000 -10.5000   4.7500 Du        
   7444 ****        32.0000 -10.5000   5.0000 Du        
   7445 ****        32.0000 -10.2500   0.7500 Du        
   7446 ****        32.0000 -10.2500   1.0000 Du        
   7447 ****        32.0000 -10.2500   1.2500 Du        
   7448 ****        32.0000 -10.2500   1.5000 Du        
   7449 ****        32.0000 -10.2500   1.7500 Du        
   7450 ****        32.0000 -10.2500   2.0000 Du        
   7451 ****        32.0000 -10.2500   2.2500 Du        
   7452 ****        32.0000 -10.2500   2.5000 Du        
   7453 ****        32.0000 -10.2500   3.7500 Du        
   7454 ****        32.0000 -10.2500   4.0000 Du        
   7455 ****        32.0000 -10.2500   4.2500 Du        
   7456 ****        32.0000 -10.2500   4.5000 Du        
   7457 ****        32.0000 -10.2500   4.7500 Du        
   7458 ****        32.0000 -10.2500   5.0000 Du        
   7459 ****        32.0000 -10.2500   5.2500 Du        
   7460 ****        32.0000 -10.0000   0.7500 Du        
   7461 ****        32.0000 -10.0000   1.0000 Du        
   7462 ****        32.0000 -10.0000   1.2500 Du        
   7463 ****        32.0000 -10.0000   1.5000 Du        
   7464 ****        32.0000 -10.0000   1.7500 Du        
   7465 ****        32.0000 -10.0000   2.0000 Du        
   7466 ****        32.0000 -10.0000   2.2500 Du        
   7467 ****        32.0000 -10.0000   2.5000 Du        
   7468 ****        32.0000 -10.0000   4.0000 Du        
   7469 ****        32.0000 -10.0000   4.2500 Du        
   7470 ****        32.0000 -10.0000   4.5000 Du        
   7471 ****        32.0000 -10.0000   4.7500 Du        
   7472 ****        32.0000 -10.0000   5.0000 Du        
   7473 ****        32.0000 -10.0000   5.2500 Du        
   7474 ****        32.0000 -10.0000   5.5000 Du        
   7475 ****        32.0000  -9.7500   1.0000 Du        
   7476 ****        32.0000  -9.7500   1.2500 Du        
   7477 ****        32.0000  -9.7500   1.5000 Du        
   7478 ****        32.0000  -9.7500   1.7500 Du        
   7479 ****        32.0000  -9.7500   2.0000 Du        
   7480 ****        32.0000  -9.7500   2.2500 Du        
   7481 ****        32.0000  -9.7500   4.5000 Du        
   7482 ****        32.0000  -9.7500   4.7500 Du        
   7483 ****        32.0000  -9.7500   5.0000 Du        
   7484 ****        32.0000  -9.7500   5.2500 Du        
   7485 ****        32.0000  -9.5000   1.2500 Du        
   7486 ****        32.0000  -9.5000   1.5000 Du        
   7487 ****        32.0000  -9.5000   1.7500 Du        
   7488 ****        32.2500 -10.7500   1.2500 Du        
   7489 ****        32.2500 -10.7500   1.5000 Du        
   7490 ****        32.2500 -10.7500   4.2500 Du        
   7491 ****        32.2500 -10.7500   4.5000 Du        
   7492 ****        32.2500 -10.5000   1.0000 Du        
   7493 ****        32.2500 -10.5000   1.2500 Du        
   7494 ****        32.2500 -10.5000   1.5000 Du        
   7495 ****        32.2500 -10.5000   1.7500 Du        
   7496 ****        32.2500 -10.5000   2.0000 Du        
   7497 ****        32.2500 -10.5000   3.7500 Du        
   7498 ****        32.2500 -10.5000   4.0000 Du        
   7499 ****        32.2500 -10.5000   4.2500 Du        
   7500 ****        32.2500 -10.5000   4.5000 Du        
   7501 ****        32.2500 -10.5000   4.7500 Du        
   7502 ****        32.2500 -10.5000   5.0000 Du        
   7503 ****        32.2500 -10.2500   1.0000 Du        
   7504 ****        32.2500 -10.2500   1.2500 Du        
   7505 ****        32.2500 -10.2500   1.5000 Du        
   7506 ****        32.2500 -10.2500   1.7500 Du        
   7507 ****        32.2500 -10.2500   2.0000 Du        
   7508 ****        32.2500 -10.2500   2.2500 Du        
   7509 ****        32.2500 -10.2500   2.5000 Du        
   7510 ****        32.2500 -10.2500   2.7500 Du        
   7511 ****        32.2500 -10.2500   3.0000 Du        
   7512 ****        32.2500 -10.2500   3.2500 Du        
   7513 ****        32.2500 -10.2500   3.5000 Du        
   7514 ****        32.2500 -10.2500   3.7500 Du        
   7515 ****        32.2500 -10.2500   4.0000 Du        
   7516 ****        32.2500 -10.2500   4.2500 Du        
   7517 ****        32.2500 -10.2500   4.5000 Du        
   7518 ****        32.2500 -10.2500   4.7500 Du        
   7519 ****        32.2500 -10.2500   5.0000 Du        
   7520 ****        32.2500 -10.2500   5.2500 Du        
   7521 ****        32.2500 -10.0000   0.7500 Du        
   7522 ****        32.2500 -10.0000   1.0000 Du        
   7523 ****        32.2500 -10.0000   1.2500 Du        
   7524 ****        32.2500 -10.0000   1.5000 Du        
   7525 ****        32.2500 -10.0000   1.7500 Du        
   7526 ****        32.2500 -10.0000   2.0000 Du        
   7527 ****        32.2500 -10.0000   2.2500 Du        
   7528 ****        32.2500 -10.0000   2.5000 Du        
   7529 ****        32.2500 -10.0000   2.7500 Du        
   7530 ****        32.2500 -10.0000   4.0000 Du        
   7531 ****        32.2500 -10.0000   4.2500 Du        
   7532 ****        32.2500 -10.0000   4.5000 Du        
   7533 ****        32.2500 -10.0000   4.7500 Du        
   7534 ****        32.2500 -10.0000   5.0000 Du        
   7535 ****        32.2500 -10.0000   5.2500 Du        
   7536 ****        32.2500  -9.7500   0.7500 Du        
   7537 ****        32.2500  -9.7500   1.0000 Du        
   7538 ****        32.2500  -9.7500   1.2500 Du        
   7539 ****        32.2500  -9.7500   1.5000 Du        
   7540 ****        32.2500  -9.7500   1.7500 Du        
   7541 ****        32.2500  -9.7500   2.0000 Du        
   7542 ****        32.2500  -9.7500   2.2500 Du        
   7543 ****        32.2500  -9.7500   4.7500 Du        
   7544 ****        32.2500  -9.7500   5.0000 Du        
   7545 ****        32.2500  -9.7500   5.2500 Du        
   7546 ****        32.2500  -9.5000   1.0000 Du        
   7547 ****        32.2500  -9.5000   1.2500 Du        
   7548 ****        32.2500  -9.5000   1.5000 Du        
   7549 ****        32.2500  -9.5000   1.7500 Du        
   7550 ****        32.5000 -10.7500   1.5000 Du        
   7551 ****        32.5000 -10.7500   4.2500 Du        
   7552 ****        32.5000 -10.7500   4.5000 Du        
   7553 ****        32.5000 -10.5000   1.2500 Du        
   7554 ****        32.5000 -10.5000   1.5000 Du        
   7555 ****        32.5000 -10.5000   1.7500 Du        
   7556 ****        32.5000 -10.5000   2.0000 Du        
   7557 ****        32.5000 -10.5000   2.2500 Du        
   7558 ****        32.5000 -10.5000   3.7500 Du        
   7559 ****        32.5000 -10.5000   4.0000 Du        
   7560 ****        32.5000 -10.5000   4.2500 Du        
   7561 ****        32.5000 -10.5000   4.5000 Du        
   7562 ****        32.5000 -10.5000   4.7500 Du        
   7563 ****        32.5000 -10.5000   5.0000 Du        
   7564 ****        32.5000 -10.2500   1.0000 Du        
   7565 ****        32.5000 -10.2500   1.2500 Du        
   7566 ****        32.5000 -10.2500   1.5000 Du        
   7567 ****        32.5000 -10.2500   1.7500 Du        
   7568 ****        32.5000 -10.2500   2.0000 Du        
   7569 ****        32.5000 -10.2500   2.2500 Du        
   7570 ****        32.5000 -10.2500   2.5000 Du        
   7571 ****        32.5000 -10.2500   2.7500 Du        
   7572 ****        32.5000 -10.2500   3.0000 Du        
   7573 ****        32.5000 -10.2500   3.2500 Du        
   7574 ****        32.5000 -10.2500   3.5000 Du        
   7575 ****        32.5000 -10.2500   3.7500 Du        
   7576 ****        32.5000 -10.2500   4.0000 Du        
   7577 ****        32.5000 -10.2500   4.2500 Du        
   7578 ****        32.5000 -10.2500   4.5000 Du        
   7579 ****        32.5000 -10.2500   4.7500 Du        
   7580 ****        32.5000 -10.2500   5.0000 Du        
   7581 ****        32.5000 -10.2500   5.2500 Du        
   7582 ****        32.5000 -10.0000   1.0000 Du        
   7583 ****        32.5000 -10.0000   1.2500 Du        
   7584 ****        32.5000 -10.0000   1.5000 Du        
   7585 ****        32.5000 -10.0000   1.7500 Du        
   7586 ****        32.5000 -10.0000   2.0000 Du        
   7587 ****        32.5000 -10.0000   2.2500 Du        
   7588 ****        32.5000 -10.0000   2.5000 Du        
   7589 ****        32.5000 -10.0000   2.7500 Du        
   7590 ****        32.5000 -10.0000   3.0000 Du        
   7591 ****        32.5000 -10.0000   3.2500 Du        
   7592 ****        32.5000 -10.0000   3.5000 Du        
   7593 ****        32.5000 -10.0000   3.7500 Du        
   7594 ****        32.5000 -10.0000   4.0000 Du        
   7595 ****        32.5000 -10.0000   4.2500 Du        
   7596 ****        32.5000 -10.0000   4.5000 Du        
   7597 ****        32.5000 -10.0000   4.7500 Du        
   7598 ****        32.5000 -10.0000   5.0000 Du        
   7599 ****        32.5000 -10.0000   5.2500 Du        
   7600 ****        32.5000 -10.0000   5.5000 Du        
   7601 ****        32.5000  -9.7500   0.7500 Du        
   7602 ****        32.5000  -9.7500   1.0000 Du        
   7603 ****        32.5000  -9.7500   1.2500 Du        
   7604 ****        32.5000  -9.7500   1.5000 Du        
   7605 ****        32.5000  -9.7500   1.7500 Du        
   7606 ****        32.5000  -9.7500   2.0000 Du        
   7607 ****        32.5000  -9.7500   2.2500 Du        
   7608 ****        32.5000  -9.7500   4.7500 Du        
   7609 ****        32.5000  -9.7500   5.0000 Du        
   7610 ****        32.5000  -9.7500   5.2500 Du        
   7611 ****        32.5000  -9.7500   5.5000 Du        
   7612 ****        32.5000  -9.5000   1.0000 Du        
   7613 ****        32.5000  -9.5000   1.2500 Du        
   7614 ****        32.5000  -9.5000   1.5000 Du        
   7615 ****        32.5000  -9.5000   1.7500 Du        
   7616 ****        32.5000  -9.2500   1.2500 Du        
   7617 ****        32.7500 -10.7500   4.5000 Du        
   7618 ****        32.7500 -10.5000   1.2500 Du        
   7619 ****        32.7500 -10.5000   1.5000 Du        
   7620 ****        32.7500 -10.5000   1.7500 Du        
   7621 ****        32.7500 -10.5000   2.0000 Du        
   7622 ****        32.7500 -10.5000   3.7500 Du        
   7623 ****        32.7500 -10.5000   4.0000 Du        
   7624 ****        32.7500 -10.5000   4.2500 Du        
   7625 ****        32.7500 -10.5000   4.5000 Du        
   7626 ****        32.7500 -10.5000   4.7500 Du        
   7627 ****        32.7500 -10.5000   5.0000 Du        
   7628 ****        32.7500 -10.2500   1.2500 Du        
   7629 ****        32.7500 -10.2500   1.5000 Du        
   7630 ****        32.7500 -10.2500   1.7500 Du        
   7631 ****        32.7500 -10.2500   2.0000 Du        
   7632 ****        32.7500 -10.2500   2.2500 Du        
   7633 ****        32.7500 -10.2500   2.5000 Du        
   7634 ****        32.7500 -10.2500   2.7500 Du        
   7635 ****        32.7500 -10.2500   3.0000 Du        
   7636 ****        32.7500 -10.2500   3.2500 Du        
   7637 ****        32.7500 -10.2500   3.5000 Du        
   7638 ****        32.7500 -10.2500   3.7500 Du        
   7639 ****        32.7500 -10.2500   4.0000 Du        
   7640 ****        32.7500 -10.2500   4.2500 Du        
   7641 ****        32.7500 -10.2500   4.5000 Du        
   7642 ****        32.7500 -10.2500   4.7500 Du        
   7643 ****        32.7500 -10.2500   5.0000 Du        
   7644 ****        32.7500 -10.2500   5.2500 Du        
   7645 ****        32.7500 -10.0000   1.0000 Du        
   7646 ****        32.7500 -10.0000   1.2500 Du        
   7647 ****        32.7500 -10.0000   1.5000 Du        
   7648 ****        32.7500 -10.0000   1.7500 Du        
   7649 ****        32.7500 -10.0000   2.0000 Du        
   7650 ****        32.7500 -10.0000   2.2500 Du        
   7651 ****        32.7500 -10.0000   2.5000 Du        
   7652 ****        32.7500 -10.0000   2.7500 Du        
   7653 ****        32.7500 -10.0000   3.0000 Du        
   7654 ****        32.7500 -10.0000   3.2500 Du        
   7655 ****        32.7500 -10.0000   3.5000 Du        
   7656 ****        32.7500 -10.0000   3.7500 Du        
   7657 ****        32.7500 -10.0000   4.0000 Du        
   7658 ****        32.7500 -10.0000   4.2500 Du        
   7659 ****        32.7500 -10.0000   4.5000 Du        
   7660 ****        32.7500 -10.0000   4.7500 Du        
   7661 ****        32.7500 -10.0000   5.0000 Du        
   7662 ****        32.7500 -10.0000   5.2500 Du        
   7663 ****        32.7500 -10.0000   5.5000 Du        
   7664 ****        32.7500  -9.7500   1.0000 Du        
   7665 ****        32.7500  -9.7500   1.2500 Du        
   7666 ****        32.7500  -9.7500   1.5000 Du        
   7667 ****        32.7500  -9.7500   1.7500 Du        
   7668 ****        32.7500  -9.7500   2.0000 Du        
   7669 ****        32.7500  -9.7500   2.2500 Du        
   7670 ****        32.7500  -9.7500   4.5000 Du        
   7671 ****        32.7500  -9.7500   4.7500 Du        
   7672 ****        32.7500  -9.7500   5.0000 Du        
   7673 ****        32.7500  -9.7500   5.2500 Du        
   7674 ****        32.7500  -9.7500   5.5000 Du        
   7675 ****        32.7500  -9.5000   1.0000 Du        
   7676 ****        32.7500  -9.5000   1.2500 Du        
   7677 ****        32.7500  -9.5000   1.5000 Du        
   7678 ****        32.7500  -9.5000   1.7500 Du        
   7679 ****        32.7500  -9.5000   2.0000 Du        
   7680 ****        32.7500  -9.5000   5.0000 Du        
   7681 ****        32.7500  -9.5000   5.2500 Du        
   7682 ****        32.7500  -9.2500   1.2500 Du        
   7683 ****        32.7500  -9.2500   1.5000 Du        
   7684 ****        33.0000 -10.5000   4.0000 Du        
   7685 ****        33.0000 -10.5000   4.2500 Du        
   7686 ****        33.0000 -10.5000   4.5000 Du        
   7687 ****        33.0000 -10.5000   4.7500 Du        
   7688 ****        33.0000 -10.2500   1.2500 Du        
   7689 ****        33.0000 -10.2500   1.5000 Du        
   7690 ****        33.0000 -10.2500   1.7500 Du        
   7691 ****        33.0000 -10.2500   2.0000 Du        
   7692 ****        33.0000 -10.2500   2.2500 Du        
   7693 ****        33.0000 -10.2500   2.5000 Du        
   7694 ****        33.0000 -10.2500   2.7500 Du        
   7695 ****        33.0000 -10.2500   3.0000 Du        
   7696 ****        33.0000 -10.2500   3.2500 Du        
   7697 ****        33.0000 -10.2500   3.5000 Du        
   7698 ****        33.0000 -10.2500   3.7500 Du        
   7699 ****        33.0000 -10.2500   4.0000 Du        
   7700 ****        33.0000 -10.2500   4.2500 Du        
   7701 ****        33.0000 -10.2500   4.5000 Du        
   7702 ****        33.0000 -10.2500   4.7500 Du        
   7703 ****        33.0000 -10.2500   5.0000 Du        
   7704 ****        33.0000 -10.2500   5.2500 Du        
   7705 ****        33.0000 -10.0000   1.0000 Du        
   7706 ****        33.0000 -10.0000   1.2500 Du        
   7707 ****        33.0000 -10.0000   1.5000 Du        
   7708 ****        33.0000 -10.0000   1.7500 Du        
   7709 ****        33.0000 -10.0000   2.0000 Du        
   7710 ****        33.0000 -10.0000   2.2500 Du        
   7711 ****        33.0000 -10.0000   2.5000 Du        
   7712 ****        33.0000 -10.0000   2.7500 Du        
   7713 ****        33.0000 -10.0000   3.0000 Du        
   7714 ****        33.0000 -10.0000   3.2500 Du        
   7715 ****        33.0000 -10.0000   3.5000 Du        
   7716 ****        33.0000 -10.0000   3.7500 Du        
   7717 ****        33.0000 -10.0000   4.0000 Du        
   7718 ****        33.0000 -10.0000   4.2500 Du        
   7719 ****        33.0000 -10.0000   4.5000 Du        
   7720 ****        33.0000 -10.0000   4.7500 Du        
   7721 ****        33.0000 -10.0000   5.0000 Du        
   7722 ****        33.0000 -10.0000   5.2500 Du        
   7723 ****        33.0000 -10.0000   5.5000 Du        
   7724 ****        33.0000  -9.7500   1.0000 Du        
   7725 ****        33.0000  -9.7500   1.2500 Du        
   7726 ****        33.0000  -9.7500   1.5000 Du        
   7727 ****        33.0000  -9.7500   1.7500 Du        
   7728 ****        33.0000  -9.7500   2.0000 Du        
   7729 ****        33.0000  -9.7500   2.2500 Du        
   7730 ****        33.0000  -9.7500   2.5000 Du        
   7731 ****        33.0000  -9.7500   4.2500 Du        
   7732 ****        33.0000  -9.7500   4.5000 Du        
   7733 ****        33.0000  -9.7500   4.7500 Du        
   7734 ****        33.0000  -9.7500   5.0000 Du        
   7735 ****        33.0000  -9.7500   5.2500 Du        
   7736 ****        33.0000  -9.7500   5.5000 Du        
   7737 ****        33.0000  -9.5000   1.0000 Du        
   7738 ****        33.0000  -9.5000   1.2500 Du        
   7739 ****        33.0000  -9.5000   1.5000 Du        
   7740 ****        33.0000  -9.5000   1.7500 Du        
   7741 ****        33.0000  -9.5000   2.0000 Du        
   7742 ****        33.0000  -9.5000   5.0000 Du        
   7743 ****        33.0000  -9.5000   5.2500 Du        
   7744 ****        33.0000  -9.2500   1.2500 Du        
   7745 ****        33.0000  -9.2500   1.5000 Du        
   7746 ****        33.2500 -10.5000   4.2500 Du        
   7747 ****        33.2500 -10.5000   4.5000 Du        
   7748 ****        33.2500 -10.5000   4.7500 Du        
   7749 ****        33.2500 -10.2500   1.5000 Du        
   7750 ****        33.2500 -10.2500   1.7500 Du        
   7751 ****        33.2500 -10.2500   2.0000 Du        
   7752 ****        33.2500 -10.2500   2.2500 Du        
   7753 ****        33.2500 -10.2500   3.5000 Du        
   7754 ****        33.2500 -10.2500   3.7500 Du        
   7755 ****        33.2500 -10.2500   4.0000 Du        
   7756 ****        33.2500 -10.2500   4.2500 Du        
   7757 ****        33.2500 -10.2500   4.5000 Du        
   7758 ****        33.2500 -10.2500   4.7500 Du        
   7759 ****        33.2500 -10.2500   5.0000 Du        
   7760 ****        33.2500 -10.2500   5.2500 Du        
   7761 ****        33.2500 -10.0000   1.2500 Du        
   7762 ****        33.2500 -10.0000   1.5000 Du        
   7763 ****        33.2500 -10.0000   1.7500 Du        
   7764 ****        33.2500 -10.0000   2.0000 Du        
   7765 ****        33.2500 -10.0000   2.2500 Du        
   7766 ****        33.2500 -10.0000   2.5000 Du        
   7767 ****        33.2500 -10.0000   2.7500 Du        
   7768 ****        33.2500 -10.0000   3.0000 Du        
   7769 ****        33.2500 -10.0000   3.2500 Du        
   7770 ****        33.2500 -10.0000   3.5000 Du        
   7771 ****        33.2500 -10.0000   3.7500 Du        
   7772 ****        33.2500 -10.0000   4.0000 Du        
   7773 ****        33.2500 -10.0000   4.2500 Du        
   7774 ****        33.2500 -10.0000   4.5000 Du        
   7775 ****        33.2500 -10.0000   4.7500 Du        
   7776 ****        33.2500 -10.0000   5.0000 Du        
   7777 ****        33.2500 -10.0000   5.2500 Du        
   7778 ****        33.2500 -10.0000   5.5000 Du        
   7779 ****        33.2500  -9.7500   1.2500 Du        
   7780 ****        33.2500  -9.7500   1.5000 Du        
   7781 ****        33.2500  -9.7500   1.7500 Du        
   7782 ****        33.2500  -9.7500   2.0000 Du        
   7783 ****        33.2500  -9.7500   2.2500 Du        
   7784 ****        33.2500  -9.7500   2.5000 Du        
   7785 ****        33.2500  -9.7500   2.7500 Du        
   7786 ****        33.2500  -9.7500   4.0000 Du        
   7787 ****        33.2500  -9.7500   4.2500 Du        
   7788 ****        33.2500  -9.7500   4.5000 Du        
   7789 ****        33.2500  -9.7500   4.7500 Du        
   7790 ****        33.2500  -9.7500   5.0000 Du        
   7791 ****        33.2500  -9.7500   5.2500 Du        
   7792 ****        33.2500  -9.7500   5.5000 Du        
   7793 ****        33.2500  -9.5000   1.2500 Du        
   7794 ****        33.2500  -9.5000   1.5000 Du        
   7795 ****        33.2500  -9.5000   1.7500 Du        
   7796 ****        33.2500  -9.5000   2.0000 Du        
   7797 ****        33.2500  -9.5000   4.7500 Du        
   7798 ****        33.2500  -9.5000   5.0000 Du        
   7799 ****        33.2500  -9.5000   5.2500 Du        
   7800 ****        33.2500  -9.5000   5.5000 Du        
   7801 ****        33.2500  -9.2500   1.5000 Du        
   7802 ****        33.2500  -9.2500   1.7500 Du        
   7803 ****        33.5000 -10.5000   4.7500 Du        
   7804 ****        33.5000 -10.2500   4.0000 Du        
   7805 ****        33.5000 -10.2500   4.2500 Du        
   7806 ****        33.5000 -10.2500   4.5000 Du        
   7807 ****        33.5000 -10.2500   4.7500 Du        
   7808 ****        33.5000 -10.2500   5.0000 Du        
   7809 ****        33.5000 -10.2500   5.2500 Du        
   7810 ****        33.5000 -10.0000   1.2500 Du        
   7811 ****        33.5000 -10.0000   1.5000 Du        
   7812 ****        33.5000 -10.0000   1.7500 Du        
   7813 ****        33.5000 -10.0000   2.0000 Du        
   7814 ****        33.5000 -10.0000   2.2500 Du        
   7815 ****        33.5000 -10.0000   2.5000 Du        
   7816 ****        33.5000 -10.0000   2.7500 Du        
   7817 ****        33.5000 -10.0000   3.0000 Du        
   7818 ****        33.5000 -10.0000   3.2500 Du        
   7819 ****        33.5000 -10.0000   3.5000 Du        
   7820 ****        33.5000 -10.0000   3.7500 Du        
   7821 ****        33.5000 -10.0000   4.0000 Du        
   7822 ****        33.5000 -10.0000   4.2500 Du        
   7823 ****        33.5000 -10.0000   4.5000 Du        
   7824 ****        33.5000 -10.0000   4.7500 Du        
   7825 ****        33.5000 -10.0000   5.0000 Du        
   7826 ****        33.5000 -10.0000   5.2500 Du        
   7827 ****        33.5000 -10.0000   5.5000 Du        
   7828 ****        33.5000  -9.7500   1.2500 Du        
   7829 ****        33.5000  -9.7500   1.5000 Du        
   7830 ****        33.5000  -9.7500   1.7500 Du        
   7831 ****        33.5000  -9.7500   2.0000 Du        
   7832 ****        33.5000  -9.7500   2.2500 Du        
   7833 ****        33.5000  -9.7500   2.5000 Du        
   7834 ****        33.5000  -9.7500   2.7500 Du        
   7835 ****        33.5000  -9.7500   3.0000 Du        
   7836 ****        33.5000  -9.7500   3.2500 Du        
   7837 ****        33.5000  -9.7500   3.7500 Du        
   7838 ****        33.5000  -9.7500   4.0000 Du        
   7839 ****        33.5000  -9.7500   4.2500 Du        
   7840 ****        33.5000  -9.7500   4.5000 Du        
   7841 ****        33.5000  -9.7500   4.7500 Du        
   7842 ****        33.5000  -9.7500   5.0000 Du        
   7843 ****        33.5000  -9.7500   5.2500 Du        
   7844 ****        33.5000  -9.7500   5.5000 Du        
   7845 ****        33.5000  -9.5000   1.2500 Du        
   7846 ****        33.5000  -9.5000   1.5000 Du        
   7847 ****        33.5000  -9.5000   1.7500 Du        
   7848 ****        33.5000  -9.5000   2.0000 Du        
   7849 ****        33.5000  -9.5000   2.2500 Du        
   7850 ****        33.5000  -9.5000   4.7500 Du        
   7851 ****        33.5000  -9.5000   5.0000 Du        
   7852 ****        33.5000  -9.5000   5.2500 Du        
   7853 ****        33.5000  -9.5000   5.5000 Du        
   7854 ****        33.5000  -9.2500   1.5000 Du        
   7855 ****        33.5000  -9.2500   1.7500 Du        
   7856 ****        33.5000  -9.2500   5.2500 Du        
   7857 ****        33.7500 -10.2500   4.2500 Du        
   7858 ****        33.7500 -10.2500   4.5000 Du        
   7859 ****        33.7500 -10.2500   4.7500 Du        
   7860 ****        33.7500 -10.2500   5.0000 Du        
   7861 ****        33.7500 -10.2500   5.2500 Du        
   7862 ****        33.7500 -10.0000   1.5000 Du        
   7863 ****        33.7500 -10.0000   1.7500 Du        
   7864 ****        33.7500 -10.0000   2.0000 Du        
   7865 ****        33.7500 -10.0000   2.2500 Du        
   7866 ****        33.7500 -10.0000   2.5000 Du        
   7867 ****        33.7500 -10.0000   2.7500 Du        
   7868 ****        33.7500 -10.0000   3.0000 Du        
   7869 ****        33.7500 -10.0000   3.2500 Du        
   7870 ****        33.7500 -10.0000   3.5000 Du        
   7871 ****        33.7500 -10.0000   3.7500 Du        
   7872 ****        33.7500 -10.0000   4.0000 Du        
   7873 ****        33.7500 -10.0000   4.2500 Du        
   7874 ****        33.7500 -10.0000   4.5000 Du        
   7875 ****        33.7500 -10.0000   4.7500 Du        
   7876 ****        33.7500 -10.0000   5.0000 Du        
   7877 ****        33.7500 -10.0000   5.2500 Du        
   7878 ****        33.7500 -10.0000   5.5000 Du        
   7879 ****        33.7500  -9.7500   1.5000 Du        
   7880 ****        33.7500  -9.7500   1.7500 Du        
   7881 ****        33.7500  -9.7500   2.0000 Du        
   7882 ****        33.7500  -9.7500   2.2500 Du        
   7883 ****        33.7500  -9.7500   2.5000 Du        
   7884 ****        33.7500  -9.7500   2.7500 Du        
   7885 ****        33.7500  -9.7500   3.0000 Du        
   7886 ****        33.7500  -9.7500   3.2500 Du        
   7887 ****        33.7500  -9.7500   3.5000 Du        
   7888 ****        33.7500  -9.7500   3.7500 Du        
   7889 ****        33.7500  -9.7500   4.0000 Du        
   7890 ****        33.7500  -9.7500   4.2500 Du        
   7891 ****        33.7500  -9.7500   4.5000 Du        
   7892 ****        33.7500  -9.7500   4.7500 Du        
   7893 ****        33.7500  -9.7500   5.0000 Du        
   7894 ****        33.7500  -9.7500   5.2500 Du        
   7895 ****        33.7500  -9.7500   5.5000 Du        
   7896 ****        33.7500  -9.5000   1.5000 Du        
   7897 ****        33.7500  -9.5000   1.7500 Du        
   7898 ****        33.7500  -9.5000   2.0000 Du        
   7899 ****        33.7500  -9.5000   2.2500 Du        
   7900 ****        33.7500  -9.5000   2.5000 Du        
   7901 ****        33.7500  -9.5000   4.5000 Du        
   7902 ****        33.7500  -9.5000   4.7500 Du        
   7903 ****        33.7500  -9.5000   5.0000 Du        
   7904 ****        33.7500  -9.5000   5.2500 Du        
   7905 ****        33.7500  -9.5000   5.5000 Du        
   7906 ****        33.7500  -9.2500   1.7500 Du        
   7907 ****        33.7500  -9.2500   2.0000 Du        
   7908 ****        33.7500  -9.2500   5.0000 Du        
   7909 ****        33.7500  -9.2500   5.2500 Du        
   7910 ****        34.0000 -10.2500   4.5000 Du        
   7911 ****        34.0000 -10.2500   4.7500 Du        
   7912 ****        34.0000 -10.2500   5.0000 Du        
   7913 ****        34.0000 -10.2500   5.2500 Du        
   7914 ****        34.0000 -10.0000   1.7500 Du        
   7915 ****        34.0000 -10.0000   2.0000 Du        
   7916 ****        34.0000 -10.0000   2.2500 Du        
   7917 ****        34.0000 -10.0000   2.5000 Du        
   7918 ****        34.0000 -10.0000   2.7500 Du        
   7919 ****        34.0000 -10.0000   3.0000 Du        
   7920 ****        34.0000 -10.0000   3.2500 Du        
   7921 ****        34.0000 -10.0000   3.5000 Du        
   7922 ****        34.0000 -10.0000   3.7500 Du        
   7923 ****        34.0000 -10.0000   4.0000 Du        
   7924 ****        34.0000 -10.0000   4.2500 Du        
   7925 ****        34.0000 -10.0000   4.5000 Du        
   7926 ****        34.0000 -10.0000   4.7500 Du        
   7927 ****        34.0000 -10.0000   5.0000 Du        
   7928 ****        34.0000 -10.0000   5.2500 Du        
   7929 ****        34.0000 -10.0000   5.5000 Du        
   7930 ****        34.0000  -9.7500   1.7500 Du        
   7931 ****        34.0000  -9.7500   2.0000 Du        
   7932 ****        34.0000  -9.7500   2.2500 Du        
   7933 ****        34.0000  -9.7500   2.5000 Du        
   7934 ****        34.0000  -9.7500   2.7500 Du        
   7935 ****        34.0000  -9.7500   3.0000 Du        
   7936 ****        34.0000  -9.7500   3.2500 Du        
   7937 ****        34.0000  -9.7500   3.5000 Du        
   7938 ****        34.0000  -9.7500   3.7500 Du        
   7939 ****        34.0000  -9.7500   4.0000 Du        
   7940 ****        34.0000  -9.7500   4.2500 Du        
   7941 ****        34.0000  -9.7500   4.5000 Du        
   7942 ****        34.0000  -9.7500   4.7500 Du        
   7943 ****        34.0000  -9.7500   5.0000 Du        
   7944 ****        34.0000  -9.7500   5.2500 Du        
   7945 ****        34.0000  -9.7500   5.5000 Du        
   7946 ****        34.0000  -9.5000   1.7500 Du        
   7947 ****        34.0000  -9.5000   2.0000 Du        
   7948 ****        34.0000  -9.5000   2.2500 Du        
   7949 ****        34.0000  -9.5000   2.5000 Du        
   7950 ****        34.0000  -9.5000   2.7500 Du        
   7951 ****        34.0000  -9.5000   4.2500 Du        
   7952 ****        34.0000  -9.5000   4.5000 Du        
   7953 ****        34.0000  -9.5000   4.7500 Du        
   7954 ****        34.0000  -9.5000   5.0000 Du        
   7955 ****        34.0000  -9.5000   5.2500 Du        
   7956 ****        34.0000  -9.5000   5.5000 Du        
   7957 ****        34.0000  -9.2500   1.7500 Du        
   7958 ****        34.0000  -9.2500   2.0000 Du        
   7959 ****        34.0000  -9.2500   2.2500 Du        
   7960 ****        34.0000  -9.2500   5.0000 Du        
   7961 ****        34.0000  -9.2500   5.2500 Du        
   7962 ****        34.2500 -10.0000   4.0000 Du        
   7963 ****        34.2500 -10.0000   4.2500 Du        
   7964 ****        34.2500 -10.0000   4.7500 Du        
   7965 ****        34.2500 -10.0000   5.0000 Du        
   7966 ****        34.2500 -10.0000   5.2500 Du        
   7967 ****        34.2500  -9.7500   1.7500 Du        
   7968 ****        34.2500  -9.7500   2.0000 Du        
   7969 ****        34.2500  -9.7500   2.2500 Du        
   7970 ****        34.2500  -9.7500   2.5000 Du        
   7971 ****        34.2500  -9.7500   2.7500 Du        
   7972 ****        34.2500  -9.7500   3.0000 Du        
   7973 ****        34.2500  -9.7500   3.2500 Du        
   7974 ****        34.2500  -9.7500   3.5000 Du        
   7975 ****        34.2500  -9.7500   3.7500 Du        
   7976 ****        34.2500  -9.7500   4.0000 Du        
   7977 ****        34.2500  -9.7500   4.2500 Du        
   7978 ****        34.2500  -9.7500   4.5000 Du        
   7979 ****        34.2500  -9.7500   4.7500 Du        
   7980 ****        34.2500  -9.7500   5.0000 Du        
   7981 ****        34.2500  -9.7500   5.2500 Du        
   7982 ****        34.2500  -9.5000   1.7500 Du        
   7983 ****        34.2500  -9.5000   2.0000 Du        
   7984 ****        34.2500  -9.5000   2.2500 Du        
   7985 ****        34.2500  -9.5000   2.5000 Du        
   7986 ****        34.2500  -9.5000   2.7500 Du        
   7987 ****        34.2500  -9.5000   3.0000 Du        
   7988 ****        34.2500  -9.5000   3.2500 Du        
   7989 ****        34.2500  -9.2500   2.0000 Du        
   7990 ****        34.2500  -9.2500   2.2500 Du        
   7991 ****        34.5000  -9.7500   2.0000 Du        
   7992 ****        34.5000  -9.7500   2.2500 Du        
   7993 ****        34.5000  -9.7500   2.5000 Du        
   7994 ****        34.5000  -9.7500   2.7500 Du        
   7995 ****        34.5000  -9.7500   3.0000 Du        
   7996 ****        34.5000  -9.7500   3.2500 Du        
   7997 ****        34.5000  -9.5000   2.0000 Du        
   7998 ****        34.5000  -9.5000   2.2500 Du        
   7999 ****        34.5000  -9.5000   2.5000 Du        
   8000 ****        34.5000  -9.5000   2.7500 Du        
   8001 ****        34.5000  -9.5000   3.0000 Du        
   8002 ****        34.5000  -9.5000   3.2500 Du        
   8003 ****        34.5000  -9.2500   2.0000 Du        
   8004 ****        34.5000  -9.2500   2.2500 Du        
   8005 ****        34.5000  -9.2500   2.5000 Du        
   8006 ****        34.7500  -9.5000   2.2500 Du        
   8007 ****        34.7500  -9.5000   2.5000 Du        
   8008 ****        34.7500  -9.5000   2.7500 Du        
   8009 ****        34.7500  -9.2500   2.2500 Du        
