#       Name:                CT1002167954
#       Creating user name   hitesit
#       Creation time:       Sun Apr 16 22:50:15 2023


#       File generated by GOLD software.
#

@<TRIPOS>MOLECULE
CT1002167954|ligand_prepared|mol2|1|dock5
    29    30     1
SMALL
NO_CHARGES


@<TRIPOS>ATOM
      1 C1          25.0523  -8.9012   2.1372 C.3            1 RES1               0.0000
      2 C2          24.8138 -10.3907   1.8156 C.ar           1 RES1               0.0000
      3 C3          25.2146  -8.1937   0.7951 C.2            1 RES1               0.0000
      4 C4          23.8422  -8.4394   2.9417 C.2            1 RES1               0.0000
      5 C5          26.3182  -8.6403   2.9863 C.3            1 RES1               0.0000
      6 C6          24.3051 -10.7759   0.5788 C.ar           1 RES1               0.0000
      7 C7          25.0996 -11.3893   2.7428 C.ar           1 RES1               0.0000
      8 N8          24.1818  -7.4154   0.3622 N.am           1 RES1               0.0000
      9 O9          26.2171  -8.3480   0.1086 O.2            1 RES1               0.0000
     10 N10         23.0152  -7.5038   2.3774 N.am           1 RES1               0.0000
     11 O11         23.5882  -8.8896   4.0521 O.2            1 RES1               0.0000
     12 C12         26.6834  -7.1692   3.1064 C.3            1 RES1               0.0000
     13 C13         24.0926 -12.1112   0.2787 C.ar           1 RES1               0.0000
     14 C14         24.8861 -12.7241   2.4407 C.ar           1 RES1               0.0000
     15 C15         23.1131  -6.9935   1.1116 C.2            1 RES1               0.0000
     16 C16         24.3833 -13.0861   1.2091 C.ar           1 RES1               0.0000
     17 O17         22.2988  -6.1959   0.6557 O.2            1 RES1               0.0000
     18 H18         26.1589  -9.0479   3.9922 H              1 RES1               0.0000
     19 H19         27.1621  -9.1779   2.5364 H              1 RES1               0.0000
     20 H20         24.0681 -10.0226  -0.1651 H              1 RES1               0.0000
     21 H21         25.4949 -11.1277   3.7185 H              1 RES1               0.0000
     22 H22         24.2063  -7.1197  -0.6085 H              1 RES1               0.0000
     23 H23         22.2563  -7.1553   2.9545 H              1 RES1               0.0000
     24 H24         27.5785  -7.0421   3.7118 H              1 RES1               0.0000
     25 H25         26.8734  -6.7375   2.1259 H              1 RES1               0.0000
     26 H26         25.8763  -6.6083   3.5730 H              1 RES1               0.0000
     27 H27         23.6954 -12.3909  -0.6915 H              1 RES1               0.0000
     28 H28         25.1157 -13.4879   3.1762 H              1 RES1               0.0000
     29 H29         24.2171 -14.1321   0.9736 H              1 RES1               0.0000
@<TRIPOS>BOND
    1    1    2 1     
    2    1    3 1     
    3    1    4 1     
    4    1    5 1     
    5    2    6 ar    
    6    2    7 ar    
    7    3    8 1     
    8    3    9 2     
    9    4   10 1     
   10    4   11 2     
   11    5   12 1     
   12    5   18 1     
   13    5   19 1     
   14    6   13 ar    
   15    6   20 1     
   16    7   14 ar    
   17    7   21 1     
   18    8   15 1     
   19    8   22 1     
   20   10   15 1     
   21   10   23 1     
   22   12   24 1     
   23   12   25 1     
   24   12   26 1     
   25   13   16 ar    
   26   13   27 1     
   27   14   16 ar    
   28   14   28 1     
   29   15   17 2     
   30   16   29 1     
@<TRIPOS>SUBSTRUCTURE
      1 RES1           1
@<TRIPOS>SET
DONOR_HYDROGENS      STATIC     ATOMS    <user>   **** ""
2 22 23
ATOM$RED        STATIC     ATOMS    COLORGROUP SYSTEM
2 22 23
@<TRIPOS>COMMENT
> <Gold.Version>
2022.3.0

> <Gold.Id.Protein>
unknown|3oxt_clean|pdb

> <Gold.Protein.RotatedTorsions>
[  570  565  563  560 ] final   40.94 input   59.99 | X-H torsion
[  590  585  584  581 ] final -121.02 input   60.02 | X-H torsion
[ 2787 2780 2778 2775 ] final   22.50 input   60.00 | X-H torsion
[ 2470 2461 2460 2458 ] final  -94.06 input   59.98 | X-H torsion
[ 2545 2534 2533 2532 ] final  -75.66 input   59.97 | X-H torsion
[ 1779 1770 1769 1767 ] final  154.23 input   59.98 | X-H torsion
[ 5059 5050 5049 5047 ] final   65.12 input   60.00 | X-H torsion

> <Gold.Protein.ActiveResidues>
 THR48   LEU49   GLY50   THR51   GLY52   SER53   PHE54   GLY55   ARG56   VAL57  
 MET58   LEU59   VAL60   HIS68   TYR69   ALA70   MET71   LYS72   ILE73   LEU74  
 ASP75   VAL79   GLU91   LEU95   VAL104  LYS105  MET118  VAL119  MET120  GLU121 
 TYR122  VAL123  PRO124  GLY125  GLY126  GLU127  TYR164  ASP166  LYS168  GLU170 
 ASN171  LEU172  LEU173  ILE174  ASP175  GLN181  VAL182  THR183  ASP184  PHE185 
 GLY186  PHE327  ASP328  TYR330 

> <Gold.Protein.RotatedAtoms>
   20.8096  -12.4857    5.6115 H   0  0  0  0  0  0  0  0  0  0  0  0  # atno 570  bound_to 565 
   17.3255  -10.7878   -1.6568 H   0  0  0  0  0  0  0  0  0  0  0  0  # atno 590  bound_to 585 
   37.0240  -11.9137   11.0194 H   0  0  0  0  0  0  0  0  0  0  0  0  # atno 1779 bound_to 1770
   26.8089   -2.9142   -3.0529 H   0  0  0  0  0  0  0  0  0  0  0  0  # atno 2470 bound_to 2461
   19.6913   -4.2002    1.6984 H   0  0  0  0  0  0  0  0  0  0  0  0  # atno 2545 bound_to 2534
   19.4262   -3.3158    0.3213 H   0  0  0  0  0  0  0  0  0  0  0  0  # atno 2546 bound_to 2534
   20.0753   -4.8377    0.2180 H   0  0  0  0  0  0  0  0  0  0  0  0  # atno 2547 bound_to 2534
   31.8344   -7.4963   -1.7988 H   0  0  0  0  0  0  0  0  0  0  0  0  # atno 2787 bound_to 2780
   24.5045  -10.0128    8.4692 H   0  0  0  0  0  0  0  0  0  0  0  0  # atno 5059 bound_to 5050
   21.4751  -12.9737    7.0142 LP  0  0  0  0  0  0  0  0  0  0  0  0  # atno 5371 bound_to 565 
   20.0982  -13.6670    6.4757 LP  0  0  0  0  0  0  0  0  0  0  0  0  # atno 5372 bound_to 565 
   17.2706  -11.9620   -2.7826 LP  0  0  0  0  0  0  0  0  0  0  0  0  # atno 5375 bound_to 585 
   18.4305  -11.9826   -1.6332 LP  0  0  0  0  0  0  0  0  0  0  0  0  # atno 5376 bound_to 585 
   30.6251   -8.1289   -0.9126 LP  0  0  0  0  0  0  0  0  0  0  0  0  # atno 5395 bound_to 2780
   32.1330   -8.0356   -0.2928 LP  0  0  0  0  0  0  0  0  0  0  0  0  # atno 5396 bound_to 2780
   27.8335   -1.8364   -2.3920 LP  0  0  0  0  0  0  0  0  0  0  0  0  # atno 5401 bound_to 2461
   28.4146   -3.1137   -3.2270 LP  0  0  0  0  0  0  0  0  0  0  0  0  # atno 5402 bound_to 2461
   35.5577  -11.8101   10.3217 LP  0  0  0  0  0  0  0  0  0  0  0  0  # atno 5439 bound_to 1770
   36.4633  -10.4671   10.5287 LP  0  0  0  0  0  0  0  0  0  0  0  0  # atno 5440 bound_to 1770
   24.3153   -9.5584   10.0197 LP  0  0  0  0  0  0  0  0  0  0  0  0  # atno 5465 bound_to 5050
   23.0078   -9.8324    9.0805 LP  0  0  0  0  0  0  0  0  0  0  0  0  # atno 5466 bound_to 5050

> <Gold.Score>
     Fitness  S(hb_ext) S(vdw_ext)  S(hb_int)    S(int)      intcor
     33.36       1.88      23.60       0.00      -0.97      -0.77

> <Gold.Goldscore.Fitness>
33.3590

> <Gold.Goldscore.Internal.Vdw>
-1.2164

> <Gold.Goldscore.Internal.Torsion>
-0.5199

> <Gold.Goldscore.External.Vdw>
23.5979

> <Gold.Goldscore.Internal.HBond>
0.0000

> <Gold.Goldscore.External.HBond>
1.8790

> <Gold.Goldscore.Internal.Correction>
-0.7693

> <Gold.Goldscore.Hbonds>
donor molecule, donor type, donor heavy atom, donor atom, acceptor molecule, acceptor atom, score
      L1  H     8    22       P1  2794  0.31

> <Gold.Goldscore.Internal.Vdw.Weighted>
-1.2164

> <Gold.Goldscore.Internal.Torsion.Weighted>
-0.5199

> <Gold.Goldscore.External.Vdw.Weighted>
32.4471

> <Gold.Goldscore.Internal.HBond.Weighted>
0.0000

> <Gold.Goldscore.External.HBond.Weighted>
1.8790

> <Gold.Goldscore.Internal.Correction.Weighted>
-0.7693

> <Gold.Rescore>
     Score     S(PLP)   S(hbond)     S(cho)   S(metal)  DE(clash)   DE(tors)     intcor
     29.03     -28.43       0.99       0.00       0.00       1.66       0.36       ----

> <Gold.PLP.Fitness>
29.0309

> <Gold.PLP.PLP>
-28.4308

> <Gold.PLP.part.hbond>
-2.0465

> <Gold.PLP.part.metal>
0.0000

> <Gold.PLP.part.buried>
-1.5105

> <Gold.PLP.part.nonpolar>
-26.6254

> <Gold.PLP.part.repulsive>
1.0069

> <Gold.PLP.ligand.clash>
1.6620

> <Gold.PLP.ligand.torsion>
0.3570

> <Gold.PLP.Chemscore.Hbond>
0.9920

> <Gold.PLP.Chemscore.CHOScore>
0.0000

> <Gold.PLP.Chemscore.Metal>
0.0000

> <Gold.Chemscore.Hbonds>
donor molecule, donor type, donor heavy atom, donor atom, acceptor molecule, acceptor atom, score
      L1  H     8    22       P1  2794  0.62

> <Gold.PLP.Chemscore.Internal.Correction>
   9.000000E+99

