#       Name:                CT1002167954
#       Creating user name   hitesit
#       Creation time:       Sun Apr 16 22:50:19 2023


#       File generated by GOLD software.
#

@<TRIPOS>MOLECULE
CT1002167954|ligand_prepared|mol2|1|dock9
    29    30     1
SMALL
NO_CHARGES


@<TRIPOS>ATOM
      1 C1          27.5378  -9.1322   2.6456 C.3            1 RES1               0.0000
      2 C2          28.8434  -9.5855   3.3303 C.ar           1 RES1               0.0000
      3 C3          26.4401 -10.0588   3.1602 C.2            1 RES1               0.0000
      4 C4          27.3440  -7.6680   3.0238 C.2            1 RES1               0.0000
      5 C5          27.5764  -9.2260   1.1025 C.3            1 RES1               0.0000
      6 C6          30.0183  -9.7206   2.5968 C.ar           1 RES1               0.0000
      7 C7          28.8890  -9.8692   4.6927 C.ar           1 RES1               0.0000
      8 N8          25.5526  -9.5477   4.0608 N.am           1 RES1               0.0000
      9 O9          26.3779 -11.2312   2.8112 O.2            1 RES1               0.0000
     10 N10         26.2678  -7.3444   3.8079 N.am           1 RES1               0.0000
     11 O11         28.1227  -6.7938   2.6636 O.2            1 RES1               0.0000
     12 C12         26.2385  -8.9435   0.4374 C.3            1 RES1               0.0000
     13 C13         31.1969 -10.1218   3.2037 C.ar           1 RES1               0.0000
     14 C14         30.0686 -10.2705   5.2976 C.ar           1 RES1               0.0000
     15 C15         25.3806  -8.2221   4.3690 C.2            1 RES1               0.0000
     16 C16         31.2230 -10.3965   4.5544 C.ar           1 RES1               0.0000
     17 O17         24.4699  -7.8596   5.1081 O.2            1 RES1               0.0000
     18 H18         28.3171  -8.5110   0.7237 H              1 RES1               0.0000
     19 H19         27.9064 -10.2328   0.8181 H              1 RES1               0.0000
     20 H20         30.0165  -9.5111   1.5323 H              1 RES1               0.0000
     21 H21         27.9928  -9.7780   5.2969 H              1 RES1               0.0000
     22 H22         24.9623 -10.2125   4.5504 H              1 RES1               0.0000
     23 H23         26.1136  -6.3578   3.9902 H              1 RES1               0.0000
     24 H24         26.3213  -9.0226  -0.6445 H              1 RES1               0.0000
     25 H25         25.4840  -9.6522   0.7722 H              1 RES1               0.0000
     26 H26         25.8922  -7.9406   0.6784 H              1 RES1               0.0000
     27 H27         32.1023 -10.2207   2.6142 H              1 RES1               0.0000
     28 H28         30.0844 -10.4863   6.3608 H              1 RES1               0.0000
     29 H29         32.1464 -10.7104   5.0297 H              1 RES1               0.0000
@<TRIPOS>BOND
    1    1    2 1     
    2    1    3 1     
    3    1    4 1     
    4    1    5 1     
    5    2    6 ar    
    6    2    7 ar    
    7    3    8 1     
    8    3    9 2     
    9    4   10 1     
   10    4   11 2     
   11    5   12 1     
   12    5   18 1     
   13    5   19 1     
   14    6   13 ar    
   15    6   20 1     
   16    7   14 ar    
   17    7   21 1     
   18    8   15 1     
   19    8   22 1     
   20   10   15 1     
   21   10   23 1     
   22   12   24 1     
   23   12   25 1     
   24   12   26 1     
   25   13   16 ar    
   26   13   27 1     
   27   14   16 ar    
   28   14   28 1     
   29   15   17 2     
   30   16   29 1     
@<TRIPOS>SUBSTRUCTURE
      1 RES1           1
@<TRIPOS>SET
DONOR_HYDROGENS      STATIC     ATOMS    <user>   **** ""
2 22 23
ATOM$RED        STATIC     ATOMS    COLORGROUP SYSTEM
2 22 23
@<TRIPOS>COMMENT
> <Gold.Version>
2022.3.0

> <Gold.Id.Protein>
unknown|3oxt_clean|pdb

> <Gold.Protein.RotatedTorsions>
[  570  565  563  560 ] final   28.80 input   59.99 | X-H torsion
[  590  585  584  581 ] final  -43.85 input   60.02 | X-H torsion
[ 2787 2780 2778 2775 ] final -142.42 input   60.00 | X-H torsion
[ 2470 2461 2460 2458 ] final  -95.39 input   59.98 | X-H torsion
[ 2545 2534 2533 2532 ] final  170.05 input   59.97 | X-H torsion
[ 1779 1770 1769 1767 ] final    3.54 input   59.98 | X-H torsion
[ 5059 5050 5049 5047 ] final  128.80 input   60.00 | X-H torsion

> <Gold.Protein.ActiveResidues>
 THR48   LEU49   GLY50   THR51   GLY52   SER53   PHE54   GLY55   ARG56   VAL57  
 MET58   LEU59   VAL60   HIS68   TYR69   ALA70   MET71   LYS72   ILE73   LEU74  
 ASP75   VAL79   GLU91   LEU95   VAL104  LYS105  MET118  VAL119  MET120  GLU121 
 TYR122  VAL123  PRO124  GLY125  GLY126  GLU127  TYR164  ASP166  LYS168  GLU170 
 ASN171  LEU172  LEU173  ILE174  ASP175  GLN181  VAL182  THR183  ASP184  PHE185 
 GLY186  PHE327  ASP328  TYR330 

> <Gold.Protein.RotatedAtoms>
   20.9753  -12.4145    5.6933 H   0  0  0  0  0  0  0  0  0  0  0  0  # atno 570  bound_to 565 
   18.2451  -11.4129   -1.2985 H   0  0  0  0  0  0  0  0  0  0  0  0  # atno 590  bound_to 585 
   35.5093  -11.3261   10.2188 H   0  0  0  0  0  0  0  0  0  0  0  0  # atno 1779 bound_to 1770
   26.8015   -2.8973   -3.0418 H   0  0  0  0  0  0  0  0  0  0  0  0  # atno 2470 bound_to 2461
   20.0885   -4.8850    0.2990 H   0  0  0  0  0  0  0  0  0  0  0  0  # atno 2545 bound_to 2534
   19.6544   -4.1122    1.7001 H   0  0  0  0  0  0  0  0  0  0  0  0  # atno 2546 bound_to 2534
   19.4501   -3.3572    0.2385 H   0  0  0  0  0  0  0  0  0  0  0  0  # atno 2547 bound_to 2534
   31.0136   -8.2737   -0.3266 H   0  0  0  0  0  0  0  0  0  0  0  0  # atno 2787 bound_to 2780
   23.5210  -10.0367    8.3872 H   0  0  0  0  0  0  0  0  0  0  0  0  # atno 5059 bound_to 5050
   21.3737  -13.1193    7.1051 LP  0  0  0  0  0  0  0  0  0  0  0  0  # atno 5371 bound_to 565 
   20.0328  -13.5930    6.3025 LP  0  0  0  0  0  0  0  0  0  0  0  0  # atno 5372 bound_to 565 
   16.9629  -10.9849   -2.2050 LP  0  0  0  0  0  0  0  0  0  0  0  0  # atno 5375 bound_to 585 
   17.8126  -12.3304   -2.5714 LP  0  0  0  0  0  0  0  0  0  0  0  0  # atno 5376 bound_to 585 
   32.4515   -7.7339   -0.8642 LP  0  0  0  0  0  0  0  0  0  0  0  0  # atno 5395 bound_to 2780
   31.1331   -7.6477   -1.8239 LP  0  0  0  0  0  0  0  0  0  0  0  0  # atno 5396 bound_to 2780
   27.8549   -1.8392   -2.3945 LP  0  0  0  0  0  0  0  0  0  0  0  0  # atno 5401 bound_to 2461
   28.4007   -3.1280   -3.2357 LP  0  0  0  0  0  0  0  0  0  0  0  0  # atno 5402 bound_to 2461
   36.8805  -10.6289   10.7493 LP  0  0  0  0  0  0  0  0  0  0  0  0  # atno 5439 bound_to 1770
   36.6660  -12.2400   10.9075 LP  0  0  0  0  0  0  0  0  0  0  0  0  # atno 5440 bound_to 1770
   24.8854   -9.7867    9.2370 LP  0  0  0  0  0  0  0  0  0  0  0  0  # atno 5465 bound_to 5050
   23.4289   -9.5800    9.9458 LP  0  0  0  0  0  0  0  0  0  0  0  0  # atno 5466 bound_to 5050

> <Gold.Score>
     Fitness  S(hb_ext) S(vdw_ext)  S(hb_int)    S(int)      intcor
     35.80       1.26      25.63       0.00      -0.70      -0.77

> <Gold.Goldscore.Fitness>
35.7999

> <Gold.Goldscore.Internal.Vdw>
-1.0196

> <Gold.Goldscore.Internal.Torsion>
-0.4516

> <Gold.Goldscore.External.Vdw>
25.6286

> <Gold.Goldscore.Internal.HBond>
0.0000

> <Gold.Goldscore.External.HBond>
1.2626

> <Gold.Goldscore.Internal.Correction>
-0.7693

> <Gold.Goldscore.Hbonds>
donor molecule, donor type, donor heavy atom, donor atom, acceptor molecule, acceptor atom, score
      L1  H    10    23       P1  2565  0.63

> <Gold.Goldscore.Internal.Vdw.Weighted>
-1.0196

> <Gold.Goldscore.Internal.Torsion.Weighted>
-0.4516

> <Gold.Goldscore.External.Vdw.Weighted>
35.2393

> <Gold.Goldscore.Internal.HBond.Weighted>
0.0000

> <Gold.Goldscore.External.HBond.Weighted>
1.2626

> <Gold.Goldscore.Internal.Correction.Weighted>
-0.7693

> <Gold.Rescore>
     Score     S(PLP)   S(hbond)     S(cho)   S(metal)  DE(clash)   DE(tors)     intcor
     35.35     -32.93       0.99       0.00       0.00       0.00       0.28       ----

> <Gold.PLP.Fitness>
35.3456

> <Gold.PLP.PLP>
-32.9252

> <Gold.PLP.part.hbond>
-1.0113

> <Gold.PLP.part.metal>
0.0000

> <Gold.PLP.part.buried>
-0.2272

> <Gold.PLP.part.nonpolar>
-33.5822

> <Gold.PLP.part.repulsive>
1.3015

> <Gold.PLP.ligand.clash>
0.0000

> <Gold.PLP.ligand.torsion>
0.2778

> <Gold.PLP.Chemscore.Hbond>
0.9920

> <Gold.PLP.Chemscore.CHOScore>
0.0000

> <Gold.PLP.Chemscore.Metal>
0.0000

> <Gold.Chemscore.Hbonds>
donor molecule, donor type, donor heavy atom, donor atom, acceptor molecule, acceptor atom, score
      L1  H    10    23       P1  2565  1.00

> <Gold.PLP.Chemscore.Internal.Correction>
   9.000000E+99

