#       Name:                CT1002167954
#       Creating user name   hitesit
#       Creation time:       Sun Apr 16 22:50:18 2023


#       File generated by GOLD software.
#

@<TRIPOS>MOLECULE
CT1002167954|ligand_prepared|mol2|1|dock8
    29    30     1
SMALL
NO_CHARGES


@<TRIPOS>ATOM
      1 C1          25.1158  -9.7684   1.4445 C.3            1 RES1               0.0000
      2 C2          24.7420 -11.0374   0.6515 C.ar           1 RES1               0.0000
      3 C3          23.8441  -8.9301   1.5358 C.2            1 RES1               0.0000
      4 C4          25.6431 -10.2476   2.7924 C.2            1 RES1               0.0000
      5 C5          26.2191  -8.9160   0.7755 C.3            1 RES1               0.0000
      6 C6          24.4679 -12.2310   1.3125 C.ar           1 RES1               0.0000
      7 C7          24.6647 -11.0293  -0.7386 C.ar           1 RES1               0.0000
      8 N8          23.2032  -8.8833   2.7387 N.am           1 RES1               0.0000
      9 O9          23.3888  -8.3511   0.5571 O.2            1 RES1               0.0000
     10 N10         24.9192  -9.9349   3.9131 N.am           1 RES1               0.0000
     11 O11         26.6703 -10.9073   2.8925 O.2            1 RES1               0.0000
     12 C12         26.7568  -7.8038   1.6621 C.3            1 RES1               0.0000
     13 C13         24.1261 -13.3743   0.6096 C.ar           1 RES1               0.0000
     14 C14         24.3229 -12.1739  -1.4397 C.ar           1 RES1               0.0000
     15 C15         23.7071  -9.3009   3.9443 C.2            1 RES1               0.0000
     16 C16         24.0529 -13.3465  -0.7668 C.ar           1 RES1               0.0000
     17 O17         23.0909  -9.1037   4.9876 O.2            1 RES1               0.0000
     18 H18         27.0497  -9.5736   0.4911 H              1 RES1               0.0000
     19 H19         25.8141  -8.4714  -0.1420 H              1 RES1               0.0000
     20 H20         24.5229 -12.2727   2.3953 H              1 RES1               0.0000
     21 H21         24.8740 -10.1183  -1.2891 H              1 RES1               0.0000
     22 H22         22.2622  -8.5027   2.7421 H              1 RES1               0.0000
     23 H23         25.3212 -10.1992   4.8069 H              1 RES1               0.0000
     24 H24         27.5278  -7.2367   1.1447 H              1 RES1               0.0000
     25 H25         25.9618  -7.1164   1.9436 H              1 RES1               0.0000
     26 H26         27.1901  -8.2121   2.5729 H              1 RES1               0.0000
     27 H27         23.9159 -14.2950   1.1438 H              1 RES1               0.0000
     28 H28         24.2671 -12.1475  -2.5230 H              1 RES1               0.0000
     29 H29         23.7847 -14.2422  -1.3173 H              1 RES1               0.0000
@<TRIPOS>BOND
    1    1    2 1     
    2    1    3 1     
    3    1    4 1     
    4    1    5 1     
    5    2    6 ar    
    6    2    7 ar    
    7    3    8 1     
    8    3    9 2     
    9    4   10 1     
   10    4   11 2     
   11    5   12 1     
   12    5   18 1     
   13    5   19 1     
   14    6   13 ar    
   15    6   20 1     
   16    7   14 ar    
   17    7   21 1     
   18    8   15 1     
   19    8   22 1     
   20   10   15 1     
   21   10   23 1     
   22   12   24 1     
   23   12   25 1     
   24   12   26 1     
   25   13   16 ar    
   26   13   27 1     
   27   14   16 ar    
   28   14   28 1     
   29   15   17 2     
   30   16   29 1     
@<TRIPOS>SUBSTRUCTURE
      1 RES1           1
@<TRIPOS>SET
DONOR_HYDROGENS      STATIC     ATOMS    <user>   **** ""
2 22 23
ATOM$RED        STATIC     ATOMS    COLORGROUP SYSTEM
2 22 23
@<TRIPOS>COMMENT
> <Gold.Version>
2022.3.0

> <Gold.Id.Protein>
unknown|3oxt_clean|pdb

> <Gold.Protein.RotatedTorsions>
[  570  565  563  560 ] final   16.02 input   59.99 | X-H torsion
[  590  585  584  581 ] final   48.93 input   60.02 | X-H torsion
[ 2787 2780 2778 2775 ] final  -64.83 input   60.00 | X-H torsion
[ 2470 2461 2460 2458 ] final  135.44 input   59.98 | X-H torsion
[ 2545 2534 2533 2532 ] final -127.93 input   59.97 | X-H torsion
[ 1779 1770 1769 1767 ] final  -23.11 input   59.98 | X-H torsion
[ 5059 5050 5049 5047 ] final   91.81 input   60.00 | X-H torsion

> <Gold.Protein.ActiveResidues>
 THR48   LEU49   GLY50   THR51   GLY52   SER53   PHE54   GLY55   ARG56   VAL57  
 MET58   LEU59   VAL60   HIS68   TYR69   ALA70   MET71   LYS72   ILE73   LEU74  
 ASP75   VAL79   GLU91   LEU95   VAL104  LYS105  MET118  VAL119  MET120  GLU121 
 TYR122  VAL123  PRO124  GLY125  GLY126  GLU127  TYR164  ASP166  LYS168  GLU170 
 ASN171  LEU172  LEU173  ILE174  ASP175  GLN181  VAL182  THR183  ASP184  PHE185 
 GLY186  PHE327  ASP328  TYR330 

> <Gold.Protein.RotatedAtoms>
   21.1410  -12.3700    5.8118 H   0  0  0  0  0  0  0  0  0  0  0  0  # atno 570  bound_to 565 
   18.1329  -12.3553   -2.2674 H   0  0  0  0  0  0  0  0  0  0  0  0  # atno 590  bound_to 585 
   35.6538  -10.9195   10.2210 H   0  0  0  0  0  0  0  0  0  0  0  0  # atno 1779 bound_to 1770
   27.9983   -1.8737   -2.4244 H   0  0  0  0  0  0  0  0  0  0  0  0  # atno 2470 bound_to 2461
   20.0030   -4.8631    1.2811 H   0  0  0  0  0  0  0  0  0  0  0  0  # atno 2545 bound_to 2534
   19.3692   -3.3357    1.1627 H   0  0  0  0  0  0  0  0  0  0  0  0  # atno 2546 bound_to 2534
   19.8207   -4.1552   -0.2058 H   0  0  0  0  0  0  0  0  0  0  0  0  # atno 2547 bound_to 2534
   30.6818   -7.9201   -1.3947 H   0  0  0  0  0  0  0  0  0  0  0  0  # atno 2787 bound_to 2780
   24.1083  -10.0610    8.3041 H   0  0  0  0  0  0  0  0  0  0  0  0  # atno 5059 bound_to 5050
   21.2390  -13.2687    7.1650 LP  0  0  0  0  0  0  0  0  0  0  0  0  # atno 5371 bound_to 565 
   20.0007  -13.4885    6.1233 LP  0  0  0  0  0  0  0  0  0  0  0  0  # atno 5372 bound_to 565 
   17.9622  -11.0735   -1.2790 LP  0  0  0  0  0  0  0  0  0  0  0  0  # atno 5375 bound_to 585 
   16.9262  -11.2932   -2.5221 LP  0  0  0  0  0  0  0  0  0  0  0  0  # atno 5376 bound_to 585 
   31.6603   -8.2094   -0.1271 LP  0  0  0  0  0  0  0  0  0  0  0  0  # atno 5395 bound_to 2780
   32.2586   -7.5283   -1.4852 LP  0  0  0  0  0  0  0  0  0  0  0  0  # atno 5396 bound_to 2780
   28.2941   -3.2192   -3.2907 LP  0  0  0  0  0  0  0  0  0  0  0  0  # atno 5401 bound_to 2461
   26.7566   -2.7784   -2.9610 LP  0  0  0  0  0  0  0  0  0  0  0  0  # atno 5402 bound_to 2461
   37.1255  -10.9476   10.9146 LP  0  0  0  0  0  0  0  0  0  0  0  0  # atno 5439 bound_to 1770
   36.2754  -12.3309   10.7400 LP  0  0  0  0  0  0  0  0  0  0  0  0  # atno 5440 bound_to 1770
   24.6650   -9.6310    9.7709 LP  0  0  0  0  0  0  0  0  0  0  0  0  # atno 5465 bound_to 5050
   23.0574   -9.7113    9.4956 LP  0  0  0  0  0  0  0  0  0  0  0  0  # atno 5466 bound_to 5050

> <Gold.Score>
     Fitness  S(hb_ext) S(vdw_ext)  S(hb_int)    S(int)      intcor
     34.05       0.00      25.53       0.00      -1.06      -0.77

> <Gold.Goldscore.Fitness>
34.0480

> <Gold.Goldscore.Internal.Vdw>
-1.3055

> <Gold.Goldscore.Internal.Torsion>
-0.5224

> <Gold.Goldscore.External.Vdw>
25.5320

> <Gold.Goldscore.Internal.HBond>
0.0000

> <Gold.Goldscore.External.HBond>
0.0000

> <Gold.Goldscore.Internal.Correction>
-0.7693

> <Gold.Goldscore.Internal.Vdw.Weighted>
-1.3055

> <Gold.Goldscore.Internal.Torsion.Weighted>
-0.5224

> <Gold.Goldscore.External.Vdw.Weighted>
35.1065

> <Gold.Goldscore.Internal.HBond.Weighted>
0.0000

> <Gold.Goldscore.External.HBond.Weighted>
0.0000

> <Gold.Goldscore.Internal.Correction.Weighted>
-0.7693

> <Gold.Rescore>
     Score     S(PLP)   S(hbond)     S(cho)   S(metal)  DE(clash)   DE(tors)     intcor
     31.53     -34.17       0.00       0.00       0.00       1.88       0.38       ----

> <Gold.PLP.Fitness>
31.5302

> <Gold.PLP.PLP>
-34.1716

> <Gold.PLP.part.hbond>
-0.9835

> <Gold.PLP.part.metal>
0.0000

> <Gold.PLP.part.buried>
-3.7766

> <Gold.PLP.part.nonpolar>
-30.5826

> <Gold.PLP.part.repulsive>
0.5405

> <Gold.PLP.ligand.clash>
1.8829

> <Gold.PLP.ligand.torsion>
0.3793

> <Gold.PLP.Chemscore.Hbond>
0.0000

> <Gold.PLP.Chemscore.CHOScore>
0.0000

> <Gold.PLP.Chemscore.Metal>
0.0000

> <Gold.PLP.Chemscore.Internal.Correction>
   9.000000E+99

