#       Name:                CT1002167954
#       Creating user name   hitesit
#       Creation time:       Sun Apr 16 22:50:14 2023


#       File generated by GOLD software.
#

@<TRIPOS>MOLECULE
CT1002167954|ligand_prepared|mol2|1|dock4
    29    30     1
SMALL
NO_CHARGES


@<TRIPOS>ATOM
      1 C1          21.4434  -9.9005  -2.2720 C.3            1 RES1               0.0000
      2 C2          22.5520 -10.7568  -1.6266 C.ar           1 RES1               0.0000
      3 C3          20.3531  -9.7444  -1.2160 C.2            1 RES1               0.0000
      4 C4          22.1029  -8.5890  -2.6841 C.2            1 RES1               0.0000
      5 C5          20.8170 -10.5375  -3.5343 C.3            1 RES1               0.0000
      6 C6          23.4686 -10.1852  -0.7492 C.ar           1 RES1               0.0000
      7 C7          22.6689 -12.1178  -1.8963 C.ar           1 RES1               0.0000
      8 N8          20.2356  -8.5314  -0.6038 N.am           1 RES1               0.0000
      9 O9          19.6333 -10.6827  -0.8971 O.2            1 RES1               0.0000
     10 N10         21.7035  -7.4423  -2.0491 N.am           1 RES1               0.0000
     11 O11         22.9765  -8.5407  -3.5412 O.2            1 RES1               0.0000
     12 C12         19.9586  -9.5782  -4.3437 C.3            1 RES1               0.0000
     13 C13         24.4642 -10.9470  -0.1604 C.ar           1 RES1               0.0000
     14 C14         23.6655 -12.8778  -1.3066 C.ar           1 RES1               0.0000
     15 C15         20.8218  -7.3583  -1.0061 C.2            1 RES1               0.0000
     16 C16         24.5631 -12.2937  -0.4383 C.ar           1 RES1               0.0000
     17 O17         20.5542  -6.2967  -0.4507 O.2            1 RES1               0.0000
     18 H18         21.6225 -10.9171  -4.1751 H              1 RES1               0.0000
     19 H19         20.2002 -11.3920  -3.2296 H              1 RES1               0.0000
     20 H20         23.4080  -9.1264  -0.5204 H              1 RES1               0.0000
     21 H21         21.9745 -12.5983  -2.5771 H              1 RES1               0.0000
     22 H22         19.6586  -8.4931   0.2304 H              1 RES1               0.0000
     23 H23         22.1002  -6.5705  -2.3851 H              1 RES1               0.0000
     24 H24         19.5436 -10.0756  -5.2178 H              1 RES1               0.0000
     25 H25         19.1326  -9.2005  -3.7446 H              1 RES1               0.0000
     26 H26         20.5465  -8.7284  -4.6845 H              1 RES1               0.0000
     27 H27         25.1690 -10.4823   0.5212 H              1 RES1               0.0000
     28 H28         23.7399 -13.9372  -1.5286 H              1 RES1               0.0000
     29 H29         25.3429 -12.8904   0.0234 H              1 RES1               0.0000
@<TRIPOS>BOND
    1    1    2 1     
    2    1    3 1     
    3    1    4 1     
    4    1    5 1     
    5    2    6 ar    
    6    2    7 ar    
    7    3    8 1     
    8    3    9 2     
    9    4   10 1     
   10    4   11 2     
   11    5   12 1     
   12    5   18 1     
   13    5   19 1     
   14    6   13 ar    
   15    6   20 1     
   16    7   14 ar    
   17    7   21 1     
   18    8   15 1     
   19    8   22 1     
   20   10   15 1     
   21   10   23 1     
   22   12   24 1     
   23   12   25 1     
   24   12   26 1     
   25   13   16 ar    
   26   13   27 1     
   27   14   16 ar    
   28   14   28 1     
   29   15   17 2     
   30   16   29 1     
@<TRIPOS>SUBSTRUCTURE
      1 RES1           1
@<TRIPOS>SET
DONOR_HYDROGENS      STATIC     ATOMS    <user>   **** ""
2 22 23
ATOM$RED        STATIC     ATOMS    COLORGROUP SYSTEM
2 22 23
@<TRIPOS>COMMENT
> <Gold.Version>
2022.3.0

> <Gold.Id.Protein>
unknown|3oxt_clean|pdb

> <Gold.Protein.RotatedTorsions>
[  570  565  563  560 ] final   21.49 input   59.99 | X-H torsion
[  590  585  584  581 ] final  -51.53 input   60.02 | X-H torsion
[ 2787 2780 2778 2775 ] final   83.39 input   60.00 | X-H torsion
[ 2470 2461 2460 2458 ] final  -44.20 input   59.98 | X-H torsion
[ 2545 2534 2533 2532 ] final  -72.26 input   59.97 | X-H torsion
[ 1779 1770 1769 1767 ] final  -78.03 input   59.98 | X-H torsion
[ 5059 5050 5049 5047 ] final   70.12 input   60.00 | X-H torsion

> <Gold.Protein.ActiveResidues>
 THR48   LEU49   GLY50   THR51   GLY52   SER53   PHE54   GLY55   ARG56   VAL57  
 MET58   LEU59   VAL60   HIS68   TYR69   ALA70   MET71   LYS72   ILE73   LEU74  
 ASP75   VAL79   GLU91   LEU95   VAL104  LYS105  MET118  VAL119  MET120  GLU121 
 TYR122  VAL123  PRO124  GLY125  GLY126  GLU127  TYR164  ASP166  LYS168  GLU170 
 ASN171  LEU172  LEU173  ILE174  ASP175  GLN181  VAL182  THR183  ASP184  PHE185 
 GLY186  PHE327  ASP328  TYR330 

> <Gold.Protein.RotatedAtoms>
   21.0717  -12.3851    5.7573 H   0  0  0  0  0  0  0  0  0  0  0  0  # atno 570  bound_to 565 
   18.1749  -11.3113   -1.2769 H   0  0  0  0  0  0  0  0  0  0  0  0  # atno 590  bound_to 585 
   36.3489  -10.4743   10.4738 H   0  0  0  0  0  0  0  0  0  0  0  0  # atno 1779 bound_to 1770
   27.3746   -3.3700   -3.3620 H   0  0  0  0  0  0  0  0  0  0  0  0  # atno 2470 bound_to 2461
   19.6692   -4.1480    1.7003 H   0  0  0  0  0  0  0  0  0  0  0  0  # atno 2545 bound_to 2534
   19.4399   -3.3390    0.2714 H   0  0  0  0  0  0  0  0  0  0  0  0  # atno 2546 bound_to 2534
   20.0837   -4.8666    0.2660 H   0  0  0  0  0  0  0  0  0  0  0  0  # atno 2547 bound_to 2534
   32.4340   -7.6490   -1.0796 H   0  0  0  0  0  0  0  0  0  0  0  0  # atno 2787 bound_to 2780
   24.4371  -10.0257    8.4250 H   0  0  0  0  0  0  0  0  0  0  0  0  # atno 5059 bound_to 5050
   21.2998  -13.2057    7.1440 LP  0  0  0  0  0  0  0  0  0  0  0  0  # atno 5371 bound_to 565 
   20.0097  -13.5363    6.1991 LP  0  0  0  0  0  0  0  0  0  0  0  0  # atno 5372 bound_to 565 
   16.9355  -11.0611   -2.3018 LP  0  0  0  0  0  0  0  0  0  0  0  0  # atno 5375 bound_to 585 
   17.9106  -12.3565   -2.4963 LP  0  0  0  0  0  0  0  0  0  0  0  0  # atno 5376 bound_to 585 
   30.9413   -7.7321   -1.7222 LP  0  0  0  0  0  0  0  0  0  0  0  0  # atno 5395 bound_to 2780
   31.2129   -8.2786   -0.2075 LP  0  0  0  0  0  0  0  0  0  0  0  0  # atno 5396 bound_to 2780
   27.0689   -2.0294   -2.4917 LP  0  0  0  0  0  0  0  0  0  0  0  0  # atno 5401 bound_to 2461
   28.6097   -2.4618   -2.8162 LP  0  0  0  0  0  0  0  0  0  0  0  0  # atno 5402 bound_to 2461
   37.0920  -11.8078   11.0369 LP  0  0  0  0  0  0  0  0  0  0  0  0  # atno 5439 bound_to 1770
   35.6088  -11.9191   10.3630 LP  0  0  0  0  0  0  0  0  0  0  0  0  # atno 5440 bound_to 1770
   24.3894   -9.5684    9.9854 LP  0  0  0  0  0  0  0  0  0  0  0  0  # atno 5465 bound_to 5050
   23.0016   -9.8094    9.1592 LP  0  0  0  0  0  0  0  0  0  0  0  0  # atno 5466 bound_to 5050

> <Gold.Score>
     Fitness  S(hb_ext) S(vdw_ext)  S(hb_int)    S(int)      intcor
     41.81      13.24      20.94       0.00      -0.22      -0.77

> <Gold.Goldscore.Fitness>
41.8066

> <Gold.Goldscore.Internal.Vdw>
-0.3648

> <Gold.Goldscore.Internal.Torsion>
-0.6230

> <Gold.Goldscore.External.Vdw>
20.9383

> <Gold.Goldscore.Internal.HBond>
0.0000

> <Gold.Goldscore.External.HBond>
13.2350

> <Gold.Goldscore.Internal.Correction>
-0.7693

> <Gold.Goldscore.Hbonds>
donor molecule, donor type, donor heavy atom, donor atom, acceptor molecule, acceptor atom, score
      P1  H   580   587       L1     9  0.94
      P1  H   585   590       L1     9  0.27
      P1  H  2534  2547       L1    17  1.00
      L1  H    10    23       P1  2502  0.80

> <Gold.Goldscore.Internal.Vdw.Weighted>
-0.3648

> <Gold.Goldscore.Internal.Torsion.Weighted>
-0.6230

> <Gold.Goldscore.External.Vdw.Weighted>
28.7901

> <Gold.Goldscore.Internal.HBond.Weighted>
0.0000

> <Gold.Goldscore.External.HBond.Weighted>
13.2350

> <Gold.Goldscore.Internal.Correction.Weighted>
-0.7693

> <Gold.Rescore>
     Score     S(PLP)   S(hbond)     S(cho)   S(metal)  DE(clash)   DE(tors)     intcor
     45.38     -36.21       3.69       0.00       0.00       0.00       0.96       ----

> <Gold.PLP.Fitness>
45.3754

> <Gold.PLP.PLP>
-36.2133

> <Gold.PLP.part.hbond>
-5.0000

> <Gold.PLP.part.metal>
0.0000

> <Gold.PLP.part.buried>
-1.4314

> <Gold.PLP.part.nonpolar>
-32.0864

> <Gold.PLP.part.repulsive>
0.6082

> <Gold.PLP.ligand.clash>
0.0000

> <Gold.PLP.ligand.torsion>
0.9584

> <Gold.PLP.Chemscore.Hbond>
3.6930

> <Gold.PLP.Chemscore.CHOScore>
0.0000

> <Gold.PLP.Chemscore.Metal>
0.0000

> <Gold.Chemscore.Hbonds>
donor molecule, donor type, donor heavy atom, donor atom, acceptor molecule, acceptor atom, score
      L1  H    10    23       P1  2502  1.00
      P1  H   580   587       L1     9  0.98
      P1  H   585   590       L1     9  1.00
      P1  H  2534  2547       L1    17  1.00

> <Gold.PLP.Chemscore.Internal.Correction>
   9.000000E+99

