#       Name:                CT1002167954
#       Creating user name   hitesit
#       Creation time:       Sun Apr 16 22:50:20 2023


#       File generated by GOLD software.
#

@<TRIPOS>MOLECULE
CT1002167954|ligand_prepared|mol2|1|dock10
    29    30     1
SMALL
NO_CHARGES


@<TRIPOS>ATOM
      1 C1          26.8811  -9.3733   2.2961 C.3            1 RES1               0.0000
      2 C2          28.3059  -9.5099   1.7216 C.ar           1 RES1               0.0000
      3 C3          25.9409  -9.2988   1.0966 C.2            1 RES1               0.0000
      4 C4          26.6607 -10.5926   3.1846 C.2            1 RES1               0.0000
      5 C5          26.6748  -8.1082   3.1612 C.3            1 RES1               0.0000
      6 C6          29.4155  -9.4645   2.5604 C.ar           1 RES1               0.0000
      7 C7          28.5262  -9.6841   0.3579 C.ar           1 RES1               0.0000
      8 N8          25.1811 -10.3971   0.8202 N.am           1 RES1               0.0000
      9 O9          25.8958  -8.3060   0.3807 O.2            1 RES1               0.0000
     10 N10         25.7078 -11.5008   2.8037 N.am           1 RES1               0.0000
     11 O11         27.3150 -10.7835   4.2022 O.2            1 RES1               0.0000
     12 C12         25.2479  -7.9292   3.6551 C.3            1 RES1               0.0000
     13 C13         30.6986  -9.5917   2.0547 C.ar           1 RES1               0.0000
     14 C14         29.8102  -9.8108  -0.1458 C.ar           1 RES1               0.0000
     15 C15         24.9795 -11.4740   1.6456 C.2            1 RES1               0.0000
     16 C16         30.8968  -9.7653   0.7015 C.ar           1 RES1               0.0000
     17 O17         24.1799 -12.3564   1.3471 O.2            1 RES1               0.0000
     18 H18         27.3447  -8.1603   4.0283 H              1 RES1               0.0000
     19 H19         26.9574  -7.2273   2.5716 H              1 RES1               0.0000
     20 H20         29.2792  -9.3261   3.6278 H              1 RES1               0.0000
     21 H21         27.6863  -9.7218  -0.3276 H              1 RES1               0.0000
     22 H22         24.7204 -10.4199  -0.0840 H              1 RES1               0.0000
     23 H23         25.5244 -12.2678   3.4427 H              1 RES1               0.0000
     24 H24         25.1583  -7.0271   4.2567 H              1 RES1               0.0000
     25 H25         24.5572  -7.8484   2.8183 H              1 RES1               0.0000
     26 H26         24.9422  -8.7758   4.2663 H              1 RES1               0.0000
     27 H27         31.5505  -9.5538   2.7256 H              1 RES1               0.0000
     28 H28         29.9615  -9.9467  -1.2116 H              1 RES1               0.0000
     29 H29         31.9020  -9.8653   0.3056 H              1 RES1               0.0000
@<TRIPOS>BOND
    1    1    2 1     
    2    1    3 1     
    3    1    4 1     
    4    1    5 1     
    5    2    6 ar    
    6    2    7 ar    
    7    3    8 1     
    8    3    9 2     
    9    4   10 1     
   10    4   11 2     
   11    5   12 1     
   12    5   18 1     
   13    5   19 1     
   14    6   13 ar    
   15    6   20 1     
   16    7   14 ar    
   17    7   21 1     
   18    8   15 1     
   19    8   22 1     
   20   10   15 1     
   21   10   23 1     
   22   12   24 1     
   23   12   25 1     
   24   12   26 1     
   25   13   16 ar    
   26   13   27 1     
   27   14   16 ar    
   28   14   28 1     
   29   15   17 2     
   30   16   29 1     
@<TRIPOS>SUBSTRUCTURE
      1 RES1           1
@<TRIPOS>SET
DONOR_HYDROGENS      STATIC     ATOMS    <user>   **** ""
2 22 23
ATOM$RED        STATIC     ATOMS    COLORGROUP SYSTEM
2 22 23
@<TRIPOS>COMMENT
> <Gold.Version>
2022.3.0

> <Gold.Id.Protein>
unknown|3oxt_clean|pdb

> <Gold.Protein.RotatedTorsions>
[  570  565  563  560 ] final  -69.90 input   59.99 | X-H torsion
[  590  585  584  581 ] final -142.32 input   60.02 | X-H torsion
[ 2787 2780 2778 2775 ] final   71.76 input   60.00 | X-H torsion
[ 2470 2461 2460 2458 ] final -128.09 input   59.98 | X-H torsion
[ 2545 2534 2533 2532 ] final   76.86 input   59.97 | X-H torsion
[ 1779 1770 1769 1767 ] final -111.59 input   59.98 | X-H torsion
[ 5059 5050 5049 5047 ] final   98.65 input   60.00 | X-H torsion

> <Gold.Protein.ActiveResidues>
 THR48   LEU49   GLY50   THR51   GLY52   SER53   PHE54   GLY55   ARG56   VAL57  
 MET58   LEU59   VAL60   HIS68   TYR69   ALA70   MET71   LYS72   ILE73   LEU74  
 ASP75   VAL79   GLU91   LEU95   VAL104  LYS105  MET118  VAL119  MET120  GLU121 
 TYR122  VAL123  PRO124  GLY125  GLY126  GLU127  TYR164  ASP166  LYS168  GLU170 
 ASN171  LEU172  LEU173  ILE174  ASP175  GLN181  VAL182  THR183  ASP184  PHE185 
 GLY186  PHE327  ASP328  TYR330 

> <Gold.Protein.RotatedAtoms>
   21.5282  -12.8685    6.9209 H   0  0  0  0  0  0  0  0  0  0  0  0  # atno 570  bound_to 565 
   17.1076  -10.8374   -1.9212 H   0  0  0  0  0  0  0  0  0  0  0  0  # atno 590  bound_to 585 
   36.8192  -10.5930   10.7122 H   0  0  0  0  0  0  0  0  0  0  0  0  # atno 1779 bound_to 1770
   26.7723   -2.4541   -2.7575 H   0  0  0  0  0  0  0  0  0  0  0  0  # atno 2470 bound_to 2461
   19.5929   -3.6398   -0.0715 H   0  0  0  0  0  0  0  0  0  0  0  0  # atno 2545 bound_to 2534
   20.1038   -4.9996    0.7277 H   0  0  0  0  0  0  0  0  0  0  0  0  # atno 2546 bound_to 2534
   19.4963   -3.7147    1.5809 H   0  0  0  0  0  0  0  0  0  0  0  0  # atno 2547 bound_to 2534
   32.3841   -7.5907   -1.2531 H   0  0  0  0  0  0  0  0  0  0  0  0  # atno 2787 bound_to 2780
   23.9975  -10.0646    8.2916 H   0  0  0  0  0  0  0  0  0  0  0  0  # atno 5059 bound_to 5050
   20.1684  -13.7044    6.6037 LP  0  0  0  0  0  0  0  0  0  0  0  0  # atno 5371 bound_to 565 
   20.6814  -12.5509    5.5680 LP  0  0  0  0  0  0  0  0  0  0  0  0  # atno 5372 bound_to 565 
   17.5302  -12.1875   -2.7260 LP  0  0  0  0  0  0  0  0  0  0  0  0  # atno 5375 bound_to 585 
   18.3902  -11.7071   -1.4235 LP  0  0  0  0  0  0  0  0  0  0  0  0  # atno 5376 bound_to 585 
   30.8104   -7.8085   -1.6057 LP  0  0  0  0  0  0  0  0  0  0  0  0  # atno 5395 bound_to 2780
   31.3940   -8.2609   -0.1492 LP  0  0  0  0  0  0  0  0  0  0  0  0  # atno 5396 bound_to 2780
   28.3286   -2.0343   -2.5340 LP  0  0  0  0  0  0  0  0  0  0  0  0  # atno 5401 bound_to 2461
   27.9565   -3.3790   -3.3825 LP  0  0  0  0  0  0  0  0  0  0  0  0  # atno 5402 bound_to 2461
   36.7324  -12.2029   10.9325 LP  0  0  0  0  0  0  0  0  0  0  0  0  # atno 5439 bound_to 1770
   35.4948  -11.4044   10.2273 LP  0  0  0  0  0  0  0  0  0  0  0  0  # atno 5440 bound_to 1770
   24.7322   -9.6562    9.6843 LP  0  0  0  0  0  0  0  0  0  0  0  0  # atno 5465 bound_to 5050
   23.1019   -9.6823    9.5948 LP  0  0  0  0  0  0  0  0  0  0  0  0  # atno 5466 bound_to 5050

> <Gold.Score>
     Fitness  S(hb_ext) S(vdw_ext)  S(hb_int)    S(int)      intcor
     35.07       0.08      26.86       0.00      -1.93      -0.76

> <Gold.Goldscore.Fitness>
35.0740

> <Gold.Goldscore.Internal.Vdw>
-2.2977

> <Gold.Goldscore.Internal.Torsion>
-0.3902

> <Gold.Goldscore.External.Vdw>
26.8559

> <Gold.Goldscore.Internal.HBond>
0.0000

> <Gold.Goldscore.External.HBond>
0.0765

> <Gold.Goldscore.Internal.Correction>
-0.7585

> <Gold.Goldscore.Hbonds>
donor molecule, donor type, donor heavy atom, donor atom, acceptor molecule, acceptor atom, score
      L1  H    10    23       P1   555  0.04

> <Gold.Goldscore.Internal.Vdw.Weighted>
-2.2977

> <Gold.Goldscore.Internal.Torsion.Weighted>
-0.3902

> <Gold.Goldscore.External.Vdw.Weighted>
36.9269

> <Gold.Goldscore.Internal.HBond.Weighted>
0.0000

> <Gold.Goldscore.External.HBond.Weighted>
0.0765

> <Gold.Goldscore.Internal.Correction.Weighted>
-0.7585

> <Gold.Rescore>
     Score     S(PLP)   S(hbond)     S(cho)   S(metal)  DE(clash)   DE(tors)     intcor
     29.42     -30.86       0.00       0.00       0.00       1.21       0.12       ----

> <Gold.PLP.Fitness>
29.4161

> <Gold.PLP.PLP>
-30.8616

> <Gold.PLP.part.hbond>
0.0000

> <Gold.PLP.part.metal>
0.0000

> <Gold.PLP.part.buried>
0.3209

> <Gold.PLP.part.nonpolar>
-32.3300

> <Gold.PLP.part.repulsive>
0.5950

> <Gold.PLP.ligand.clash>
1.2061

> <Gold.PLP.ligand.torsion>
0.1197

> <Gold.PLP.Chemscore.Hbond>
0.0000

> <Gold.PLP.Chemscore.CHOScore>
0.0000

> <Gold.PLP.Chemscore.Metal>
0.0000

> <Gold.PLP.Chemscore.Internal.Correction>
   9.000000E+99

