#       Name:                CT1002167954
#       Creating user name   hitesit
#       Creation time:       Sun Apr 16 22:50:11 2023


#       File generated by GOLD software.
#

@<TRIPOS>MOLECULE
CT1002167954|ligand_prepared|mol2|1|dock2
    29    30     1
SMALL
NO_CHARGES


@<TRIPOS>ATOM
      1 C1          25.2905  -9.8710   1.9735 C.3            1 RES1               0.0000
      2 C2          24.8477 -10.9832   1.0010 C.ar           1 RES1               0.0000
      3 C3          25.6771 -10.5684   3.2745 C.2            1 RES1               0.0000
      4 C4          26.4433  -9.1423   1.2919 C.2            1 RES1               0.0000
      5 C5          24.1854  -8.8341   2.2817 C.3            1 RES1               0.0000
      6 C6          24.3931 -10.6682  -0.2760 C.ar           1 RES1               0.0000
      7 C7          24.8905 -12.3264   1.3650 C.ar           1 RES1               0.0000
      8 N8          27.0049 -10.6610   3.5713 N.am           1 RES1               0.0000
      9 O9          24.8319 -11.0645   4.0092 O.2            1 RES1               0.0000
     10 N10         27.6848  -9.2261   1.8659 N.am           1 RES1               0.0000
     11 O11         26.2911  -8.5102   0.2539 O.2            1 RES1               0.0000
     12 C12         24.6279  -7.7294   3.2284 C.3            1 RES1               0.0000
     13 C13         23.9984 -11.6601  -1.1584 C.ar           1 RES1               0.0000
     14 C14         24.4952 -13.3169   0.4811 C.ar           1 RES1               0.0000
     15 C15         28.0239  -9.9777   2.9578 C.2            1 RES1               0.0000
     16 C16         24.0496 -12.9850  -0.7807 C.ar           1 RES1               0.0000
     17 O17         29.1738 -10.0451   3.3825 O.2            1 RES1               0.0000
     18 H18         23.8544  -8.3801   1.3395 H              1 RES1               0.0000
     19 H19         23.3263  -9.3542   2.7232 H              1 RES1               0.0000
     20 H20         24.3435  -9.6309  -0.5901 H              1 RES1               0.0000
     21 H21         25.2365 -12.6109   2.3529 H              1 RES1               0.0000
     22 H22         27.2643 -11.2972   4.3186 H              1 RES1               0.0000
     23 H23         28.4247  -8.6771   1.4397 H              1 RES1               0.0000
     24 H24         23.8153  -7.0294   3.4110 H              1 RES1               0.0000
     25 H25         24.9401  -8.1433   4.1850 H              1 RES1               0.0000
     26 H26         25.4651  -7.1750   2.8095 H              1 RES1               0.0000
     27 H27         23.6472 -11.3936  -2.1498 H              1 RES1               0.0000
     28 H28         24.5365 -14.3583   0.7828 H              1 RES1               0.0000
     29 H29         23.7408 -13.7619  -1.4722 H              1 RES1               0.0000
@<TRIPOS>BOND
    1    1    2 1     
    2    1    3 1     
    3    1    4 1     
    4    1    5 1     
    5    2    6 ar    
    6    2    7 ar    
    7    3    8 1     
    8    3    9 2     
    9    4   10 1     
   10    4   11 2     
   11    5   12 1     
   12    5   18 1     
   13    5   19 1     
   14    6   13 ar    
   15    6   20 1     
   16    7   14 ar    
   17    7   21 1     
   18    8   15 1     
   19    8   22 1     
   20   10   15 1     
   21   10   23 1     
   22   12   24 1     
   23   12   25 1     
   24   12   26 1     
   25   13   16 ar    
   26   13   27 1     
   27   14   16 ar    
   28   14   28 1     
   29   15   17 2     
   30   16   29 1     
@<TRIPOS>SUBSTRUCTURE
      1 RES1           1
@<TRIPOS>SET
DONOR_HYDROGENS      STATIC     ATOMS    <user>   **** ""
2 22 23
ATOM$RED        STATIC     ATOMS    COLORGROUP SYSTEM
2 22 23
@<TRIPOS>COMMENT
> <Gold.Version>
2022.3.0

> <Gold.Id.Protein>
unknown|3oxt_clean|pdb

> <Gold.Protein.RotatedTorsions>
[  570  565  563  560 ] final -142.58 input   59.99 | X-H torsion
[  590  585  584  581 ] final  103.14 input   60.02 | X-H torsion
[ 2787 2780 2778 2775 ] final -170.06 input   60.00 | X-H torsion
[ 2470 2461 2460 2458 ] final   16.79 input   59.98 | X-H torsion
[ 2545 2534 2533 2532 ] final   58.50 input   59.97 | X-H torsion
[ 1779 1770 1769 1767 ] final   83.49 input   59.98 | X-H torsion
[ 5059 5050 5049 5047 ] final   19.19 input   60.00 | X-H torsion

> <Gold.Protein.ActiveResidues>
 THR48   LEU49   GLY50   THR51   GLY52   SER53   PHE54   GLY55   ARG56   VAL57  
 MET58   LEU59   VAL60   HIS68   TYR69   ALA70   MET71   LYS72   ILE73   LEU74  
 ASP75   VAL79   GLU91   LEU95   VAL104  LYS105  MET118  VAL119  MET120  GLU121 
 TYR122  VAL123  PRO124  GLY125  GLY126  GLU127  TYR164  ASP166  LYS168  GLU170 
 ASN171  LEU172  LEU173  ILE174  ASP175  GLN181  VAL182  THR183  ASP184  PHE185 
 GLY186  PHE327  ASP328  TYR330 

> <Gold.Protein.RotatedAtoms>
   20.7326  -13.6220    7.0972 H   0  0  0  0  0  0  0  0  0  0  0  0  # atno 570  bound_to 565 
   17.4603  -12.1342   -2.7440 H   0  0  0  0  0  0  0  0  0  0  0  0  # atno 590  bound_to 585 
   36.0827  -12.2952   10.6416 H   0  0  0  0  0  0  0  0  0  0  0  0  # atno 1779 bound_to 1770
   28.3064   -3.2012   -3.2830 H   0  0  0  0  0  0  0  0  0  0  0  0  # atno 2470 bound_to 2461
   19.4895   -3.4306    0.1254 H   0  0  0  0  0  0  0  0  0  0  0  0  # atno 2545 bound_to 2534
   20.1025   -4.9411    0.4278 H   0  0  0  0  0  0  0  0  0  0  0  0  # atno 2546 bound_to 2534
   19.6010   -3.9823    1.6838 H   0  0  0  0  0  0  0  0  0  0  0  0  # atno 2547 bound_to 2534
   31.4233   -8.2522   -0.1485 H   0  0  0  0  0  0  0  0  0  0  0  0  # atno 2787 bound_to 2780
   24.8720   -9.8362    9.0746 H   0  0  0  0  0  0  0  0  0  0  0  0  # atno 5059 bound_to 5050
   20.1390  -13.0646    5.6881 LP  0  0  0  0  0  0  0  0  0  0  0  0  # atno 5371 bound_to 565 
   21.5118  -12.4322    6.3062 LP  0  0  0  0  0  0  0  0  0  0  0  0  # atno 5372 bound_to 565 
   18.4103  -11.7810   -1.4704 LP  0  0  0  0  0  0  0  0  0  0  0  0  # atno 5375 bound_to 585 
   17.1551  -10.8082   -1.8509 LP  0  0  0  0  0  0  0  0  0  0  0  0  # atno 5376 bound_to 585 
   32.3794   -7.5824   -1.2822 LP  0  0  0  0  0  0  0  0  0  0  0  0  # atno 5395 bound_to 2780
   30.7926   -7.8208   -1.5852 LP  0  0  0  0  0  0  0  0  0  0  0  0  # atno 5396 bound_to 2780
   26.7609   -2.7968   -2.9729 LP  0  0  0  0  0  0  0  0  0  0  0  0  # atno 5401 bound_to 2461
   27.9796   -1.8644   -2.4145 LP  0  0  0  0  0  0  0  0  0  0  0  0  # atno 5402 bound_to 2461
   35.7806  -10.7438   10.2547 LP  0  0  0  0  0  0  0  0  0  0  0  0  # atno 5439 bound_to 1770
   37.1883  -11.1492   10.9763 LP  0  0  0  0  0  0  0  0  0  0  0  0  # atno 5440 bound_to 1770
   23.5796   -9.5576   10.0225 LP  0  0  0  0  0  0  0  0  0  0  0  0  # atno 5465 bound_to 5050
   23.3730  -10.0112    8.4674 LP  0  0  0  0  0  0  0  0  0  0  0  0  # atno 5466 bound_to 5050

> <Gold.Score>
     Fitness  S(hb_ext) S(vdw_ext)  S(hb_int)    S(int)      intcor
     31.23       0.00      24.70       0.00      -2.73      -0.77

> <Gold.Goldscore.Fitness>
31.2291

> <Gold.Goldscore.Internal.Vdw>
-3.1307

> <Gold.Goldscore.Internal.Torsion>
-0.3676

> <Gold.Goldscore.External.Vdw>
24.6968

> <Gold.Goldscore.Internal.HBond>
0.0000

> <Gold.Goldscore.External.HBond>
0.0000

> <Gold.Goldscore.Internal.Correction>
-0.7693

> <Gold.Goldscore.Internal.Vdw.Weighted>
-3.1307

> <Gold.Goldscore.Internal.Torsion.Weighted>
-0.3676

> <Gold.Goldscore.External.Vdw.Weighted>
33.9581

> <Gold.Goldscore.Internal.HBond.Weighted>
0.0000

> <Gold.Goldscore.External.HBond.Weighted>
0.0000

> <Gold.Goldscore.Internal.Correction.Weighted>
-0.7693

> <Gold.Rescore>
     Score     S(PLP)   S(hbond)     S(cho)   S(metal)  DE(clash)   DE(tors)     intcor
     31.67     -33.86       0.00       0.00       0.00       1.20       0.49       ----

> <Gold.PLP.Fitness>
31.6733

> <Gold.PLP.PLP>
-33.8613

> <Gold.PLP.part.hbond>
-1.0000

> <Gold.PLP.part.metal>
0.0000

> <Gold.PLP.part.buried>
-4.4060

> <Gold.PLP.part.nonpolar>
-30.4122

> <Gold.PLP.part.repulsive>
1.6617

> <Gold.PLP.ligand.clash>
1.2028

> <Gold.PLP.ligand.torsion>
0.4926

> <Gold.PLP.Chemscore.Hbond>
0.0000

> <Gold.PLP.Chemscore.CHOScore>
0.0000

> <Gold.PLP.Chemscore.Metal>
0.0000

> <Gold.PLP.Chemscore.Internal.Correction>
   9.000000E+99

