#       Name:                CT1002167954
#       Creating user name   hitesit
#       Creation time:       Sun Apr 16 22:50:13 2023


#       File generated by GOLD software.
#

@<TRIPOS>MOLECULE
CT1002167954|ligand_prepared|mol2|1|dock3
    29    30     1
SMALL
NO_CHARGES


@<TRIPOS>ATOM
      1 C1          21.3046  -8.8118  -0.2586 C.3            1 RES1               0.0000
      2 C2          22.2985  -9.9034  -0.7054 C.ar           1 RES1               0.0000
      3 C3          21.8277  -7.4968  -0.8289 C.2            1 RES1               0.0000
      4 C4          19.9420  -9.2273  -0.8021 C.2            1 RES1               0.0000
      5 C5          21.1831  -8.6678   1.2763 C.3            1 RES1               0.0000
      6 C6          22.1536 -10.5318  -1.9386 C.ar           1 RES1               0.0000
      7 C7          23.3647 -10.2900   0.1023 C.ar           1 RES1               0.0000
      8 N8          21.1620  -6.9594  -1.8910 N.am           1 RES1               0.0000
      9 O9          22.8324  -6.9598  -0.3788 O.2            1 RES1               0.0000
     10 N10         19.3627  -8.4340  -1.7576 N.am           1 RES1               0.0000
     11 O11         19.3723 -10.2434  -0.4236 O.2            1 RES1               0.0000
     12 C12         20.0406  -7.7674   1.7191 C.3            1 RES1               0.0000
     13 C13         23.0441 -11.5092  -2.3509 C.ar           1 RES1               0.0000
     14 C14         24.2540 -11.2678  -0.3119 C.ar           1 RES1               0.0000
     15 C15         19.9248  -7.3356  -2.3488 C.2            1 RES1               0.0000
     16 C16         24.0950 -11.8776  -1.5381 C.ar           1 RES1               0.0000
     17 O17         19.3639  -6.7052  -3.2405 O.2            1 RES1               0.0000
     18 H18         21.0381  -9.6632   1.7140 H              1 RES1               0.0000
     19 H19         22.1241  -8.2629   1.6686 H              1 RES1               0.0000
     20 H20         21.3313 -10.2568  -2.5906 H              1 RES1               0.0000
     21 H21         23.5087  -9.8247   1.0715 H              1 RES1               0.0000
     22 H22         21.6270  -6.2084  -2.3911 H              1 RES1               0.0000
     23 H23         18.4256  -8.6856  -2.0555 H              1 RES1               0.0000
     24 H24         20.0002  -7.7009   2.8043 H              1 RES1               0.0000
     25 H25         20.1658  -6.7620   1.3224 H              1 RES1               0.0000
     26 H26         19.0862  -8.1541   1.3675 H              1 RES1               0.0000
     27 H27         22.9138 -11.9870  -3.3162 H              1 RES1               0.0000
     28 H28         25.0793 -11.5550   0.3313 H              1 RES1               0.0000
     29 H29         24.7927 -12.6430  -1.8615 H              1 RES1               0.0000
@<TRIPOS>BOND
    1    1    2 1     
    2    1    3 1     
    3    1    4 1     
    4    1    5 1     
    5    2    6 ar    
    6    2    7 ar    
    7    3    8 1     
    8    3    9 2     
    9    4   10 1     
   10    4   11 2     
   11    5   12 1     
   12    5   18 1     
   13    5   19 1     
   14    6   13 ar    
   15    6   20 1     
   16    7   14 ar    
   17    7   21 1     
   18    8   15 1     
   19    8   22 1     
   20   10   15 1     
   21   10   23 1     
   22   12   24 1     
   23   12   25 1     
   24   12   26 1     
   25   13   16 ar    
   26   13   27 1     
   27   14   16 ar    
   28   14   28 1     
   29   15   17 2     
   30   16   29 1     
@<TRIPOS>SUBSTRUCTURE
      1 RES1           1
@<TRIPOS>SET
DONOR_HYDROGENS      STATIC     ATOMS    <user>   **** ""
2 22 23
ATOM$RED        STATIC     ATOMS    COLORGROUP SYSTEM
2 22 23
@<TRIPOS>COMMENT
> <Gold.Version>
2022.3.0

> <Gold.Id.Protein>
unknown|3oxt_clean|pdb

> <Gold.Protein.RotatedTorsions>
[  570  565  563  560 ] final   63.04 input   59.99 | X-H torsion
[  590  585  584  581 ] final -157.57 input   60.02 | X-H torsion
[ 2787 2780 2778 2775 ] final  175.95 input   60.00 | X-H torsion
[ 2470 2461 2460 2458 ] final  -39.39 input   59.98 | X-H torsion
[ 2545 2534 2533 2532 ] final  149.63 input   59.97 | X-H torsion
[ 1779 1770 1769 1767 ] final  -23.48 input   59.98 | X-H torsion
[ 5059 5050 5049 5047 ] final  -67.62 input   60.00 | X-H torsion

> <Gold.Protein.ActiveResidues>
 THR48   LEU49   GLY50   THR51   GLY52   SER53   PHE54   GLY55   ARG56   VAL57  
 MET58   LEU59   VAL60   HIS68   TYR69   ALA70   MET71   LYS72   ILE73   LEU74  
 ASP75   VAL79   GLU91   LEU95   VAL104  LYS105  MET118  VAL119  MET120  GLU121 
 TYR122  VAL123  PRO124  GLY125  GLY126  GLU127  TYR164  ASP166  LYS168  GLU170 
 ASN171  LEU172  LEU173  ILE174  ASP175  GLN181  VAL182  THR183  ASP184  PHE185 
 GLY186  PHE327  ASP328  TYR330 

> <Gold.Protein.RotatedAtoms>
   20.5114  -12.6762    5.5507 H   0  0  0  0  0  0  0  0  0  0  0  0  # atno 570  bound_to 565 
   16.9979  -10.9359   -2.1213 H   0  0  0  0  0  0  0  0  0  0  0  0  # atno 590  bound_to 585 
   35.6569  -10.9145   10.2216 H   0  0  0  0  0  0  0  0  0  0  0  0  # atno 1779 bound_to 1770
   27.4498   -3.3882   -3.3759 H   0  0  0  0  0  0  0  0  0  0  0  0  # atno 2470 bound_to 2461
   20.0248   -4.6846    0.0328 H   0  0  0  0  0  0  0  0  0  0  0  0  # atno 2545 bound_to 2534
   19.7880   -4.4205    1.6524 H   0  0  0  0  0  0  0  0  0  0  0  0  # atno 2546 bound_to 2534
   19.3803   -3.2493    0.5523 H   0  0  0  0  0  0  0  0  0  0  0  0  # atno 2547 bound_to 2534
   31.6464   -8.2083   -0.1318 H   0  0  0  0  0  0  0  0  0  0  0  0  # atno 2787 bound_to 2780
   24.1138   -9.5455   10.0714 H   0  0  0  0  0  0  0  0  0  0  0  0  # atno 5059 bound_to 5050
   21.5793  -12.7207    6.7779 LP  0  0  0  0  0  0  0  0  0  0  0  0  # atno 5371 bound_to 565 
   20.2942  -13.7282    6.7732 LP  0  0  0  0  0  0  0  0  0  0  0  0  # atno 5372 bound_to 565 
   17.7305  -12.2990   -2.6256 LP  0  0  0  0  0  0  0  0  0  0  0  0  # atno 5375 bound_to 585 
   18.3005  -11.4965   -1.3226 LP  0  0  0  0  0  0  0  0  0  0  0  0  # atno 5376 bound_to 585 
   32.2663   -7.5306   -1.4752 LP  0  0  0  0  0  0  0  0  0  0  0  0  # atno 5395 bound_to 2780
   30.6811   -7.9169   -1.4090 LP  0  0  0  0  0  0  0  0  0  0  0  0  # atno 5396 bound_to 2780
   27.0112   -2.0757   -2.5195 LP  0  0  0  0  0  0  0  0  0  0  0  0  # atno 5401 bound_to 2461
   28.5918   -2.3972   -2.7743 LP  0  0  0  0  0  0  0  0  0  0  0  0  # atno 5402 bound_to 2461
   37.1278  -10.9528   10.9165 LP  0  0  0  0  0  0  0  0  0  0  0  0  # atno 5439 bound_to 1770
   36.2700  -12.3308   10.7374 LP  0  0  0  0  0  0  0  0  0  0  0  0  # atno 5440 bound_to 1770
   23.0555   -9.8894    8.8849 LP  0  0  0  0  0  0  0  0  0  0  0  0  # atno 5465 bound_to 5050
   24.6613   -9.9724    8.6003 LP  0  0  0  0  0  0  0  0  0  0  0  0  # atno 5466 bound_to 5050

> <Gold.Score>
     Fitness  S(hb_ext) S(vdw_ext)  S(hb_int)    S(int)      intcor
     31.90       8.08      17.54       0.00      -0.30      -0.77

> <Gold.Goldscore.Fitness>
31.8970

> <Gold.Goldscore.Internal.Vdw>
-0.5535

> <Gold.Goldscore.Internal.Torsion>
-0.5183

> <Gold.Goldscore.External.Vdw>
17.5434

> <Gold.Goldscore.Internal.HBond>
0.0000

> <Gold.Goldscore.External.HBond>
8.0773

> <Gold.Goldscore.Internal.Correction>
-0.7693

> <Gold.Goldscore.Hbonds>
donor molecule, donor type, donor heavy atom, donor atom, acceptor molecule, acceptor atom, score
      P1  H   580   587       L1    11  1.00
      P1  H  2583  2589       L1     9  0.04
      L1  H     8    22       P1  2502  1.00

> <Gold.Goldscore.Internal.Vdw.Weighted>
-0.5535

> <Gold.Goldscore.Internal.Torsion.Weighted>
-0.5183

> <Gold.Goldscore.External.Vdw.Weighted>
24.1222

> <Gold.Goldscore.Internal.HBond.Weighted>
0.0000

> <Gold.Goldscore.External.HBond.Weighted>
8.0773

> <Gold.Goldscore.Internal.Correction.Weighted>
-0.7693

> <Gold.Rescore>
     Score     S(PLP)   S(hbond)     S(cho)   S(metal)  DE(clash)   DE(tors)     intcor
     27.89     -24.54       1.81       0.00       0.00       0.01       1.03       ----

> <Gold.PLP.Fitness>
27.8942

> <Gold.PLP.PLP>
-24.5408

> <Gold.PLP.part.hbond>
-2.9127

> <Gold.PLP.part.metal>
0.0000

> <Gold.PLP.part.buried>
-4.8094

> <Gold.PLP.part.nonpolar>
-18.6910

> <Gold.PLP.part.repulsive>
1.4446

> <Gold.PLP.ligand.clash>
0.0143

> <Gold.PLP.ligand.torsion>
1.0349

> <Gold.PLP.Chemscore.Hbond>
1.8125

> <Gold.PLP.Chemscore.CHOScore>
0.0000

> <Gold.PLP.Chemscore.Metal>
0.0000

> <Gold.Chemscore.Hbonds>
donor molecule, donor type, donor heavy atom, donor atom, acceptor molecule, acceptor atom, score
      L1  H     8    22       P1  2502  1.00
      P1  H   580   587       L1    11  1.00

> <Gold.PLP.Chemscore.Internal.Correction>
   9.000000E+99

