#       Name:                CT1002167954
#       Creating user name   hitesit
#       Creation time:       Sun Apr 16 22:50:16 2023


#       File generated by GOLD software.
#

@<TRIPOS>MOLECULE
CT1002167954|ligand_prepared|mol2|1|dock6
    29    30     1
SMALL
NO_CHARGES


@<TRIPOS>ATOM
      1 C1          20.9933  -9.7983  -2.3002 C.3            1 RES1               0.0000
      2 C2          22.0395 -10.7336  -1.6602 C.ar           1 RES1               0.0000
      3 C3          19.9257  -9.5583  -1.2368 C.2            1 RES1               0.0000
      4 C4          21.7460  -8.5409  -2.7211 C.2            1 RES1               0.0000
      5 C5          20.3116 -10.3899  -3.5560 C.3            1 RES1               0.0000
      6 C6          22.2162 -12.0296  -2.1353 C.ar           1 RES1               0.0000
      7 C7          22.8356 -10.3144  -0.5976 C.ar           1 RES1               0.0000
      8 N8          19.9038  -8.3384  -0.6275 N.am           1 RES1               0.0000
      9 O9          19.1401 -10.4393  -0.9098 O.2            1 RES1               0.0000
     10 N10         21.4383  -7.3659  -2.0867 N.am           1 RES1               0.0000
     11 O11         22.6144  -8.5602  -3.5846 O.2            1 RES1               0.0000
     12 C12         19.3256  -9.4430  -4.2218 C.3            1 RES1               0.0000
     13 C13         23.1568 -12.8751  -1.5707 C.ar           1 RES1               0.0000
     14 C14         23.7756 -11.1616  -0.0343 C.ar           1 RES1               0.0000
     15 C15         20.5731  -7.2135  -1.0377 C.2            1 RES1               0.0000
     16 C16         23.9374 -12.4416  -0.5203 C.ar           1 RES1               0.0000
     17 O17         20.3898  -6.1334  -0.4836 O.2            1 RES1               0.0000
     18 H18         21.0864 -10.6617  -4.2834 H              1 RES1               0.0000
     19 H19         19.7824 -11.3076  -3.2712 H              1 RES1               0.0000
     20 H20         21.6094 -12.3892  -2.9597 H              1 RES1               0.0000
     21 H21         22.7250  -9.3119  -0.1983 H              1 RES1               0.0000
     22 H22         19.3375  -8.2549   0.2108 H              1 RES1               0.0000
     23 H23         21.8966  -6.5270  -2.4283 H              1 RES1               0.0000
     24 H24         18.8761  -9.9072  -5.0972 H              1 RES1               0.0000
     25 H25         18.5271  -9.1716  -3.5345 H              1 RES1               0.0000
     26 H26         19.8234  -8.5295  -4.5407 H              1 RES1               0.0000
     27 H27         23.2793 -13.8819  -1.9559 H              1 RES1               0.0000
     28 H28         24.3873 -10.8164   0.7927 H              1 RES1               0.0000
     29 H29         24.6744 -13.1039  -0.0784 H              1 RES1               0.0000
@<TRIPOS>BOND
    1    1    2 1     
    2    1    3 1     
    3    1    4 1     
    4    1    5 1     
    5    2    6 ar    
    6    2    7 ar    
    7    3    8 1     
    8    3    9 2     
    9    4   10 1     
   10    4   11 2     
   11    5   12 1     
   12    5   18 1     
   13    5   19 1     
   14    6   13 ar    
   15    6   20 1     
   16    7   14 ar    
   17    7   21 1     
   18    8   15 1     
   19    8   22 1     
   20   10   15 1     
   21   10   23 1     
   22   12   24 1     
   23   12   25 1     
   24   12   26 1     
   25   13   16 ar    
   26   13   27 1     
   27   14   16 ar    
   28   14   28 1     
   29   15   17 2     
   30   16   29 1     
@<TRIPOS>SUBSTRUCTURE
      1 RES1           1
@<TRIPOS>SET
DONOR_HYDROGENS      STATIC     ATOMS    <user>   **** ""
2 22 23
ATOM$RED        STATIC     ATOMS    COLORGROUP SYSTEM
2 22 23
@<TRIPOS>COMMENT
> <Gold.Version>
2022.3.0

> <Gold.Id.Protein>
unknown|3oxt_clean|pdb

> <Gold.Protein.RotatedTorsions>
[  570  565  563  560 ] final -139.35 input   59.99 | X-H torsion
[  590  585  584  581 ] final   12.18 input   60.02 | X-H torsion
[ 2787 2780 2778 2775 ] final -101.70 input   60.00 | X-H torsion
[ 2470 2461 2460 2458 ] final -158.15 input   59.98 | X-H torsion
[ 2545 2534 2533 2532 ] final  174.83 input   59.97 | X-H torsion
[ 1779 1770 1769 1767 ] final  175.76 input   59.98 | X-H torsion
[ 5059 5050 5049 5047 ] final   -7.32 input   60.00 | X-H torsion

> <Gold.Protein.ActiveResidues>
 THR48   LEU49   GLY50   THR51   GLY52   SER53   PHE54   GLY55   ARG56   VAL57  
 MET58   LEU59   VAL60   HIS68   TYR69   ALA70   MET71   LYS72   ILE73   LEU74  
 ASP75   VAL79   GLU91   LEU95   VAL104  LYS105  MET118  VAL119  MET120  GLU121 
 TYR122  VAL123  PRO124  GLY125  GLY126  GLU127  TYR164  ASP166  LYS168  GLU170 
 ASN171  LEU172  LEU173  ILE174  ASP175  GLN181  VAL182  THR183  ASP184  PHE185 
 GLY186  PHE327  ASP328  TYR330 

> <Gold.Protein.RotatedAtoms>
   20.7771  -13.6006    7.1160 H   0  0  0  0  0  0  0  0  0  0  0  0  # atno 570  bound_to 565 
   18.3972  -12.1251   -1.7921 H   0  0  0  0  0  0  0  0  0  0  0  0  # atno 590  bound_to 585 
   37.1675  -11.5951   11.0353 H   0  0  0  0  0  0  0  0  0  0  0  0  # atno 1779 bound_to 1770
   27.0017   -2.0904   -2.5319 H   0  0  0  0  0  0  0  0  0  0  0  0  # atno 2470 bound_to 2461
   20.0971   -4.9187    0.3708 H   0  0  0  0  0  0  0  0  0  0  0  0  # atno 2545 bound_to 2534
   19.6240   -4.0387    1.6939 H   0  0  0  0  0  0  0  0  0  0  0  0  # atno 2546 bound_to 2534
   19.4720   -3.3970    0.1729 H   0  0  0  0  0  0  0  0  0  0  0  0  # atno 2547 bound_to 2534
   30.6458   -8.1473   -0.8492 H   0  0  0  0  0  0  0  0  0  0  0  0  # atno 2787 bound_to 2780
   24.8273   -9.7167    9.4842 H   0  0  0  0  0  0  0  0  0  0  0  0  # atno 5059 bound_to 5050
   20.1146  -13.1034    5.7152 LP  0  0  0  0  0  0  0  0  0  0  0  0  # atno 5371 bound_to 565 
   21.4914  -12.4149    6.2602 LP  0  0  0  0  0  0  0  0  0  0  0  0  # atno 5372 bound_to 565 
   17.4867  -10.8050   -1.5140 LP  0  0  0  0  0  0  0  0  0  0  0  0  # atno 5375 bound_to 585 
   17.1356  -11.7935   -2.7655 LP  0  0  0  0  0  0  0  0  0  0  0  0  # atno 5376 bound_to 585 
   32.1826   -8.0084   -0.3324 LP  0  0  0  0  0  0  0  0  0  0  0  0  # atno 5395 bound_to 2780
   31.7725   -7.5005   -1.8292 LP  0  0  0  0  0  0  0  0  0  0  0  0  # atno 5396 bound_to 2780
   28.5861   -2.3807   -2.7636 LP  0  0  0  0  0  0  0  0  0  0  0  0  # atno 5401 bound_to 2461
   27.4679   -3.3988   -3.3799 LP  0  0  0  0  0  0  0  0  0  0  0  0  # atno 5402 bound_to 2461
   35.7326  -12.0886   10.4479 LP  0  0  0  0  0  0  0  0  0  0  0  0  # atno 5439 bound_to 1770
   36.1437  -10.5095   10.3865 LP  0  0  0  0  0  0  0  0  0  0  0  0  # atno 5440 bound_to 1770
   23.2298   -9.6287    9.7786 LP  0  0  0  0  0  0  0  0  0  0  0  0  # atno 5465 bound_to 5050
   23.7679  -10.0605    8.2985 LP  0  0  0  0  0  0  0  0  0  0  0  0  # atno 5466 bound_to 5050

> <Gold.Score>
     Fitness  S(hb_ext) S(vdw_ext)  S(hb_int)    S(int)      intcor
     41.22      12.62      21.35       0.00      -0.76      -0.77

> <Gold.Goldscore.Fitness>
41.2204

> <Gold.Goldscore.Internal.Vdw>
-1.1558

> <Gold.Goldscore.Internal.Torsion>
-0.3764

> <Gold.Goldscore.External.Vdw>
21.3528

> <Gold.Goldscore.Internal.HBond>
0.0000

> <Gold.Goldscore.External.HBond>
12.6232

> <Gold.Goldscore.Internal.Correction>
-0.7693

> <Gold.Goldscore.Hbonds>
donor molecule, donor type, donor heavy atom, donor atom, acceptor molecule, acceptor atom, score
      P1  H   580   587       L1     9  0.91
      P1  H  2534  2545       L1    17  0.95
      L1  H    10    23       P1  2502  0.85

> <Gold.Goldscore.Internal.Vdw.Weighted>
-1.1558

> <Gold.Goldscore.Internal.Torsion.Weighted>
-0.3764

> <Gold.Goldscore.External.Vdw.Weighted>
29.3602

> <Gold.Goldscore.Internal.HBond.Weighted>
0.0000

> <Gold.Goldscore.External.HBond.Weighted>
12.6232

> <Gold.Goldscore.Internal.Correction.Weighted>
-0.7693

> <Gold.Rescore>
     Score     S(PLP)   S(hbond)     S(cho)   S(metal)  DE(clash)   DE(tors)     intcor
     42.22     -35.11       2.58       0.00       0.00       0.00       0.32       ----

> <Gold.PLP.Fitness>
42.2175

> <Gold.PLP.PLP>
-35.1147

> <Gold.PLP.part.hbond>
-4.9635

> <Gold.PLP.part.metal>
0.0000

> <Gold.PLP.part.buried>
-0.6578

> <Gold.PLP.part.nonpolar>
-31.8329

> <Gold.PLP.part.repulsive>
0.6533

> <Gold.PLP.ligand.clash>
0.0000

> <Gold.PLP.ligand.torsion>
0.3186

> <Gold.PLP.Chemscore.Hbond>
2.5800

> <Gold.PLP.Chemscore.CHOScore>
0.0000

> <Gold.PLP.Chemscore.Metal>
0.0000

> <Gold.Chemscore.Hbonds>
donor molecule, donor type, donor heavy atom, donor atom, acceptor molecule, acceptor atom, score
      L1  H    10    23       P1  2502  0.99
      P1  H   580   587       L1     9  1.00
      P1  H  2534  2545       L1    17  0.78

> <Gold.PLP.Chemscore.Internal.Correction>
   9.000000E+99

