#       Name:                CT1002167954
#       Creating user name   hitesit
#       Creation time:       Sun Apr 16 22:50:10 2023


#       File generated by GOLD software.
#

@<TRIPOS>MOLECULE
CT1002167954|ligand_prepared|mol2|1|dock1
    29    30     1
SMALL
NO_CHARGES


@<TRIPOS>ATOM
      1 C1          25.5577  -9.7447   1.5941 C.3            1 RES1               0.0000
      2 C2          25.0219 -10.9156   0.7453 C.ar           1 RES1               0.0000
      3 C3          25.6596 -10.2644   3.0251 C.2            1 RES1               0.0000
      4 C4          26.8956  -9.3492   0.9791 C.2            1 RES1               0.0000
      5 C5          24.6421  -8.4984   1.5881 C.3            1 RES1               0.0000
      6 C6          24.9140 -12.1927   1.2876 C.ar           1 RES1               0.0000
      7 C7          24.6298 -10.7340  -0.5783 C.ar           1 RES1               0.0000
      8 N8          26.9050 -10.5281   3.5144 N.am           1 RES1               0.0000
      9 O9          24.6601 -10.4770   3.7004 O.2            1 RES1               0.0000
     10 N10         28.0279  -9.5424   1.7264 N.am           1 RES1               0.0000
     11 O11         26.9811  -8.8875  -0.1522 O.2            1 RES1               0.0000
     12 C12         25.1422  -7.3660   2.4712 C.3            1 RES1               0.0000
     13 C13         24.4289 -13.2494   0.5350 C.ar           1 RES1               0.0000
     14 C14         24.1451 -11.7922  -1.3292 C.ar           1 RES1               0.0000
     15 C15         28.0962 -10.1424   2.9542 C.2            1 RES1               0.0000
     16 C16         24.0437 -13.0498  -0.7736 C.ar           1 RES1               0.0000
     17 O17         29.1586 -10.3298   3.5401 O.2            1 RES1               0.0000
     18 H18         24.5533  -8.1304   0.5585 H              1 RES1               0.0000
     19 H19         23.6412  -8.7940   1.9261 H              1 RES1               0.0000
     20 H20         25.2145 -12.3695   2.3150 H              1 RES1               0.0000
     21 H21         24.7017  -9.7535  -1.0366 H              1 RES1               0.0000
     22 H22         26.9552 -11.0616   4.3765 H              1 RES1               0.0000
     23 H23         28.9007  -9.2077   1.3307 H              1 RES1               0.0000
     24 H24         24.4634  -6.5167   2.4306 H              1 RES1               0.0000
     25 H25         25.2184  -7.6896   3.5072 H              1 RES1               0.0000
     26 H26         26.1252  -7.0300   2.1478 H              1 RES1               0.0000
     27 H27         24.3524 -14.2376   0.9765 H              1 RES1               0.0000
     28 H28         23.8437 -11.6306  -2.3589 H              1 RES1               0.0000
     29 H29         23.6634 -13.8777  -1.3628 H              1 RES1               0.0000
@<TRIPOS>BOND
    1    1    2 1     
    2    1    3 1     
    3    1    4 1     
    4    1    5 1     
    5    2    6 ar    
    6    2    7 ar    
    7    3    8 1     
    8    3    9 2     
    9    4   10 1     
   10    4   11 2     
   11    5   12 1     
   12    5   18 1     
   13    5   19 1     
   14    6   13 ar    
   15    6   20 1     
   16    7   14 ar    
   17    7   21 1     
   18    8   15 1     
   19    8   22 1     
   20   10   15 1     
   21   10   23 1     
   22   12   24 1     
   23   12   25 1     
   24   12   26 1     
   25   13   16 ar    
   26   13   27 1     
   27   14   16 ar    
   28   14   28 1     
   29   15   17 2     
   30   16   29 1     
@<TRIPOS>SUBSTRUCTURE
      1 RES1           1
@<TRIPOS>SET
DONOR_HYDROGENS      STATIC     ATOMS    <user>   **** ""
2 22 23
ATOM$RED        STATIC     ATOMS    COLORGROUP SYSTEM
2 22 23
@<TRIPOS>COMMENT
> <Gold.Version>
2022.3.0

> <Gold.Id.Protein>
unknown|3oxt_clean|pdb

> <Gold.Protein.RotatedTorsions>
[  570  565  563  560 ] final   82.88 input   59.99 | X-H torsion
[  590  585  584  581 ] final  -53.16 input   60.02 | X-H torsion
[ 2787 2780 2778 2775 ] final -106.01 input   60.00 | X-H torsion
[ 2470 2461 2460 2458 ] final  -67.55 input   59.98 | X-H torsion
[ 2545 2534 2533 2532 ] final  112.29 input   59.97 | X-H torsion
[ 1779 1770 1769 1767 ] final   -6.58 input   59.98 | X-H torsion
[ 5059 5050 5049 5047 ] final   85.16 input   60.00 | X-H torsion

> <Gold.Protein.ActiveResidues>
 THR48   LEU49   GLY50   THR51   GLY52   SER53   PHE54   GLY55   ARG56   VAL57  
 MET58   LEU59   VAL60   HIS68   TYR69   ALA70   MET71   LYS72   ILE73   LEU74  
 ASP75   VAL79   GLU91   LEU95   VAL104  LYS105  MET118  VAL119  MET120  GLU121 
 TYR122  VAL123  PRO124  GLY125  GLY126  GLU127  TYR164  ASP166  LYS168  GLU170 
 ASN171  LEU172  LEU173  ILE174  ASP175  GLN181  VAL182  THR183  ASP184  PHE185 
 GLY186  PHE327  ASP328  TYR330 

> <Gold.Protein.RotatedAtoms>
   20.2781  -12.8940    5.5981 H   0  0  0  0  0  0  0  0  0  0  0  0  # atno 570  bound_to 565 
   18.1587  -11.2903   -1.2740 H   0  0  0  0  0  0  0  0  0  0  0  0  # atno 590  bound_to 585 
   35.5439  -11.1650   10.2091 H   0  0  0  0  0  0  0  0  0  0  0  0  # atno 1779 bound_to 1770
   27.0496   -3.2103   -3.2497 H   0  0  0  0  0  0  0  0  0  0  0  0  # atno 2470 bound_to 2461
   19.8217   -4.1582   -0.2060 H   0  0  0  0  0  0  0  0  0  0  0  0  # atno 2545 bound_to 2534
   20.0023   -4.8615    1.2845 H   0  0  0  0  0  0  0  0  0  0  0  0  # atno 2546 bound_to 2534
   19.3691   -3.3346    1.1586 H   0  0  0  0  0  0  0  0  0  0  0  0  # atno 2547 bound_to 2534
   30.6660   -8.1684   -0.7852 H   0  0  0  0  0  0  0  0  0  0  0  0  # atno 2787 bound_to 2780
   24.2138  -10.0539    8.3283 H   0  0  0  0  0  0  0  0  0  0  0  0  # atno 5059 bound_to 5050
   21.5745  -12.5326    6.5131 LP  0  0  0  0  0  0  0  0  0  0  0  0  # atno 5371 bound_to 565 
   20.5338  -13.6970    6.9904 LP  0  0  0  0  0  0  0  0  0  0  0  0  # atno 5372 bound_to 565 
   16.9314  -11.0786   -2.3219 LP  0  0  0  0  0  0  0  0  0  0  0  0  # atno 5375 bound_to 585 
   17.9310  -12.3602   -2.4792 LP  0  0  0  0  0  0  0  0  0  0  0  0  # atno 5376 bound_to 585 
   32.2299   -7.9798   -0.3769 LP  0  0  0  0  0  0  0  0  0  0  0  0  # atno 5395 bound_to 2780
   31.7048   -7.5077   -1.8493 LP  0  0  0  0  0  0  0  0  0  0  0  0  # atno 5396 bound_to 2780
   27.4024   -1.8686   -2.3992 LP  0  0  0  0  0  0  0  0  0  0  0  0  # atno 5401 bound_to 2461
   28.6033   -2.7834   -3.0217 LP  0  0  0  0  0  0  0  0  0  0  0  0  # atno 5402 bound_to 2461
   36.9903  -10.7337   10.8173 LP  0  0  0  0  0  0  0  0  0  0  0  0  # atno 5439 bound_to 1770
   36.5213  -12.2976   10.8493 LP  0  0  0  0  0  0  0  0  0  0  0  0  # atno 5440 bound_to 1770
   24.5898   -9.6087    9.8471 LP  0  0  0  0  0  0  0  0  0  0  0  0  # atno 5465 bound_to 5050
   23.0262   -9.7406    9.3950 LP  0  0  0  0  0  0  0  0  0  0  0  0  # atno 5466 bound_to 5050

> <Gold.Score>
     Fitness  S(hb_ext) S(vdw_ext)  S(hb_int)    S(int)      intcor
     32.91       0.00      25.55       0.00      -2.23      -0.79

> <Gold.Goldscore.Fitness>
32.9073

> <Gold.Goldscore.Internal.Vdw>
-2.6363

> <Gold.Goldscore.Internal.Torsion>
-0.3771

> <Gold.Goldscore.External.Vdw>
25.5525

> <Gold.Goldscore.Internal.HBond>
0.0000

> <Gold.Goldscore.External.HBond>
0.0000

> <Gold.Goldscore.Internal.Correction>
-0.7859

> <Gold.Goldscore.Internal.Vdw.Weighted>
-2.6363

> <Gold.Goldscore.Internal.Torsion.Weighted>
-0.3771

> <Gold.Goldscore.External.Vdw.Weighted>
35.1347

> <Gold.Goldscore.Internal.HBond.Weighted>
0.0000

> <Gold.Goldscore.External.HBond.Weighted>
0.0000

> <Gold.Goldscore.Internal.Correction.Weighted>
-0.7859

> <Gold.Rescore>
     Score     S(PLP)   S(hbond)     S(cho)   S(metal)  DE(clash)   DE(tors)     intcor
     31.87     -35.03       0.00       0.00       0.00       2.06       0.55       ----

> <Gold.PLP.Fitness>
31.8745

> <Gold.PLP.PLP>
-35.0300

> <Gold.PLP.part.hbond>
-1.0000

> <Gold.PLP.part.metal>
0.0000

> <Gold.PLP.part.buried>
-5.9388

> <Gold.PLP.part.nonpolar>
-30.4349

> <Gold.PLP.part.repulsive>
1.3640

> <Gold.PLP.ligand.clash>
2.0643

> <Gold.PLP.ligand.torsion>
0.5456

> <Gold.PLP.Chemscore.Hbond>
0.0000

> <Gold.PLP.Chemscore.CHOScore>
0.0000

> <Gold.PLP.Chemscore.Metal>
0.0000

> <Gold.PLP.Chemscore.Internal.Correction>
   9.000000E+99

