#       Name:                CT1002167954
#       Creating user name   hitesit
#       Creation time:       Sun Apr 16 22:50:17 2023


#       File generated by GOLD software.
#

@<TRIPOS>MOLECULE
CT1002167954|ligand_prepared|mol2|1|dock7
    29    30     1
SMALL
NO_CHARGES


@<TRIPOS>ATOM
      1 C1          26.7317  -8.8445   2.3685 C.3            1 RES1               0.0000
      2 C2          28.1631  -9.3147   2.0389 C.ar           1 RES1               0.0000
      3 C3          26.2316  -8.0973   1.1356 C.2            1 RES1               0.0000
      4 C4          25.9352 -10.1018   2.6994 C.2            1 RES1               0.0000
      5 C5          26.6509  -7.8937   3.5854 C.3            1 RES1               0.0000
      6 C6          28.4765  -9.7966   0.7715 C.ar           1 RES1               0.0000
      7 C7          29.1797  -9.2700   2.9893 C.ar           1 RES1               0.0000
      8 N8          25.3060  -8.7202   0.3514 N.am           1 RES1               0.0000
      9 O9          26.6721  -6.9947   0.8343 O.2            1 RES1               0.0000
     10 N10         24.9155 -10.4566   1.8556 N.am           1 RES1               0.0000
     11 O11         26.1923 -10.7976   3.6741 O.2            1 RES1               0.0000
     12 C12         25.2764  -7.2770   3.7916 C.3            1 RES1               0.0000
     13 C13         29.7603 -10.2160   0.4644 C.ar           1 RES1               0.0000
     14 C14         30.4628  -9.6901   2.6801 C.ar           1 RES1               0.0000
     15 C15         24.5846  -9.8398   0.6799 C.2            1 RES1               0.0000
     16 C16         30.7543 -10.1627   1.4182 C.ar           1 RES1               0.0000
     17 O17         23.6892 -10.2505  -0.0528 O.2            1 RES1               0.0000
     18 H18         26.9266  -8.4520   4.4886 H              1 RES1               0.0000
     19 H19         27.3832  -7.0877   3.4530 H              1 RES1               0.0000
     20 H20         27.7068  -9.8483   0.0087 H              1 RES1               0.0000
     21 H21         28.9731  -8.9030   3.9889 H              1 RES1               0.0000
     22 H22         25.1342  -8.3164  -0.5638 H              1 RES1               0.0000
     23 H23         24.3507 -11.2543   2.1293 H              1 RES1               0.0000
     24 H24         25.2749  -6.6189   4.6579 H              1 RES1               0.0000
     25 H25         24.9811  -6.6934   2.9221 H              1 RES1               0.0000
     26 H26         24.5271  -8.0496   3.9516 H              1 RES1               0.0000
     27 H27         29.9843 -10.5884  -0.5298 H              1 RES1               0.0000
     28 H28         31.2418  -9.6470   3.4341 H              1 RES1               0.0000
     29 H29         31.7600 -10.4909   1.1773 H              1 RES1               0.0000
@<TRIPOS>BOND
    1    1    2 1     
    2    1    3 1     
    3    1    4 1     
    4    1    5 1     
    5    2    6 ar    
    6    2    7 ar    
    7    3    8 1     
    8    3    9 2     
    9    4   10 1     
   10    4   11 2     
   11    5   12 1     
   12    5   18 1     
   13    5   19 1     
   14    6   13 ar    
   15    6   20 1     
   16    7   14 ar    
   17    7   21 1     
   18    8   15 1     
   19    8   22 1     
   20   10   15 1     
   21   10   23 1     
   22   12   24 1     
   23   12   25 1     
   24   12   26 1     
   25   13   16 ar    
   26   13   27 1     
   27   14   16 ar    
   28   14   28 1     
   29   15   17 2     
   30   16   29 1     
@<TRIPOS>SUBSTRUCTURE
      1 RES1           1
@<TRIPOS>SET
DONOR_HYDROGENS      STATIC     ATOMS    <user>   **** ""
2 22 23
ATOM$RED        STATIC     ATOMS    COLORGROUP SYSTEM
2 22 23
@<TRIPOS>COMMENT
> <Gold.Version>
2022.3.0

> <Gold.Id.Protein>
unknown|3oxt_clean|pdb

> <Gold.Protein.RotatedTorsions>
[  570  565  563  560 ] final  128.46 input   59.99 | X-H torsion
[  590  585  584  581 ] final  -78.52 input   60.02 | X-H torsion
[ 2787 2780 2778 2775 ] final  153.56 input   60.00 | X-H torsion
[ 2470 2461 2460 2458 ] final  -92.17 input   59.98 | X-H torsion
[ 2545 2534 2533 2532 ] final -153.41 input   59.97 | X-H torsion
[ 1779 1770 1769 1767 ] final  -32.75 input   59.98 | X-H torsion
[ 5059 5050 5049 5047 ] final   93.29 input   60.00 | X-H torsion

> <Gold.Protein.ActiveResidues>
 THR48   LEU49   GLY50   THR51   GLY52   SER53   PHE54   GLY55   ARG56   VAL57  
 MET58   LEU59   VAL60   HIS68   TYR69   ALA70   MET71   LYS72   ILE73   LEU74  
 ASP75   VAL79   GLU91   LEU95   VAL104  LYS105  MET118  VAL119  MET120  GLU121 
 TYR122  VAL123  PRO124  GLY125  GLY126  GLU127  TYR164  ASP166  LYS168  GLU170 
 ASN171  LEU172  LEU173  ILE174  ASP175  GLN181  VAL182  THR183  ASP184  PHE185 
 GLY186  PHE327  ASP328  TYR330 

> <Gold.Protein.RotatedAtoms>
   20.0071  -13.4153    6.0235 H   0  0  0  0  0  0  0  0  0  0  0  0  # atno 570  bound_to 565 
   17.8664  -11.0030   -1.3075 H   0  0  0  0  0  0  0  0  0  0  0  0  # atno 590  bound_to 585 
   35.7452  -10.7935   10.2434 H   0  0  0  0  0  0  0  0  0  0  0  0  # atno 1779 bound_to 1770
   26.8204   -2.9383   -3.0686 H   0  0  0  0  0  0  0  0  0  0  0  0  # atno 2470 bound_to 2461
   20.0886   -4.9940    0.8891 H   0  0  0  0  0  0  0  0  0  0  0  0  # atno 2545 bound_to 2534
   19.4498   -3.5877    1.4917 H   0  0  0  0  0  0  0  0  0  0  0  0  # atno 2546 bound_to 2534
   19.6547   -3.7725   -0.1429 H   0  0  0  0  0  0  0  0  0  0  0  0  # atno 2547 bound_to 2534
   31.9840   -8.0995   -0.2120 H   0  0  0  0  0  0  0  0  0  0  0  0  # atno 2787 bound_to 2780
   24.0845  -10.0621    8.3004 H   0  0  0  0  0  0  0  0  0  0  0  0  # atno 5059 bound_to 5050
   21.2328  -12.3527    5.8933 LP  0  0  0  0  0  0  0  0  0  0  0  0  # atno 5371 bound_to 565 
   21.1484  -13.3521    7.1819 LP  0  0  0  0  0  0  0  0  0  0  0  0  # atno 5372 bound_to 565 
   16.9456  -11.3918   -2.5920 LP  0  0  0  0  0  0  0  0  0  0  0  0  # atno 5375 bound_to 585 
   18.2110  -12.3361   -2.1753 LP  0  0  0  0  0  0  0  0  0  0  0  0  # atno 5376 bound_to 585 
   31.9983   -7.4924   -1.7217 LP  0  0  0  0  0  0  0  0  0  0  0  0  # atno 5395 bound_to 2780
   30.6091   -8.0646   -1.0818 LP  0  0  0  0  0  0  0  0  0  0  0  0  # atno 5396 bound_to 2780
   27.8027   -1.8330   -2.3889 LP  0  0  0  0  0  0  0  0  0  0  0  0  # atno 5401 bound_to 2461
   28.4339   -3.0928   -3.2143 LP  0  0  0  0  0  0  0  0  0  0  0  0  # atno 5402 bound_to 2461
   37.1752  -11.0908   10.9608 LP  0  0  0  0  0  0  0  0  0  0  0  0  # atno 5439 bound_to 1770
   36.1336  -12.3146   10.6712 LP  0  0  0  0  0  0  0  0  0  0  0  0  # atno 5440 bound_to 1770
   24.6804   -9.6362    9.7529 LP  0  0  0  0  0  0  0  0  0  0  0  0  # atno 5465 bound_to 5050
   23.0660   -9.7049    9.5175 LP  0  0  0  0  0  0  0  0  0  0  0  0  # atno 5466 bound_to 5050

> <Gold.Score>
     Fitness  S(hb_ext) S(vdw_ext)  S(hb_int)    S(int)      intcor
     35.57       3.15      23.78       0.00      -0.28      -0.77

> <Gold.Goldscore.Fitness>
35.5738

> <Gold.Goldscore.Internal.Vdw>
-0.5775

> <Gold.Goldscore.Internal.Torsion>
-0.4747

> <Gold.Goldscore.External.Vdw>
23.7848

> <Gold.Goldscore.Internal.HBond>
0.0000

> <Gold.Goldscore.External.HBond>
3.1525

> <Gold.Goldscore.Internal.Correction>
-0.7693

> <Gold.Goldscore.Hbonds>
donor molecule, donor type, donor heavy atom, donor atom, acceptor molecule, acceptor atom, score
      L1  H     8    22       P1  2794  0.53

> <Gold.Goldscore.Internal.Vdw.Weighted>
-0.5775

> <Gold.Goldscore.Internal.Torsion.Weighted>
-0.4747

> <Gold.Goldscore.External.Vdw.Weighted>
32.7041

> <Gold.Goldscore.Internal.HBond.Weighted>
0.0000

> <Gold.Goldscore.External.HBond.Weighted>
3.1525

> <Gold.Goldscore.Internal.Correction.Weighted>
-0.7693

> <Gold.Rescore>
     Score     S(PLP)   S(hbond)     S(cho)   S(metal)  DE(clash)   DE(tors)     intcor
     27.33     -26.89       0.77       0.00       0.00       0.00       0.93       ----

> <Gold.PLP.Fitness>
27.3346

> <Gold.PLP.PLP>
-26.8937

> <Gold.PLP.part.hbond>
-1.0000

> <Gold.PLP.part.metal>
0.0000

> <Gold.PLP.part.buried>
-2.1243

> <Gold.PLP.part.nonpolar>
-28.1175

> <Gold.PLP.part.repulsive>
3.8337

> <Gold.PLP.ligand.clash>
0.0000

> <Gold.PLP.ligand.torsion>
0.9322

> <Gold.PLP.Chemscore.Hbond>
0.7684

> <Gold.PLP.Chemscore.CHOScore>
0.0000

> <Gold.PLP.Chemscore.Metal>
0.0000

> <Gold.Chemscore.Hbonds>
donor molecule, donor type, donor heavy atom, donor atom, acceptor molecule, acceptor atom, score
      L1  H     8    22       P1  2794  1.00

> <Gold.PLP.Chemscore.Internal.Correction>
   9.000000E+99

