#       Name:                CT1002167954
#       Creating user name   hitesit
#       Creation time:       Sun Apr 16 22:50:50 2023


#       File generated by GOLD software.
#

@<TRIPOS>MOLECULE
CT1002167954|ligand_prepared|mol2|1|dock2
    29    30     1
SMALL
NO_CHARGES


@<TRIPOS>ATOM
      1 C1          -5.1777 -16.5204  19.2013 C.3            1 RES1               0.0000
      2 C2          -5.4046 -18.0351  19.0199 C.ar           1 RES1               0.0000
      3 C3          -6.5208 -15.8501  18.9273 C.2            1 RES1               0.0000
      4 C4          -4.6681 -16.3330  20.6260 C.2            1 RES1               0.0000
      5 C5          -4.1261 -15.9261  18.2357 C.3            1 RES1               0.0000
      6 C6          -6.2415 -18.7348  19.8841 C.ar           1 RES1               0.0000
      7 C7          -4.7873 -18.7447  17.9933 C.ar           1 RES1               0.0000
      8 N8          -7.2138 -15.3635  19.9963 N.am           1 RES1               0.0000
      9 O9          -6.9831 -15.7848  17.7949 O.2            1 RES1               0.0000
     10 N10         -5.4636 -15.6495  21.5079 N.am           1 RES1               0.0000
     11 O11         -3.5922 -16.7856  20.9975 O.2            1 RES1               0.0000
     12 C12         -3.8534 -14.4473  18.4609 C.3            1 RES1               0.0000
     13 C13         -6.4559 -20.0940  19.7260 C.ar           1 RES1               0.0000
     14 C14         -5.0028 -20.1040  17.8371 C.ar           1 RES1               0.0000
     15 C15         -6.7269 -15.1829  21.2660 C.2            1 RES1               0.0000
     16 C16         -5.8371 -20.7793  18.7023 C.ar           1 RES1               0.0000
     17 O17         -7.4018 -14.6256  22.1268 O.2            1 RES1               0.0000
     18 H18         -3.1865 -16.4802  18.3524 H              1 RES1               0.0000
     19 H19         -4.4732 -16.0681  17.2048 H              1 RES1               0.0000
     20 H20         -6.7351 -18.2128  20.6970 H              1 RES1               0.0000
     21 H21         -4.1260 -18.2343  17.3013 H              1 RES1               0.0000
     22 H22         -8.1839 -15.1106  19.8370 H              1 RES1               0.0000
     23 H23         -5.0783 -15.4720  22.4300 H              1 RES1               0.0000
     24 H24         -3.1086 -14.0809  17.7575 H              1 RES1               0.0000
     25 H25         -4.7615 -13.8629  18.3279 H              1 RES1               0.0000
     26 H26         -3.4825 -14.2726  19.4688 H              1 RES1               0.0000
     27 H27         -7.1123 -20.6211  20.4104 H              1 RES1               0.0000
     28 H28         -4.5133 -20.6395  17.0303 H              1 RES1               0.0000
     29 H29         -6.0055 -21.8440  18.5784 H              1 RES1               0.0000
@<TRIPOS>BOND
    1    1    2 1     
    2    1    3 1     
    3    1    4 1     
    4    1    5 1     
    5    2    6 ar    
    6    2    7 ar    
    7    3    8 1     
    8    3    9 2     
    9    4   10 1     
   10    4   11 2     
   11    5   12 1     
   12    5   18 1     
   13    5   19 1     
   14    6   13 ar    
   15    6   20 1     
   16    7   14 ar    
   17    7   21 1     
   18    8   15 1     
   19    8   22 1     
   20   10   15 1     
   21   10   23 1     
   22   12   24 1     
   23   12   25 1     
   24   12   26 1     
   25   13   16 ar    
   26   13   27 1     
   27   14   16 ar    
   28   14   28 1     
   29   15   17 2     
   30   16   29 1     
@<TRIPOS>SUBSTRUCTURE
      1 RES1           1
@<TRIPOS>SET
DONOR_HYDROGENS      STATIC     ATOMS    <user>   **** ""
2 22 23
ATOM$RED        STATIC     ATOMS    COLORGROUP SYSTEM
2 22 23
@<TRIPOS>COMMENT
> <Gold.Version>
2022.3.0

> <Gold.Id.Protein>
unknown|3mvj_clean|pdb

> <Gold.Protein.RotatedTorsions>
[ 1772 1742 1743 1744 ] final   91.21 input   69.76 | X-H torsion
[ 1801 1791 1792 1793 ] final  -92.85 input  -10.55 | X-H torsion
[ 1839 1818 1819 1820 ] final -131.80 input   43.70 | X-H torsion
[ 2083 2067 2068 2069 ] final  -94.18 input   63.04 | X-H torsion
[ 2134 2117 2118 2119 ] final  167.95 input   55.90 | X-H torsion
[ 5632 5617 5618 5619 ] final  -68.73 input   93.34 | X-H torsion
[ 7884 7874 7875 7876 ] final   86.50 input   68.03 | X-H torsion
[ 7924 7916 7917 7918 ] final  -41.35 input   66.66 | X-H torsion
[ 8483 8469 8467 8464 ] final   18.09 input   59.99 | X-H torsion
[ 15475 15466 15465 15463 ] final  151.65 input   60.00 | X-H torsion
[ 7991 7973 7974 7975 ] final  -65.41 input   84.71 | X-H torsion
[ 8477 8463 8464 8465 ] final   -0.89 input   59.21 | X-H torsion
[ 8522 8507 8508 8509 ] final -102.38 input -104.23 | X-H torsion
[ 2822 2803 2804 2805 ] final   96.55 input  103.27 | X-H torsion
[ 2184 2168 2169 2170 ] final  -22.48 input  106.62 | X-H torsion
[ 2724 2714 2715 2716 ] final  126.75 input   74.66 | X-H torsion
[ 2767 2750 2751 2752 ] final  -74.91 input   68.39 | X-H torsion
[ 5506 5481 5482 5483 ] final  153.65 input   57.83 | X-H torsion
[ 5596 5586 5587 5588 ] final  -77.58 input -104.43 | X-H torsion
[ 5454 5428 5429 5430 ] final -167.92 input  113.20 | X-H torsion
[ 5462 5439 5438 5436 ] final   31.98 input   59.99 | X-H torsion
[ 5575 5565 5566 5567 ] final  100.09 input  101.53 | X-H torsion
[ 5392 5377 5378 5379 ] final  -56.67 input  130.34 | X-H torsion
[ 8046 8030 8031 8032 ] final -139.95 input   72.86 | X-H torsion
[ 2684 2665 2666 2667 ] final  -62.62 input   26.41 | X-H torsion
[ 5342 5324 5325 5326 ] final  100.10 input   62.58 | X-H torsion
[ 4530 4515 4516 4517 ] final  130.01 input  130.34 | X-H torsion
[ 4589 4567 4568 4569 ] final   67.91 input  104.80 | X-H torsion
[ 5299 5274 5275 5276 ] final   46.88 input   71.10 | X-H torsion
[ 8569 8549 8550 8551 ] final   98.56 input   74.91 | X-H torsion
[ 1864 1854 1855 1856 ] final -161.54 input   57.50 | X-H torsion
[ 15411 15403 15404 15405 ] final   78.19 input  102.24 | X-H torsion
[ 2884 2867 2868 2869 ] final -105.55 input   60.34 | X-H torsion
[ 16459 1745 1744 1743 ] final  152.00 input    0.00 | X-H torsion
[ 16462 1794 1793 1792 ] final   23.94 input   -0.00 | X-H torsion
[ 16466 2070 2069 2068 ] final -124.57 input    0.00 | X-H torsion
[ 16474 7834 7833 7832 ] final  120.84 input    0.00 | X-H torsion
[ 16477 7877 7876 7875 ] final   10.92 input    0.00 | X-H torsion
[ 16486 7919 7918 7917 ] final   80.97 input    0.00 | X-H torsion
[ 16490 8466 8465 8464 ] final  -76.42 input    0.00 | X-H torsion
[ 16495 2717 2716 2715 ] final  -18.26 input    0.00 | X-H torsion
[ 16498 5484 5483 5482 ] final  -43.71 input    0.00 | X-H torsion
[ 16500 2120 2119 2118 ] final  148.95 input    0.00 | X-H torsion
[ 16505 2753 2752 2751 ] final  -49.28 input    0.00 | X-H torsion
[ 16507 5380 5379 5378 ] final -146.34 input    0.00 | X-H torsion
[ 16510 1701 1700 1699 ] final   68.84 input   -0.00 | X-H torsion
[ 16513 5589 5588 5587 ] final   43.30 input    0.00 | X-H torsion
[ 16515 2668 2667 2666 ] final -166.18 input    0.00 | X-H torsion
[ 16517 5327 5326 5325 ] final -174.35 input   -0.00 | X-H torsion
[ 16520 5431 5430 5429 ] final   34.12 input    0.00 | X-H torsion
[ 16525 5532 5531 5530 ] final   39.40 input   -0.00 | X-H torsion
[ 16530 8033 8032 8031 ] final   16.65 input    0.00 | X-H torsion
[ 16534 8371 8370 8369 ] final -105.84 input    0.00 | X-H torsion
[ 16536 4570 4569 4568 ] final   84.08 input    0.00 | X-H torsion
[ 16539 4518 4517 4516 ] final  148.67 input    0.00 | X-H torsion
[ 16542 5228 5227 5226 ] final  -24.26 input    0.00 | X-H torsion
[ 16544 5277 5276 5275 ] final  -54.07 input    0.00 | X-H torsion
[ 16548 8418 8417 8416 ] final -124.09 input    0.00 | X-H torsion
[ 16551 2006 2005 2004 ] final  -39.97 input    0.00 | X-H torsion
[ 16556 1821 1820 1819 ] final  126.03 input    0.00 | X-H torsion

> <Gold.Protein.ActiveResidues>
 THR48   LEU49   GLY50   THR51   GLY52   ARG56   VAL57   MET58   LEU59   TYR69  
 ALA70   MET71   LYS72   ILE73   GLU91   LEU95   VAL104  LYS105  LEU106  MET118 
 VAL119  MET120  GLU121  TYR122  VAL123  PRO124  GLY125  GLY126  GLU127  GLU170 
 ASN171  LEU172  LEU173  ILE174  ASP175  GLN181  VAL182  THR183  ASP184  PHE185 
 ASN326  PHE327  ASP328  TYR330 

> <Gold.Protein.RotatedAtoms>
    3.0358  -15.7180   19.9634 H   0  0  0  0  0  0  0  0  0  0  0  0  # atno 1772 bound_to 1742
    1.4382  -13.4698   21.4242 H   0  0  0  0  0  0  0  0  0  0  0  0  # atno 1801 bound_to 1791
   -0.5858  -14.7242   23.7353 H   0  0  0  0  0  0  0  0  0  0  0  0  # atno 1839 bound_to 1818
   -2.8954  -15.4788   26.3289 H   0  0  0  0  0  0  0  0  0  0  0  0  # atno 1864 bound_to 1854
    0.7851  -19.2750   23.2409 H   0  0  0  0  0  0  0  0  0  0  0  0  # atno 2083 bound_to 2067
    2.5972  -19.2505   20.9813 H   0  0  0  0  0  0  0  0  0  0  0  0  # atno 2134 bound_to 2117
    5.0611  -18.7496   18.0493 H   0  0  0  0  0  0  0  0  0  0  0  0  # atno 2184 bound_to 2168
    4.8844  -20.9464   11.3298 H   0  0  0  0  0  0  0  0  0  0  0  0  # atno 2684 bound_to 2665
    1.4101  -21.2976   13.0041 H   0  0  0  0  0  0  0  0  0  0  0  0  # atno 2724 bound_to 2714
    1.0952  -21.9507   16.7185 H   0  0  0  0  0  0  0  0  0  0  0  0  # atno 2767 bound_to 2750
   -0.3818  -23.9683   19.0222 H   0  0  0  0  0  0  0  0  0  0  0  0  # atno 2822 bound_to 2803
   -0.1410  -23.9846   22.3886 H   0  0  0  0  0  0  0  0  0  0  0  0  # atno 2884 bound_to 2867
   -9.2241  -21.8917   11.2322 H   0  0  0  0  0  0  0  0  0  0  0  0  # atno 4530 bound_to 4515
   -5.7032  -24.1980    9.6200 H   0  0  0  0  0  0  0  0  0  0  0  0  # atno 4589 bound_to 4567
   -0.8370  -28.0404   16.5395 H   0  0  0  0  0  0  0  0  0  0  0  0  # atno 5299 bound_to 5274
   -0.6076  -24.3921   15.2700 H   0  0  0  0  0  0  0  0  0  0  0  0  # atno 5342 bound_to 5324
   -0.8790  -23.9667   11.9217 H   0  0  0  0  0  0  0  0  0  0  0  0  # atno 5392 bound_to 5377
    0.7386  -21.6914   10.9857 H   0  0  0  0  0  0  0  0  0  0  0  0  # atno 5454 bound_to 5428
    3.5782  -13.6585   12.5557 H   0  0  0  0  0  0  0  0  0  0  0  0  # atno 5462 bound_to 5439
   -1.2611  -18.4973   10.5852 H   0  0  0  0  0  0  0  0  0  0  0  0  # atno 5506 bound_to 5481
   -1.5395  -12.9438    8.2853 H   0  0  0  0  0  0  0  0  0  0  0  0  # atno 5575 bound_to 5565
   -2.1770  -12.0326   10.7808 H   0  0  0  0  0  0  0  0  0  0  0  0  # atno 5596 bound_to 5586
   -4.3703  -10.2829   12.5630 H   0  0  0  0  0  0  0  0  0  0  0  0  # atno 5632 bound_to 5617
  -11.0983  -12.6332   17.6413 H   0  0  0  0  0  0  0  0  0  0  0  0  # atno 7884 bound_to 7874
   -9.3569  -13.8754   15.3675 H   0  0  0  0  0  0  0  0  0  0  0  0  # atno 7924 bound_to 7916
   -9.0887  -13.4760   12.2405 H   0  0  0  0  0  0  0  0  0  0  0  0  # atno 7991 bound_to 7973
   -7.3192  -12.8264   10.0378 H   0  0  0  0  0  0  0  0  0  0  0  0  # atno 8046 bound_to 8030
  -10.6947  -18.5218   14.6438 H   0  0  0  0  0  0  0  0  0  0  0  0  # atno 8477 bound_to 8463
   -8.7342  -17.5769   16.2617 H   0  0  0  0  0  0  0  0  0  0  0  0  # atno 8483 bound_to 8469
   -8.5736  -21.0501   17.4251 H   0  0  0  0  0  0  0  0  0  0  0  0  # atno 8522 bound_to 8507
  -10.0839  -23.0491   18.8937 H   0  0  0  0  0  0  0  0  0  0  0  0  # atno 8569 bound_to 8549
    0.9285   -8.7843   18.0922 H   0  0  0  0  0  0  0  0  0  0  0  0  # atno 15411 bound_to 15403
   -2.2001  -10.3107   22.2739 H   0  0  0  0  0  0  0  0  0  0  0  0  # atno 15475 bound_to 15466
    3.7009  -14.2292   20.5990 LP  0  0  0  0  0  0  0  0  0  0  0  0  # atno 16458 bound_to 1742
   -1.1533  -13.2876   19.8361 LP  0  0  0  0  0  0  0  0  0  0  0  0  # atno 16459 bound_to 1745
   -0.0424  -12.4663   18.7914 LP  0  0  0  0  0  0  0  0  0  0  0  0  # atno 16460 bound_to 1745
    0.7316  -14.8850   20.6739 LP  0  0  0  0  0  0  0  0  0  0  0  0  # atno 16461 bound_to 1791
    0.9380  -16.0161   22.7847 LP  0  0  0  0  0  0  0  0  0  0  0  0  # atno 16462 bound_to 1794
    0.0197  -16.5477   24.1537 LP  0  0  0  0  0  0  0  0  0  0  0  0  # atno 16463 bound_to 1794
   -1.2825  -13.3212   24.5140 LP  0  0  0  0  0  0  0  0  0  0  0  0  # atno 16464 bound_to 1818
    0.0312  -17.7571   22.7936 LP  0  0  0  0  0  0  0  0  0  0  0  0  # atno 16465 bound_to 2067
    2.3421  -16.6047   20.0442 LP  0  0  0  0  0  0  0  0  0  0  0  0  # atno 16466 bound_to 2070
    2.1377  -16.8373   21.7484 LP  0  0  0  0  0  0  0  0  0  0  0  0  # atno 16467 bound_to 2070
    1.9463  -19.5070   19.3769 LP  0  0  0  0  0  0  0  0  0  0  0  0  # atno 16468 bound_to 2117
   -3.8953   -9.9686   14.2194 LP  0  0  0  0  0  0  0  0  0  0  0  0  # atno 16469 bound_to 5617
   -7.8943  -13.6520   18.5305 LP  0  0  0  0  0  0  0  0  0  0  0  0  # atno 16474 bound_to 7834
   -7.2447  -12.4550   17.4605 LP  0  0  0  0  0  0  0  0  0  0  0  0  # atno 16475 bound_to 7834
   -9.3724  -12.4271   17.4965 LP  0  0  0  0  0  0  0  0  0  0  0  0  # atno 16476 bound_to 7874
  -10.5112  -16.6082   15.8712 LP  0  0  0  0  0  0  0  0  0  0  0  0  # atno 16477 bound_to 7877
  -10.2988  -16.0249   14.2542 LP  0  0  0  0  0  0  0  0  0  0  0  0  # atno 16478 bound_to 7877
  -10.9988  -13.2864   15.4556 LP  0  0  0  0  0  0  0  0  0  0  0  0  # atno 16479 bound_to 7916
   -7.5644  -17.2473   15.1793 LP  0  0  0  0  0  0  0  0  0  0  0  0  # atno 16480 bound_to 8469
   -7.1749  -17.5909   16.7275 LP  0  0  0  0  0  0  0  0  0  0  0  0  # atno 16481 bound_to 8469
   -1.5008  -10.6555   20.8457 LP  0  0  0  0  0  0  0  0  0  0  0  0  # atno 16484 bound_to 15466
   -1.5056   -9.1219   21.4067 LP  0  0  0  0  0  0  0  0  0  0  0  0  # atno 16485 bound_to 15466
   -8.1993  -11.7736   13.7009 LP  0  0  0  0  0  0  0  0  0  0  0  0  # atno 16486 bound_to 7919
   -8.8684  -11.4401   12.1385 LP  0  0  0  0  0  0  0  0  0  0  0  0  # atno 16487 bound_to 7919
   -8.4691  -15.0847   12.5102 LP  0  0  0  0  0  0  0  0  0  0  0  0  # atno 16488 bound_to 7973
   -9.4866  -18.9395   13.4467 LP  0  0  0  0  0  0  0  0  0  0  0  0  # atno 16489 bound_to 8463
  -10.5985  -17.8712   17.0065 LP  0  0  0  0  0  0  0  0  0  0  0  0  # atno 16490 bound_to 8466
  -11.7444  -19.1629   16.8708 LP  0  0  0  0  0  0  0  0  0  0  0  0  # atno 16491 bound_to 8466
   -9.7625  -19.8158   17.0321 LP  0  0  0  0  0  0  0  0  0  0  0  0  # atno 16492 bound_to 8507
   -0.3099  -22.9154   15.0790 LP  0  0  0  0  0  0  0  0  0  0  0  0  # atno 16495 bound_to 2717
    0.4118  -23.9704   16.2477 LP  0  0  0  0  0  0  0  0  0  0  0  0  # atno 16496 bound_to 2717
    0.9324  -22.9122   19.5032 LP  0  0  0  0  0  0  0  0  0  0  0  0  # atno 16497 bound_to 2803
   -1.9533  -14.6500   11.2266 LP  0  0  0  0  0  0  0  0  0  0  0  0  # atno 16498 bound_to 5484
   -0.2755  -14.2207   11.1959 LP  0  0  0  0  0  0  0  0  0  0  0  0  # atno 16499 bound_to 5484
    3.5043  -20.0337   16.3822 LP  0  0  0  0  0  0  0  0  0  0  0  0  # atno 16500 bound_to 2120
    3.7081  -20.9264   17.8525 LP  0  0  0  0  0  0  0  0  0  0  0  0  # atno 16501 bound_to 2120
    4.3489  -17.2872   17.4144 LP  0  0  0  0  0  0  0  0  0  0  0  0  # atno 16502 bound_to 2168
    2.6610  -22.2140   13.8099 LP  0  0  0  0  0  0  0  0  0  0  0  0  # atno 16503 bound_to 2714
    2.8159  -21.7570   16.9779 LP  0  0  0  0  0  0  0  0  0  0  0  0  # atno 16504 bound_to 2750
    2.8608  -22.3460   20.3940 LP  0  0  0  0  0  0  0  0  0  0  0  0  # atno 16505 bound_to 2753
    1.4734  -21.3152   20.5052 LP  0  0  0  0  0  0  0  0  0  0  0  0  # atno 16506 bound_to 2753
   -1.7639  -19.9547   11.1333 LP  0  0  0  0  0  0  0  0  0  0  0  0  # atno 16507 bound_to 5380
   -2.2594  -21.4603   11.8316 LP  0  0  0  0  0  0  0  0  0  0  0  0  # atno 16508 bound_to 5380
    0.1620  -17.4827   10.4985 LP  0  0  0  0  0  0  0  0  0  0  0  0  # atno 16509 bound_to 5481
    5.1715  -12.7361   19.5744 LP  0  0  0  0  0  0  0  0  0  0  0  0  # atno 16510 bound_to 1701
    3.9440  -12.2383   20.6904 LP  0  0  0  0  0  0  0  0  0  0  0  0  # atno 16511 bound_to 1701
   -1.9337  -10.3828   10.2539 LP  0  0  0  0  0  0  0  0  0  0  0  0  # atno 16512 bound_to 5586
   -4.5945  -11.8208   10.9332 LP  0  0  0  0  0  0  0  0  0  0  0  0  # atno 16513 bound_to 5589
   -5.6978  -10.5217   11.2416 LP  0  0  0  0  0  0  0  0  0  0  0  0  # atno 16514 bound_to 5589
    3.8400  -20.4771   14.9816 LP  0  0  0  0  0  0  0  0  0  0  0  0  # atno 16515 bound_to 2668
    4.9242  -20.6934   13.6483 LP  0  0  0  0  0  0  0  0  0  0  0  0  # atno 16516 bound_to 2668
    0.7070  -22.8830   11.7009 LP  0  0  0  0  0  0  0  0  0  0  0  0  # atno 16517 bound_to 5327
    0.7809  -23.6208   13.2661 LP  0  0  0  0  0  0  0  0  0  0  0  0  # atno 16518 bound_to 5327
   -0.0866  -21.2382    9.5142 LP  0  0  0  0  0  0  0  0  0  0  0  0  # atno 16519 bound_to 5428
   -0.3845  -19.9593    8.2513 LP  0  0  0  0  0  0  0  0  0  0  0  0  # atno 16520 bound_to 5431
   -0.4259  -18.2772    7.8401 LP  0  0  0  0  0  0  0  0  0  0  0  0  # atno 16521 bound_to 5431
    2.8888  -13.1718   11.1646 LP  0  0  0  0  0  0  0  0  0  0  0  0  # atno 16522 bound_to 5439
    4.4649  -13.5978   11.1928 LP  0  0  0  0  0  0  0  0  0  0  0  0  # atno 16523 bound_to 5439
    1.7993  -11.3254    9.6082 LP  0  0  0  0  0  0  0  0  0  0  0  0  # atno 16525 bound_to 5532
    0.3221  -10.7746   10.3256 LP  0  0  0  0  0  0  0  0  0  0  0  0  # atno 16526 bound_to 5532
   -0.1101  -12.2220    8.9943 LP  0  0  0  0  0  0  0  0  0  0  0  0  # atno 16527 bound_to 5565
   -2.2897  -24.3795   10.9759 LP  0  0  0  0  0  0  0  0  0  0  0  0  # atno 16528 bound_to 5377
   -5.5830  -12.6045   10.0568 LP  0  0  0  0  0  0  0  0  0  0  0  0  # atno 16529 bound_to 8030
   -4.0258  -12.0278    8.6121 LP  0  0  0  0  0  0  0  0  0  0  0  0  # atno 16530 bound_to 8033
   -3.4074  -12.7089    7.1445 LP  0  0  0  0  0  0  0  0  0  0  0  0  # atno 16531 bound_to 8033
    5.5909  -22.5114   11.6657 LP  0  0  0  0  0  0  0  0  0  0  0  0  # atno 16532 bound_to 2665
    0.0174  -25.7377   14.3557 LP  0  0  0  0  0  0  0  0  0  0  0  0  # atno 16533 bound_to 5324
   -8.7513  -17.0817   12.3076 LP  0  0  0  0  0  0  0  0  0  0  0  0  # atno 16534 bound_to 8371
   -9.7578  -15.9222   11.5059 LP  0  0  0  0  0  0  0  0  0  0  0  0  # atno 16535 bound_to 8371
   -4.4656  -24.9920   11.9674 LP  0  0  0  0  0  0  0  0  0  0  0  0  # atno 16536 bound_to 4570
   -3.2145  -25.7739   11.0599 LP  0  0  0  0  0  0  0  0  0  0  0  0  # atno 16537 bound_to 4570
   -9.4958  -22.9672    9.8863 LP  0  0  0  0  0  0  0  0  0  0  0  0  # atno 16538 bound_to 4515
   -8.3651  -26.0975   10.9851 LP  0  0  0  0  0  0  0  0  0  0  0  0  # atno 16539 bound_to 4518
   -8.4293  -24.8283   12.1619 LP  0  0  0  0  0  0  0  0  0  0  0  0  # atno 16540 bound_to 4518
   -7.3488  -24.7360    9.9159 LP  0  0  0  0  0  0  0  0  0  0  0  0  # atno 16541 bound_to 4567
   -1.2685  -25.0851   18.9426 LP  0  0  0  0  0  0  0  0  0  0  0  0  # atno 16542 bound_to 5228
    0.1363  -25.0252   17.9311 LP  0  0  0  0  0  0  0  0  0  0  0  0  # atno 16543 bound_to 5228
   -0.1297  -27.8444   13.7025 LP  0  0  0  0  0  0  0  0  0  0  0  0  # atno 16544 bound_to 5277
   -1.7443  -27.2349   13.8502 LP  0  0  0  0  0  0  0  0  0  0  0  0  # atno 16545 bound_to 5277
  -10.2943  -21.4539   13.5508 LP  0  0  0  0  0  0  0  0  0  0  0  0  # atno 16548 bound_to 8418
   -9.6674  -20.8843   12.0400 LP  0  0  0  0  0  0  0  0  0  0  0  0  # atno 16549 bound_to 8418
   -0.3949  -26.9668   17.8456 LP  0  0  0  0  0  0  0  0  0  0  0  0  # atno 16550 bound_to 5274
    0.9963  -21.2907   23.9876 LP  0  0  0  0  0  0  0  0  0  0  0  0  # atno 16551 bound_to 2006
   -0.0904  -21.1374   22.6476 LP  0  0  0  0  0  0  0  0  0  0  0  0  # atno 16552 bound_to 2006
  -10.9989  -21.6772   19.4596 LP  0  0  0  0  0  0  0  0  0  0  0  0  # atno 16555 bound_to 8549
   -4.0199  -13.9187   26.2021 LP  0  0  0  0  0  0  0  0  0  0  0  0  # atno 16556 bound_to 1821
   -2.6566  -13.0377   26.8065 LP  0  0  0  0  0  0  0  0  0  0  0  0  # atno 16557 bound_to 1821
   -1.9515  -16.5780   27.3194 LP  0  0  0  0  0  0  0  0  0  0  0  0  # atno 16558 bound_to 1854

> <Gold.Score>
     Fitness  S(hb_ext) S(vdw_ext)  S(hb_int)    S(int)      intcor
     35.70       6.00      21.60       0.00      -0.00      -0.77

> <Gold.Goldscore.Fitness>
35.6965

> <Gold.Goldscore.Internal.Vdw>
-0.3938

> <Gold.Goldscore.Internal.Torsion>
-0.3793

> <Gold.Goldscore.External.Vdw>
21.6016

> <Gold.Goldscore.Internal.HBond>
0.0000

> <Gold.Goldscore.External.HBond>
5.9988

> <Gold.Goldscore.Internal.Correction>
-0.7686

> <Gold.Goldscore.Hbonds>
donor molecule, donor type, donor heavy atom, donor atom, acceptor molecule, acceptor atom, score
      L1  H     8    22       P1  7881  1.00

> <Gold.Goldscore.Internal.Vdw.Weighted>
-0.3938

> <Gold.Goldscore.Internal.Torsion.Weighted>
-0.3793

> <Gold.Goldscore.External.Vdw.Weighted>
29.7021

> <Gold.Goldscore.Internal.HBond.Weighted>
0.0000

> <Gold.Goldscore.External.HBond.Weighted>
5.9988

> <Gold.Goldscore.Internal.Correction.Weighted>
-0.7686

> <Gold.Rescore>
     Score     S(PLP)   S(hbond)     S(cho)   S(metal)  DE(clash)   DE(tors)     intcor
     25.65     -23.55       0.75       0.00       0.00       0.00       0.08       ----

> <Gold.PLP.Fitness>
25.6485

> <Gold.PLP.PLP>
-23.5521

> <Gold.PLP.part.hbond>
-2.9177

> <Gold.PLP.part.metal>
0.0000

> <Gold.PLP.part.buried>
2.3830

> <Gold.PLP.part.nonpolar>
-29.6558

> <Gold.PLP.part.repulsive>
4.0574

> <Gold.PLP.ligand.clash>
0.0000

> <Gold.PLP.ligand.torsion>
0.0798

> <Gold.PLP.Chemscore.Hbond>
0.7520

> <Gold.PLP.Chemscore.CHOScore>
0.0000

> <Gold.PLP.Chemscore.Metal>
0.0000

> <Gold.Chemscore.Hbonds>
donor molecule, donor type, donor heavy atom, donor atom, acceptor molecule, acceptor atom, score
      L1  H     8    22       P1  7881  0.86

> <Gold.PLP.Chemscore.Internal.Correction>
   9.000000E+99

#       Name:                CT1002167954
#       Creating user name   hitesit
#       Creation time:       Sun Apr 16 22:50:49 2023


#       File generated by GOLD software.
#

@<TRIPOS>MOLECULE
CT1002167954|ligand_prepared|mol2|1|dock1
    29    30     1
SMALL
NO_CHARGES


@<TRIPOS>ATOM
      1 C1          -5.2839 -16.6187  20.1457 C.3            1 RES1               0.0000
      2 C2          -5.3590 -18.0398  19.5511 C.ar           1 RES1               0.0000
      3 C3          -6.5804 -15.9189  19.7482 C.2            1 RES1               0.0000
      4 C4          -5.1077 -16.7943  21.6499 C.2            1 RES1               0.0000
      5 C5          -4.0936 -15.7833  19.6195 C.3            1 RES1               0.0000
      6 C6          -4.5223 -18.4151  18.5044 C.ar           1 RES1               0.0000
      7 C7          -6.2564 -18.9856  20.0398 C.ar           1 RES1               0.0000
      8 N8          -7.5200 -15.7308  20.7186 N.am           1 RES1               0.0000
      9 O9          -6.7914 -15.5729  18.5924 O.2            1 RES1               0.0000
     10 N10         -6.1207 -16.3694  22.4691 N.am           1 RES1               0.0000
     11 O11         -4.1078 -17.3120  22.1323 O.2            1 RES1               0.0000
     12 C12         -3.9491 -14.4287  20.2949 C.3            1 RES1               0.0000
     13 C13         -4.5785 -19.6906  17.9675 C.ar           1 RES1               0.0000
     14 C14         -6.3111 -20.2605  19.5013 C.ar           1 RES1               0.0000
     15 C15         -7.3320 -15.8737  22.0699 C.2            1 RES1               0.0000
     16 C16         -5.4725 -20.6142  18.4658 C.ar           1 RES1               0.0000
     17 O17         -8.2140 -15.5638  22.8656 O.2            1 RES1               0.0000
     18 H18         -3.1685 -16.3533  19.7697 H              1 RES1               0.0000
     19 H19         -4.2205 -15.6283  18.5409 H              1 RES1               0.0000
     20 H20         -3.8140 -17.7010  18.0976 H              1 RES1               0.0000
     21 H21         -6.9265 -18.7292  20.8533 H              1 RES1               0.0000
     22 H22         -8.4483 -15.4588  20.4112 H              1 RES1               0.0000
     23 H23         -5.9566 -16.4279  23.4691 H              1 RES1               0.0000
     24 H24         -3.0994 -13.8839  19.8889 H              1 RES1               0.0000
     25 H25         -4.8419 -13.8253  20.1442 H              1 RES1               0.0000
     26 H26         -3.7961 -14.5460  21.3657 H              1 RES1               0.0000
     27 H27         -3.9173 -19.9636  17.1517 H              1 RES1               0.0000
     28 H28         -7.0167 -20.9840  19.8962 H              1 RES1               0.0000
     29 H29         -5.5161 -21.6135  18.0453 H              1 RES1               0.0000
@<TRIPOS>BOND
    1    1    2 1     
    2    1    3 1     
    3    1    4 1     
    4    1    5 1     
    5    2    6 ar    
    6    2    7 ar    
    7    3    8 1     
    8    3    9 2     
    9    4   10 1     
   10    4   11 2     
   11    5   12 1     
   12    5   18 1     
   13    5   19 1     
   14    6   13 ar    
   15    6   20 1     
   16    7   14 ar    
   17    7   21 1     
   18    8   15 1     
   19    8   22 1     
   20   10   15 1     
   21   10   23 1     
   22   12   24 1     
   23   12   25 1     
   24   12   26 1     
   25   13   16 ar    
   26   13   27 1     
   27   14   16 ar    
   28   14   28 1     
   29   15   17 2     
   30   16   29 1     
@<TRIPOS>SUBSTRUCTURE
      1 RES1           1
@<TRIPOS>SET
DONOR_HYDROGENS      STATIC     ATOMS    <user>   **** ""
2 22 23
ATOM$RED        STATIC     ATOMS    COLORGROUP SYSTEM
2 22 23
@<TRIPOS>COMMENT
> <Gold.Version>
2022.3.0

> <Gold.Id.Protein>
unknown|3mvj_clean|pdb

> <Gold.Protein.RotatedTorsions>
[ 1772 1742 1743 1744 ] final   11.82 input   69.76 | X-H torsion
[ 1801 1791 1792 1793 ] final -155.39 input  -10.55 | X-H torsion
[ 1839 1818 1819 1820 ] final  155.47 input   43.70 | X-H torsion
[ 2083 2067 2068 2069 ] final  103.88 input   63.04 | X-H torsion
[ 2134 2117 2118 2119 ] final -176.15 input   55.90 | X-H torsion
[ 5632 5617 5618 5619 ] final  -94.63 input   93.34 | X-H torsion
[ 7884 7874 7875 7876 ] final   67.93 input   68.03 | X-H torsion
[ 7924 7916 7917 7918 ] final -159.33 input   66.66 | X-H torsion
[ 8483 8469 8467 8464 ] final -173.64 input   59.99 | X-H torsion
[ 15475 15466 15465 15463 ] final -166.00 input   60.00 | X-H torsion
[ 7991 7973 7974 7975 ] final  -25.99 input   84.71 | X-H torsion
[ 8477 8463 8464 8465 ] final  156.63 input   59.21 | X-H torsion
[ 8522 8507 8508 8509 ] final -101.51 input -104.23 | X-H torsion
[ 2822 2803 2804 2805 ] final  131.74 input  103.27 | X-H torsion
[ 2184 2168 2169 2170 ] final   -2.75 input  106.62 | X-H torsion
[ 2724 2714 2715 2716 ] final  111.51 input   74.66 | X-H torsion
[ 2767 2750 2751 2752 ] final  173.49 input   68.39 | X-H torsion
[ 5506 5481 5482 5483 ] final  170.44 input   57.83 | X-H torsion
[ 5596 5586 5587 5588 ] final   47.54 input -104.43 | X-H torsion
[ 5454 5428 5429 5430 ] final    1.98 input  113.20 | X-H torsion
[ 5462 5439 5438 5436 ] final -113.04 input   59.99 | X-H torsion
[ 5575 5565 5566 5567 ] final -156.16 input  101.53 | X-H torsion
[ 5392 5377 5378 5379 ] final  -45.24 input  130.34 | X-H torsion
[ 8046 8030 8031 8032 ] final   14.92 input   72.86 | X-H torsion
[ 2684 2665 2666 2667 ] final  -62.79 input   26.41 | X-H torsion
[ 5342 5324 5325 5326 ] final   88.44 input   62.58 | X-H torsion
[ 4530 4515 4516 4517 ] final  153.47 input  130.34 | X-H torsion
[ 4589 4567 4568 4569 ] final  126.52 input  104.80 | X-H torsion
[ 5299 5274 5275 5276 ] final -177.21 input   71.10 | X-H torsion
[ 8569 8549 8550 8551 ] final   19.81 input   74.91 | X-H torsion
[ 1864 1854 1855 1856 ] final -156.38 input   57.50 | X-H torsion
[ 15411 15403 15404 15405 ] final   44.39 input  102.24 | X-H torsion
[ 2884 2867 2868 2869 ] final -170.48 input   60.34 | X-H torsion
[ 16459 1745 1744 1743 ] final -116.88 input    0.00 | X-H torsion
[ 16462 1794 1793 1792 ] final  173.64 input   -0.00 | X-H torsion
[ 16466 2070 2069 2068 ] final  -28.94 input    0.00 | X-H torsion
[ 16474 7834 7833 7832 ] final  115.79 input    0.00 | X-H torsion
[ 16477 7877 7876 7875 ] final   11.56 input    0.00 | X-H torsion
[ 16486 7919 7918 7917 ] final   24.15 input    0.00 | X-H torsion
[ 16490 8466 8465 8464 ] final  171.67 input    0.00 | X-H torsion
[ 16495 2717 2716 2715 ] final   52.06 input    0.00 | X-H torsion
[ 16498 5484 5483 5482 ] final -112.80 input    0.00 | X-H torsion
[ 16500 2120 2119 2118 ] final  -97.21 input    0.00 | X-H torsion
[ 16505 2753 2752 2751 ] final -108.87 input    0.00 | X-H torsion
[ 16507 5380 5379 5378 ] final  166.71 input    0.00 | X-H torsion
[ 16510 1701 1700 1699 ] final  -82.64 input   -0.00 | X-H torsion
[ 16513 5589 5588 5587 ] final   28.71 input    0.00 | X-H torsion
[ 16515 2668 2667 2666 ] final  125.84 input    0.00 | X-H torsion
[ 16517 5327 5326 5325 ] final  121.37 input   -0.00 | X-H torsion
[ 16520 5431 5430 5429 ] final   -5.35 input    0.00 | X-H torsion
[ 16525 5532 5531 5530 ] final   17.22 input   -0.00 | X-H torsion
[ 16530 8033 8032 8031 ] final -119.44 input    0.00 | X-H torsion
[ 16534 8371 8370 8369 ] final -144.64 input    0.00 | X-H torsion
[ 16536 4570 4569 4568 ] final -128.82 input    0.00 | X-H torsion
[ 16539 4518 4517 4516 ] final -119.01 input    0.00 | X-H torsion
[ 16542 5228 5227 5226 ] final  117.98 input    0.00 | X-H torsion
[ 16544 5277 5276 5275 ] final  -10.84 input    0.00 | X-H torsion
[ 16548 8418 8417 8416 ] final   -6.93 input    0.00 | X-H torsion
[ 16551 2006 2005 2004 ] final  121.75 input    0.00 | X-H torsion
[ 16556 1821 1820 1819 ] final  145.17 input    0.00 | X-H torsion

> <Gold.Protein.ActiveResidues>
 THR48   LEU49   GLY50   THR51   GLY52   ARG56   VAL57   MET58   LEU59   TYR69  
 ALA70   MET71   LYS72   ILE73   GLU91   LEU95   VAL104  LYS105  LEU106  MET118 
 VAL119  MET120  GLU121  TYR122  VAL123  PRO124  GLY125  GLY126  GLU127  GLU170 
 ASN171  LEU172  LEU173  ILE174  ASP175  GLN181  VAL182  THR183  ASP184  PHE185 
 ASN326  PHE327  ASP328  TYR330 

> <Gold.Protein.RotatedAtoms>
    2.7716  -15.1522   20.9124 H   0  0  0  0  0  0  0  0  0  0  0  0  # atno 1772 bound_to 1742
    0.9048  -13.3986   20.6727 H   0  0  0  0  0  0  0  0  0  0  0  0  # atno 1801 bound_to 1791
   -0.0590  -13.9579   24.2278 H   0  0  0  0  0  0  0  0  0  0  0  0  # atno 1839 bound_to 1818
   -2.8651  -15.4184   26.3734 H   0  0  0  0  0  0  0  0  0  0  0  0  # atno 1864 bound_to 1854
   -0.2116  -17.8938   22.7707 H   0  0  0  0  0  0  0  0  0  0  0  0  # atno 2083 bound_to 2067
    2.5039  -19.0256   20.9460 H   0  0  0  0  0  0  0  0  0  0  0  0  # atno 2134 bound_to 2117
    5.2828  -18.5538   18.1095 H   0  0  0  0  0  0  0  0  0  0  0  0  # atno 2184 bound_to 2168
    4.8837  -20.9472   11.3276 H   0  0  0  0  0  0  0  0  0  0  0  0  # atno 2684 bound_to 2665
    1.2855  -21.4921   13.0438 H   0  0  0  0  0  0  0  0  0  0  0  0  # atno 2724 bound_to 2714
    2.4445  -22.3575   16.2917 H   0  0  0  0  0  0  0  0  0  0  0  0  # atno 2767 bound_to 2750
   -0.5058  -23.4678   18.8582 H   0  0  0  0  0  0  0  0  0  0  0  0  # atno 2822 bound_to 2803
    0.7213  -23.6091   22.2271 H   0  0  0  0  0  0  0  0  0  0  0  0  # atno 2884 bound_to 2867
   -9.1610  -21.6773   10.9542 H   0  0  0  0  0  0  0  0  0  0  0  0  # atno 4530 bound_to 4515
   -6.2309  -24.3706    8.9341 H   0  0  0  0  0  0  0  0  0  0  0  0  # atno 4589 bound_to 4567
    0.0330  -27.4625   17.8018 H   0  0  0  0  0  0  0  0  0  0  0  0  # atno 5299 bound_to 5274
   -0.4807  -24.2998   15.1865 H   0  0  0  0  0  0  0  0  0  0  0  0  # atno 5342 bound_to 5324
   -0.9813  -23.8383   11.9858 H   0  0  0  0  0  0  0  0  0  0  0  0  # atno 5392 bound_to 5377
   -0.2227  -21.2291    9.5875 H   0  0  0  0  0  0  0  0  0  0  0  0  # atno 5454 bound_to 5428
    3.1790  -13.1901   10.8797 H   0  0  0  0  0  0  0  0  0  0  0  0  # atno 5462 bound_to 5439
   -1.1592  -18.5935   10.3666 H   0  0  0  0  0  0  0  0  0  0  0  0  # atno 5506 bound_to 5481
   -0.3262  -12.3310    7.9401 H   0  0  0  0  0  0  0  0  0  0  0  0  # atno 5575 bound_to 5565
   -2.6696  -10.6878   10.1297 H   0  0  0  0  0  0  0  0  0  0  0  0  # atno 5596 bound_to 5586
   -4.2938  -10.6486   12.7052 H   0  0  0  0  0  0  0  0  0  0  0  0  # atno 5632 bound_to 5617
  -11.0826  -12.5716   17.3654 H   0  0  0  0  0  0  0  0  0  0  0  0  # atno 7884 bound_to 7874
  -10.8333  -14.1692   15.5117 H   0  0  0  0  0  0  0  0  0  0  0  0  # atno 7924 bound_to 7916
   -9.2140  -13.8192   11.7740 H   0  0  0  0  0  0  0  0  0  0  0  0  # atno 7991 bound_to 7973
   -5.5918  -12.9714    9.9501 H   0  0  0  0  0  0  0  0  0  0  0  0  # atno 8046 bound_to 8030
   -9.3217  -18.6652   13.5716 H   0  0  0  0  0  0  0  0  0  0  0  0  # atno 8477 bound_to 8463
   -6.8923  -17.4118   16.0357 H   0  0  0  0  0  0  0  0  0  0  0  0  # atno 8483 bound_to 8469
   -8.5826  -21.0598   17.4213 H   0  0  0  0  0  0  0  0  0  0  0  0  # atno 8522 bound_to 8507
  -10.1878  -22.6477   19.9251 H   0  0  0  0  0  0  0  0  0  0  0  0  # atno 8569 bound_to 8549
    1.4132   -8.9230   17.9891 H   0  0  0  0  0  0  0  0  0  0  0  0  # atno 15411 bound_to 15403
   -2.0806   -9.6453   22.2915 H   0  0  0  0  0  0  0  0  0  0  0  0  # atno 15475 bound_to 15466
    3.9566  -14.7769   19.6804 LP  0  0  0  0  0  0  0  0  0  0  0  0  # atno 16458 bound_to 1742
   -0.5232  -12.2244   19.8782 LP  0  0  0  0  0  0  0  0  0  0  0  0  # atno 16459 bound_to 1745
   -0.6725  -13.5295   18.7493 LP  0  0  0  0  0  0  0  0  0  0  0  0  # atno 16460 bound_to 1745
    1.2470  -14.9539   21.4000 LP  0  0  0  0  0  0  0  0  0  0  0  0  # atno 16461 bound_to 1791
    0.3805  -16.3369   24.3279 LP  0  0  0  0  0  0  0  0  0  0  0  0  # atno 16462 bound_to 1794
    0.5773  -16.2270   22.6106 LP  0  0  0  0  0  0  0  0  0  0  0  0  # atno 16463 bound_to 1794
   -1.7944  -14.0656   24.0355 LP  0  0  0  0  0  0  0  0  0  0  0  0  # atno 16464 bound_to 1818
    0.9871  -19.0817   23.2445 LP  0  0  0  0  0  0  0  0  0  0  0  0  # atno 16465 bound_to 2067
    1.3926  -16.5420   20.9055 LP  0  0  0  0  0  0  0  0  0  0  0  0  # atno 16466 bound_to 2070
    3.0872  -16.9000   20.8871 LP  0  0  0  0  0  0  0  0  0  0  0  0  # atno 16467 bound_to 2070
    2.0365  -19.7246   19.4109 LP  0  0  0  0  0  0  0  0  0  0  0  0  # atno 16468 bound_to 2117
   -3.9690   -9.6161   14.0823 LP  0  0  0  0  0  0  0  0  0  0  0  0  # atno 16469 bound_to 5617
   -7.8770  -13.6050   18.5882 LP  0  0  0  0  0  0  0  0  0  0  0  0  # atno 16474 bound_to 7834
   -7.2620  -12.5020   17.4028 LP  0  0  0  0  0  0  0  0  0  0  0  0  # atno 16475 bound_to 7834
   -9.3879  -12.4880   17.7692 LP  0  0  0  0  0  0  0  0  0  0  0  0  # atno 16476 bound_to 7874
  -10.5207  -16.6067   15.8704 LP  0  0  0  0  0  0  0  0  0  0  0  0  # atno 16477 bound_to 7877
  -10.2892  -16.0264   14.2550 LP  0  0  0  0  0  0  0  0  0  0  0  0  # atno 16478 bound_to 7877
   -9.5522  -12.9986   15.3142 LP  0  0  0  0  0  0  0  0  0  0  0  0  # atno 16479 bound_to 7916
   -8.2672  -17.6888   16.8615 LP  0  0  0  0  0  0  0  0  0  0  0  0  # atno 16480 bound_to 8469
   -8.3267  -17.3156   15.2728 LP  0  0  0  0  0  0  0  0  0  0  0  0  # atno 16481 bound_to 8469
   -1.8348  -10.9552   21.3581 LP  0  0  0  0  0  0  0  0  0  0  0  0  # atno 16484 bound_to 15466
   -1.2919   -9.4924   20.8765 LP  0  0  0  0  0  0  0  0  0  0  0  0  # atno 16485 bound_to 15466
   -8.9823  -11.5209   13.6555 LP  0  0  0  0  0  0  0  0  0  0  0  0  # atno 16486 bound_to 7919
   -8.0853  -11.6927   12.1838 LP  0  0  0  0  0  0  0  0  0  0  0  0  # atno 16487 bound_to 7919
   -8.3455  -14.7463   12.9702 LP  0  0  0  0  0  0  0  0  0  0  0  0  # atno 16488 bound_to 7973
  -10.8118  -18.8012   14.4815 LP  0  0  0  0  0  0  0  0  0  0  0  0  # atno 16489 bound_to 8463
  -11.3548  -18.8686   17.7086 LP  0  0  0  0  0  0  0  0  0  0  0  0  # atno 16490 bound_to 8466
  -10.9881  -18.1655   16.1687 LP  0  0  0  0  0  0  0  0  0  0  0  0  # atno 16491 bound_to 8466
   -9.7540  -19.8066   17.0357 LP  0  0  0  0  0  0  0  0  0  0  0  0  # atno 16492 bound_to 8507
    0.4338  -23.5538   14.8945 LP  0  0  0  0  0  0  0  0  0  0  0  0  # atno 16495 bound_to 2717
   -0.3320  -23.3319   16.4322 LP  0  0  0  0  0  0  0  0  0  0  0  0  # atno 16496 bound_to 2717
    1.0513  -23.3919   19.6603 LP  0  0  0  0  0  0  0  0  0  0  0  0  # atno 16497 bound_to 2803
   -1.5947  -13.8347   10.8131 LP  0  0  0  0  0  0  0  0  0  0  0  0  # atno 16498 bound_to 5484
   -0.6342  -15.0361   11.6093 LP  0  0  0  0  0  0  0  0  0  0  0  0  # atno 16499 bound_to 5484
    4.3866  -20.8466   17.1990 LP  0  0  0  0  0  0  0  0  0  0  0  0  # atno 16500 bound_to 2120
    2.8258  -20.1136   17.0356 LP  0  0  0  0  0  0  0  0  0  0  0  0  # atno 16501 bound_to 2120
    4.1314  -17.4793   17.3553 LP  0  0  0  0  0  0  0  0  0  0  0  0  # atno 16502 bound_to 2168
    2.7828  -22.0239   13.7711 LP  0  0  0  0  0  0  0  0  0  0  0  0  # atno 16503 bound_to 2714
    1.5115  -21.3638   17.3905 LP  0  0  0  0  0  0  0  0  0  0  0  0  # atno 16504 bound_to 2750
    2.2844  -22.4709   21.0208 LP  0  0  0  0  0  0  0  0  0  0  0  0  # atno 16505 bound_to 2753
    2.0498  -21.1904   19.8783 LP  0  0  0  0  0  0  0  0  0  0  0  0  # atno 16506 bound_to 2753
   -1.4348  -20.1069   11.7203 LP  0  0  0  0  0  0  0  0  0  0  0  0  # atno 16507 bound_to 5380
   -2.5885  -21.3081   11.2446 LP  0  0  0  0  0  0  0  0  0  0  0  0  # atno 16508 bound_to 5380
    0.0634  -17.3896   10.7101 LP  0  0  0  0  0  0  0  0  0  0  0  0  # atno 16509 bound_to 5481
    4.2953  -12.2749   20.9299 LP  0  0  0  0  0  0  0  0  0  0  0  0  # atno 16510 bound_to 1701
    4.8202  -12.6994   19.3348 LP  0  0  0  0  0  0  0  0  0  0  0  0  # atno 16511 bound_to 1701
   -1.4543  -11.6914   10.8875 LP  0  0  0  0  0  0  0  0  0  0  0  0  # atno 16512 bound_to 5586
   -4.5016  -11.6729   10.7995 LP  0  0  0  0  0  0  0  0  0  0  0  0  # atno 16513 bound_to 5589
   -5.7907  -10.6696   11.3753 LP  0  0  0  0  0  0  0  0  0  0  0  0  # atno 16514 bound_to 5589
    3.8999  -19.8711   14.2288 LP  0  0  0  0  0  0  0  0  0  0  0  0  # atno 16515 bound_to 2668
    4.8643  -21.2994   14.4010 LP  0  0  0  0  0  0  0  0  0  0  0  0  # atno 16516 bound_to 2668
    1.0499  -23.7287   11.8285 LP  0  0  0  0  0  0  0  0  0  0  0  0  # atno 16517 bound_to 5327
    0.4380  -22.7751   13.1385 LP  0  0  0  0  0  0  0  0  0  0  0  0  # atno 16518 bound_to 5327
    0.8545  -21.6907   10.8830 LP  0  0  0  0  0  0  0  0  0  0  0  0  # atno 16519 bound_to 5428
    0.1577  -19.7694    8.1411 LP  0  0  0  0  0  0  0  0  0  0  0  0  # atno 16520 bound_to 5431
   -0.9681  -18.4671    7.9503 LP  0  0  0  0  0  0  0  0  0  0  0  0  # atno 16521 bound_to 5431
    4.5563  -13.7050   11.5763 LP  0  0  0  0  0  0  0  0  0  0  0  0  # atno 16522 bound_to 5439
    3.1995  -13.5364   12.4694 LP  0  0  0  0  0  0  0  0  0  0  0  0  # atno 16523 bound_to 5439
    1.7923  -11.5066    9.8876 LP  0  0  0  0  0  0  0  0  0  0  0  0  # atno 16525 bound_to 5532
    0.3292  -10.5933   10.0462 LP  0  0  0  0  0  0  0  0  0  0  0  0  # atno 16526 bound_to 5532
   -1.2803  -12.8131    9.3273 LP  0  0  0  0  0  0  0  0  0  0  0  0  # atno 16527 bound_to 5565
   -2.1899  -24.5048   10.9134 LP  0  0  0  0  0  0  0  0  0  0  0  0  # atno 16528 bound_to 5377
   -7.2561  -12.4641   10.1417 LP  0  0  0  0  0  0  0  0  0  0  0  0  # atno 16529 bound_to 8030
   -3.5809  -12.0896    7.0696 LP  0  0  0  0  0  0  0  0  0  0  0  0  # atno 16530 bound_to 8033
   -3.8523  -12.6471    8.6869 LP  0  0  0  0  0  0  0  0  0  0  0  0  # atno 16531 bound_to 8033
    5.5916  -22.5106   11.6679 LP  0  0  0  0  0  0  0  0  0  0  0  0  # atno 16532 bound_to 2665
   -0.1085  -25.8292   14.4385 LP  0  0  0  0  0  0  0  0  0  0  0  0  # atno 16533 bound_to 5324
   -9.2773  -17.0917   12.5406 LP  0  0  0  0  0  0  0  0  0  0  0  0  # atno 16534 bound_to 8371
   -9.2318  -15.9123   11.2729 LP  0  0  0  0  0  0  0  0  0  0  0  0  # atno 16535 bound_to 8371
   -3.2145  -25.9818   11.5041 LP  0  0  0  0  0  0  0  0  0  0  0  0  # atno 16536 bound_to 4570
   -4.4656  -24.7841   11.5231 LP  0  0  0  0  0  0  0  0  0  0  0  0  # atno 16537 bound_to 4570
   -9.5581  -23.1790   10.1610 LP  0  0  0  0  0  0  0  0  0  0  0  0  # atno 16538 bound_to 4515
   -7.7073  -25.7719   11.9961 LP  0  0  0  0  0  0  0  0  0  0  0  0  # atno 16539 bound_to 4518
   -9.0871  -25.1539   11.1509 LP  0  0  0  0  0  0  0  0  0  0  0  0  # atno 16540 bound_to 4518
   -6.8489  -24.5725   10.5658 LP  0  0  0  0  0  0  0  0  0  0  0  0  # atno 16541 bound_to 4567
    0.2894  -25.1898   18.4445 LP  0  0  0  0  0  0  0  0  0  0  0  0  # atno 16542 bound_to 5228
   -1.4216  -24.9205   18.4292 LP  0  0  0  0  0  0  0  0  0  0  0  0  # atno 16543 bound_to 5228
   -0.4259  -28.0847   14.2141 LP  0  0  0  0  0  0  0  0  0  0  0  0  # atno 16544 bound_to 5277
   -1.4481  -26.9946   13.3386 LP  0  0  0  0  0  0  0  0  0  0  0  0  # atno 16545 bound_to 5277
  -10.5413  -21.0883   12.1401 LP  0  0  0  0  0  0  0  0  0  0  0  0  # atno 16548 bound_to 8418
   -9.4205  -21.2499   13.4508 LP  0  0  0  0  0  0  0  0  0  0  0  0  # atno 16549 bound_to 8418
   -1.2451  -27.5317   16.6120 LP  0  0  0  0  0  0  0  0  0  0  0  0  # atno 16550 bound_to 5274
   -0.2745  -21.1654   22.8502 LP  0  0  0  0  0  0  0  0  0  0  0  0  # atno 16551 bound_to 2006
    1.1804  -21.2626   23.7851 LP  0  0  0  0  0  0  0  0  0  0  0  0  # atno 16552 bound_to 2006
  -10.8960  -22.0745   18.4386 LP  0  0  0  0  0  0  0  0  0  0  0  0  # atno 16555 bound_to 8549
   -4.0686  -13.9431   26.4848 LP  0  0  0  0  0  0  0  0  0  0  0  0  # atno 16556 bound_to 1821
   -2.6079  -13.0132   26.5238 LP  0  0  0  0  0  0  0  0  0  0  0  0  # atno 16557 bound_to 1821
   -1.9804  -16.6354   27.2770 LP  0  0  0  0  0  0  0  0  0  0  0  0  # atno 16558 bound_to 1854

> <Gold.Score>
     Fitness  S(hb_ext) S(vdw_ext)  S(hb_int)    S(int)      intcor
     35.32       6.00      21.79       0.00      -0.65      -0.82

> <Gold.Goldscore.Fitness>
35.3212

> <Gold.Goldscore.Internal.Vdw>
-1.0584

> <Gold.Goldscore.Internal.Torsion>
-0.4057

> <Gold.Goldscore.External.Vdw>
21.7946

> <Gold.Goldscore.Internal.HBond>
0.0000

> <Gold.Goldscore.External.HBond>
6.0000

> <Gold.Goldscore.Internal.Correction>
-0.8177

> <Gold.Goldscore.Hbonds>
donor molecule, donor type, donor heavy atom, donor atom, acceptor molecule, acceptor atom, score
      L1  H     8    22       P1  7881  1.00

> <Gold.Goldscore.Internal.Vdw.Weighted>
-1.0584

> <Gold.Goldscore.Internal.Torsion.Weighted>
-0.4057

> <Gold.Goldscore.External.Vdw.Weighted>
29.9675

> <Gold.Goldscore.Internal.HBond.Weighted>
0.0000

> <Gold.Goldscore.External.HBond.Weighted>
6.0000

> <Gold.Goldscore.Internal.Correction.Weighted>
-0.8177

> <Gold.Rescore>
     Score     S(PLP)   S(hbond)     S(cho)   S(metal)  DE(clash)   DE(tors)     intcor
     31.11     -28.40       1.00       0.00       0.00       0.00       0.15       ----

> <Gold.PLP.Fitness>
31.1095

> <Gold.PLP.PLP>
-28.4048

> <Gold.PLP.part.hbond>
-1.0000

> <Gold.PLP.part.metal>
0.0000

> <Gold.PLP.part.buried>
-0.9907

> <Gold.PLP.part.nonpolar>
-27.5462

> <Gold.PLP.part.repulsive>
0.4432

> <Gold.PLP.ligand.clash>
0.0000

> <Gold.PLP.ligand.torsion>
0.1477

> <Gold.PLP.Chemscore.Hbond>
1.0000

> <Gold.PLP.Chemscore.CHOScore>
0.0000

> <Gold.PLP.Chemscore.Metal>
0.0000

> <Gold.Chemscore.Hbonds>
donor molecule, donor type, donor heavy atom, donor atom, acceptor molecule, acceptor atom, score
      L1  H     8    22       P1  7881  0.70

> <Gold.PLP.Chemscore.Internal.Correction>
   9.000000E+99

#       Name:                CT1002167954
#       Creating user name   hitesit
#       Creation time:       Sun Apr 16 22:51:00 2023


#       File generated by GOLD software.
#

@<TRIPOS>MOLECULE
CT1002167954|ligand_prepared|mol2|1|dock10
    29    30     1
SMALL
NO_CHARGES


@<TRIPOS>ATOM
      1 C1          -4.6868 -15.4050  21.5068 C.3            1 RES1               0.0000
      2 C2          -4.6752 -16.5987  22.4834 C.ar           1 RES1               0.0000
      3 C3          -6.0548 -15.4176  20.8311 C.2            1 RES1               0.0000
      4 C4          -4.4202 -14.1623  22.3490 C.2            1 RES1               0.0000
      5 C5          -3.5974 -15.4829  20.4120 C.3            1 RES1               0.0000
      6 C6          -3.4966 -16.9879  23.1129 C.ar           1 RES1               0.0000
      7 C7          -5.8336 -17.3175  22.7664 C.ar           1 RES1               0.0000
      8 N8          -6.9560 -14.4672  21.2112 N.am           1 RES1               0.0000
      9 O9          -6.3521 -16.2725  20.0060 O.2            1 RES1               0.0000
     10 N10         -5.4216 -13.2332  22.4574 N.am           1 RES1               0.0000
     11 O11         -3.3580 -13.9872  22.9332 O.2            1 RES1               0.0000
     12 C12         -3.5341 -14.2520  19.5214 C.3            1 RES1               0.0000
     13 C13         -3.4772 -18.0551  23.9955 C.ar           1 RES1               0.0000
     14 C14         -5.8119 -18.3846  23.6492 C.ar           1 RES1               0.0000
     15 C15         -6.6883 -13.3440  21.9518 C.2            1 RES1               0.0000
     16 C16         -4.6348 -18.7538  24.2646 C.ar           1 RES1               0.0000
     17 O17         -7.5511 -12.4906  22.1376 O.2            1 RES1               0.0000
     18 H18         -2.6216 -15.6206  20.8939 H              1 RES1               0.0000
     19 H19         -3.7889 -16.3626  19.7852 H              1 RES1               0.0000
     20 H20         -2.5753 -16.4515  22.9116 H              1 RES1               0.0000
     21 H21         -6.7709 -17.0456  22.2930 H              1 RES1               0.0000
     22 H22         -7.9180 -14.6043  20.9178 H              1 RES1               0.0000
     23 H23         -5.2025 -12.3799  22.9616 H              1 RES1               0.0000
     24 H24         -2.7536 -14.3586  18.7710 H              1 RES1               0.0000
     25 H25         -4.4804 -14.0991  19.0068 H              1 RES1               0.0000
     26 H26         -3.3201 -13.3615  20.1089 H              1 RES1               0.0000
     27 H27         -2.5479 -18.3425  24.4762 H              1 RES1               0.0000
     28 H28         -6.7252 -18.9321  23.8576 H              1 RES1               0.0000
     29 H29         -4.6194 -19.5895  24.9564 H              1 RES1               0.0000
@<TRIPOS>BOND
    1    1    2 1     
    2    1    3 1     
    3    1    4 1     
    4    1    5 1     
    5    2    6 ar    
    6    2    7 ar    
    7    3    8 1     
    8    3    9 2     
    9    4   10 1     
   10    4   11 2     
   11    5   12 1     
   12    5   18 1     
   13    5   19 1     
   14    6   13 ar    
   15    6   20 1     
   16    7   14 ar    
   17    7   21 1     
   18    8   15 1     
   19    8   22 1     
   20   10   15 1     
   21   10   23 1     
   22   12   24 1     
   23   12   25 1     
   24   12   26 1     
   25   13   16 ar    
   26   13   27 1     
   27   14   16 ar    
   28   14   28 1     
   29   15   17 2     
   30   16   29 1     
@<TRIPOS>SUBSTRUCTURE
      1 RES1           1
@<TRIPOS>SET
DONOR_HYDROGENS      STATIC     ATOMS    <user>   **** ""
2 22 23
ATOM$RED        STATIC     ATOMS    COLORGROUP SYSTEM
2 22 23
@<TRIPOS>COMMENT
> <Gold.Version>
2022.3.0

> <Gold.Id.Protein>
unknown|3mvj_clean|pdb

> <Gold.Protein.RotatedTorsions>
[ 1772 1742 1743 1744 ] final  -63.65 input   69.76 | X-H torsion
[ 1801 1791 1792 1793 ] final   40.23 input  -10.55 | X-H torsion
[ 1839 1818 1819 1820 ] final  -22.28 input   43.70 | X-H torsion
[ 2083 2067 2068 2069 ] final  -30.06 input   63.04 | X-H torsion
[ 2134 2117 2118 2119 ] final  113.58 input   55.90 | X-H torsion
[ 5632 5617 5618 5619 ] final -168.33 input   93.34 | X-H torsion
[ 7884 7874 7875 7876 ] final  -51.80 input   68.03 | X-H torsion
[ 7924 7916 7917 7918 ] final   19.95 input   66.66 | X-H torsion
[ 8483 8469 8467 8464 ] final  -86.69 input   59.99 | X-H torsion
[ 15475 15466 15465 15463 ] final  -86.38 input   60.00 | X-H torsion
[ 7991 7973 7974 7975 ] final  -36.79 input   84.71 | X-H torsion
[ 8477 8463 8464 8465 ] final   36.83 input   59.21 | X-H torsion
[ 8522 8507 8508 8509 ] final  -59.71 input -104.23 | X-H torsion
[ 2822 2803 2804 2805 ] final  -71.63 input  103.27 | X-H torsion
[ 2184 2168 2169 2170 ] final  -35.88 input  106.62 | X-H torsion
[ 2724 2714 2715 2716 ] final -151.00 input   74.66 | X-H torsion
[ 2767 2750 2751 2752 ] final -136.52 input   68.39 | X-H torsion
[ 5506 5481 5482 5483 ] final -114.72 input   57.83 | X-H torsion
[ 5596 5586 5587 5588 ] final  137.83 input -104.43 | X-H torsion
[ 5454 5428 5429 5430 ] final   93.75 input  113.20 | X-H torsion
[ 5462 5439 5438 5436 ] final   41.88 input   59.99 | X-H torsion
[ 5575 5565 5566 5567 ] final  -99.39 input  101.53 | X-H torsion
[ 5392 5377 5378 5379 ] final  167.19 input  130.34 | X-H torsion
[ 8046 8030 8031 8032 ] final -172.92 input   72.86 | X-H torsion
[ 2684 2665 2666 2667 ] final  124.99 input   26.41 | X-H torsion
[ 5342 5324 5325 5326 ] final   78.20 input   62.58 | X-H torsion
[ 4530 4515 4516 4517 ] final -166.23 input  130.34 | X-H torsion
[ 4589 4567 4568 4569 ] final   13.37 input  104.80 | X-H torsion
[ 5299 5274 5275 5276 ] final   70.92 input   71.10 | X-H torsion
[ 8569 8549 8550 8551 ] final  -78.55 input   74.91 | X-H torsion
[ 1864 1854 1855 1856 ] final  172.93 input   57.50 | X-H torsion
[ 15411 15403 15404 15405 ] final    4.33 input  102.24 | X-H torsion
[ 2884 2867 2868 2869 ] final   69.98 input   60.34 | X-H torsion
[ 16459 1745 1744 1743 ] final   90.91 input    0.00 | X-H torsion
[ 16462 1794 1793 1792 ] final  114.82 input   -0.00 | X-H torsion
[ 16466 2070 2069 2068 ] final  -44.12 input    0.00 | X-H torsion
[ 16474 7834 7833 7832 ] final -147.40 input    0.00 | X-H torsion
[ 16477 7877 7876 7875 ] final   -1.99 input    0.00 | X-H torsion
[ 16486 7919 7918 7917 ] final -162.33 input    0.00 | X-H torsion
[ 16490 8466 8465 8464 ] final  -59.67 input    0.00 | X-H torsion
[ 16495 2717 2716 2715 ] final -120.08 input    0.00 | X-H torsion
[ 16498 5484 5483 5482 ] final  -45.61 input    0.00 | X-H torsion
[ 16500 2120 2119 2118 ] final -169.55 input    0.00 | X-H torsion
[ 16505 2753 2752 2751 ] final  156.84 input    0.00 | X-H torsion
[ 16507 5380 5379 5378 ] final   93.41 input    0.00 | X-H torsion
[ 16510 1701 1700 1699 ] final   96.29 input   -0.00 | X-H torsion
[ 16513 5589 5588 5587 ] final   18.66 input    0.00 | X-H torsion
[ 16515 2668 2667 2666 ] final   51.20 input    0.00 | X-H torsion
[ 16517 5327 5326 5325 ] final -110.74 input   -0.00 | X-H torsion
[ 16520 5431 5430 5429 ] final   -6.11 input    0.00 | X-H torsion
[ 16525 5532 5531 5530 ] final  -73.53 input   -0.00 | X-H torsion
[ 16530 8033 8032 8031 ] final -105.97 input    0.00 | X-H torsion
[ 16534 8371 8370 8369 ] final  -45.83 input    0.00 | X-H torsion
[ 16536 4570 4569 4568 ] final  141.24 input    0.00 | X-H torsion
[ 16539 4518 4517 4516 ] final  122.70 input    0.00 | X-H torsion
[ 16542 5228 5227 5226 ] final   53.74 input    0.00 | X-H torsion
[ 16544 5277 5276 5275 ] final  -64.99 input    0.00 | X-H torsion
[ 16548 8418 8417 8416 ] final -103.03 input    0.00 | X-H torsion
[ 16551 2006 2005 2004 ] final  -24.53 input    0.00 | X-H torsion
[ 16556 1821 1820 1819 ] final   -0.93 input    0.00 | X-H torsion

> <Gold.Protein.ActiveResidues>
 THR48   LEU49   GLY50   THR51   GLY52   ARG56   VAL57   MET58   LEU59   TYR69  
 ALA70   MET71   LYS72   ILE73   GLU91   LEU95   VAL104  LYS105  LEU106  MET118 
 VAL119  MET120  GLU121  TYR122  VAL123  PRO124  GLY125  GLY126  GLU127  GLU170 
 ASN171  LEU172  LEU173  ILE174  ASP175  GLN181  VAL182  THR183  ASP184  PHE185 
 ASN326  PHE327  ASP328  TYR330 

> <Gold.Protein.RotatedAtoms>
    3.4352  -14.2907   20.8670 H   0  0  0  0  0  0  0  0  0  0  0  0  # atno 1772 bound_to 1742
    1.0937  -15.0564   21.2453 H   0  0  0  0  0  0  0  0  0  0  0  0  # atno 1801 bound_to 1791
   -1.8232  -14.0442   24.0617 H   0  0  0  0  0  0  0  0  0  0  0  0  # atno 1839 bound_to 1818
   -2.9864  -15.8339   26.1768 H   0  0  0  0  0  0  0  0  0  0  0  0  # atno 1864 bound_to 1854
    1.2926  -18.4889   23.0785 H   0  0  0  0  0  0  0  0  0  0  0  0  # atno 2083 bound_to 2067
    2.7032  -19.9855   20.6506 H   0  0  0  0  0  0  0  0  0  0  0  0  # atno 2134 bound_to 2117
    4.8845  -18.8343   17.9864 H   0  0  0  0  0  0  0  0  0  0  0  0  # atno 2184 bound_to 2168
    5.5498  -22.5713   11.5699 H   0  0  0  0  0  0  0  0  0  0  0  0  # atno 2684 bound_to 2665
    2.5103  -21.0261   13.2628 H   0  0  0  0  0  0  0  0  0  0  0  0  # atno 2724 bound_to 2714
    1.6985  -22.4052   16.2078 H   0  0  0  0  0  0  0  0  0  0  0  0  # atno 2767 bound_to 2750
    1.0164  -23.0381   19.6141 H   0  0  0  0  0  0  0  0  0  0  0  0  # atno 2822 bound_to 2803
    0.3473  -22.4830   23.2028 H   0  0  0  0  0  0  0  0  0  0  0  0  # atno 2884 bound_to 2867
   -9.1348  -21.6092   10.3540 H   0  0  0  0  0  0  0  0  0  0  0  0  # atno 4530 bound_to 4515
   -5.9326  -24.2986   10.4072 H   0  0  0  0  0  0  0  0  0  0  0  0  # atno 4589 bound_to 4567
   -0.5343  -28.2022   16.6726 H   0  0  0  0  0  0  0  0  0  0  0  0  # atno 5299 bound_to 5274
   -0.3626  -24.2449   15.1006 H   0  0  0  0  0  0  0  0  0  0  0  0  # atno 5342 bound_to 5324
   -1.7976  -24.7855   10.8357 H   0  0  0  0  0  0  0  0  0  0  0  0  # atno 5392 bound_to 5377
    1.0186  -21.4596    9.7004 H   0  0  0  0  0  0  0  0  0  0  0  0  # atno 5454 bound_to 5428
    3.7344  -13.6978   12.5448 H   0  0  0  0  0  0  0  0  0  0  0  0  # atno 5462 bound_to 5439
   -0.2764  -18.3699    9.7852 H   0  0  0  0  0  0  0  0  0  0  0  0  # atno 5506 bound_to 5481
   -0.0274  -12.1584    8.7141 H   0  0  0  0  0  0  0  0  0  0  0  0  # atno 5575 bound_to 5565
   -1.4713  -10.5295   10.4735 H   0  0  0  0  0  0  0  0  0  0  0  0  # atno 5596 bound_to 5586
   -3.9824  -10.9590   13.6804 H   0  0  0  0  0  0  0  0  0  0  0  0  # atno 5632 bound_to 5617
   -9.6452  -12.3245   16.9482 H   0  0  0  0  0  0  0  0  0  0  0  0  # atno 7884 bound_to 7874
   -9.5318  -12.9949   15.3110 H   0  0  0  0  0  0  0  0  0  0  0  0  # atno 7924 bound_to 7916
   -9.1985  -13.6949   11.8818 H   0  0  0  0  0  0  0  0  0  0  0  0  # atno 7991 bound_to 7973
   -7.2380  -12.3417   10.1528 H   0  0  0  0  0  0  0  0  0  0  0  0  # atno 8046 bound_to 8030
  -10.2789  -18.1233   14.6520 H   0  0  0  0  0  0  0  0  0  0  0  0  # atno 8477 bound_to 8463
   -7.8108  -17.2563   15.1455 H   0  0  0  0  0  0  0  0  0  0  0  0  # atno 8483 bound_to 8469
   -9.1353  -21.3183   17.2111 H   0  0  0  0  0  0  0  0  0  0  0  0  # atno 8522 bound_to 8507
  -10.9783  -21.6710   19.5013 H   0  0  0  0  0  0  0  0  0  0  0  0  # atno 8569 bound_to 8549
    1.9093   -8.7587   17.6820 H   0  0  0  0  0  0  0  0  0  0  0  0  # atno 15411 bound_to 15403
   -1.4913   -9.1361   21.3804 H   0  0  0  0  0  0  0  0  0  0  0  0  # atno 15475 bound_to 15466
    3.3143  -15.6107   19.7244 LP  0  0  0  0  0  0  0  0  0  0  0  0  # atno 16458 bound_to 1742
   -0.9222  -13.6398   19.0631 LP  0  0  0  0  0  0  0  0  0  0  0  0  # atno 16459 bound_to 1745
   -0.2735  -12.1141   19.5644 LP  0  0  0  0  0  0  0  0  0  0  0  0  # atno 16460 bound_to 1745
    1.0646  -13.3519   20.8467 LP  0  0  0  0  0  0  0  0  0  0  0  0  # atno 16461 bound_to 1791
    1.0625  -15.9401   24.0101 LP  0  0  0  0  0  0  0  0  0  0  0  0  # atno 16462 bound_to 1794
   -0.1048  -16.6238   22.9283 LP  0  0  0  0  0  0  0  0  0  0  0  0  # atno 16463 bound_to 1794
   -0.0802  -13.9818   24.1968 LP  0  0  0  0  0  0  0  0  0  0  0  0  # atno 16464 bound_to 1818
   -0.4554  -18.5109   22.9493 LP  0  0  0  0  0  0  0  0  0  0  0  0  # atno 16465 bound_to 2067
    1.4272  -16.5130   20.6813 LP  0  0  0  0  0  0  0  0  0  0  0  0  # atno 16466 bound_to 2070
    3.0526  -16.9290   21.1113 LP  0  0  0  0  0  0  0  0  0  0  0  0  # atno 16467 bound_to 2070
    1.8437  -18.7960   19.6967 LP  0  0  0  0  0  0  0  0  0  0  0  0  # atno 16468 bound_to 2117
   -4.2692   -9.3169   13.1425 LP  0  0  0  0  0  0  0  0  0  0  0  0  # atno 16469 bound_to 5617
   -7.7409  -13.5424   17.3015 LP  0  0  0  0  0  0  0  0  0  0  0  0  # atno 16474 bound_to 7834
   -7.3981  -12.5646   18.6894 LP  0  0  0  0  0  0  0  0  0  0  0  0  # atno 16475 bound_to 7834
  -10.8090  -12.7324   18.1817 LP  0  0  0  0  0  0  0  0  0  0  0  0  # atno 16476 bound_to 7874
  -10.3178  -16.6304   15.8651 LP  0  0  0  0  0  0  0  0  0  0  0  0  # atno 16477 bound_to 7877
  -10.4922  -16.0027   14.2603 LP  0  0  0  0  0  0  0  0  0  0  0  0  # atno 16478 bound_to 7877
  -10.8274  -14.1491   15.5109 LP  0  0  0  0  0  0  0  0  0  0  0  0  # atno 16479 bound_to 7916
   -7.0195  -17.5369   16.5398 LP  0  0  0  0  0  0  0  0  0  0  0  0  # atno 16480 bound_to 8469
   -8.6495  -17.6240   16.4909 LP  0  0  0  0  0  0  0  0  0  0  0  0  # atno 16481 bound_to 8469
   -2.2055  -10.2817   22.2889 LP  0  0  0  0  0  0  0  0  0  0  0  0  # atno 16484 bound_to 15466
   -1.5148  -10.6788   20.8634 LP  0  0  0  0  0  0  0  0  0  0  0  0  # atno 16485 bound_to 15466
   -8.0100  -11.7210   12.2395 LP  0  0  0  0  0  0  0  0  0  0  0  0  # atno 16486 bound_to 7919
   -9.0576  -11.4926   13.5998 LP  0  0  0  0  0  0  0  0  0  0  0  0  # atno 16487 bound_to 7919
   -8.3609  -14.8689   12.8639 LP  0  0  0  0  0  0  0  0  0  0  0  0  # atno 16488 bound_to 7973
   -9.8879  -19.3242   13.4388 LP  0  0  0  0  0  0  0  0  0  0  0  0  # atno 16489 bound_to 8463
  -10.6322  -17.8643   16.7567 LP  0  0  0  0  0  0  0  0  0  0  0  0  # atno 16490 bound_to 8466
  -11.7107  -19.1698   17.1206 LP  0  0  0  0  0  0  0  0  0  0  0  0  # atno 16491 bound_to 8466
   -9.2331  -19.5629   17.2337 LP  0  0  0  0  0  0  0  0  0  0  0  0  # atno 16492 bound_to 8507
   -0.3995  -23.2509   16.3776 LP  0  0  0  0  0  0  0  0  0  0  0  0  # atno 16495 bound_to 2717
    0.5014  -23.6349   14.9490 LP  0  0  0  0  0  0  0  0  0  0  0  0  # atno 16496 bound_to 2717
   -0.4075  -23.8037   18.9359 LP  0  0  0  0  0  0  0  0  0  0  0  0  # atno 16497 bound_to 2803
   -1.9592  -14.6259   11.2123 LP  0  0  0  0  0  0  0  0  0  0  0  0  # atno 16498 bound_to 5484
   -0.2696  -14.2448   11.2102 LP  0  0  0  0  0  0  0  0  0  0  0  0  # atno 16499 bound_to 5484
    4.0654  -20.2806   16.4107 LP  0  0  0  0  0  0  0  0  0  0  0  0  # atno 16500 bound_to 2120
    3.1470  -20.6795   17.8240 LP  0  0  0  0  0  0  0  0  0  0  0  0  # atno 16501 bound_to 2120
    4.5222  -17.2041   17.4762 LP  0  0  0  0  0  0  0  0  0  0  0  0  # atno 16502 bound_to 2168
    1.5856  -22.4794   13.5571 LP  0  0  0  0  0  0  0  0  0  0  0  0  # atno 16503 bound_to 2714
    2.2327  -21.3177   17.4717 LP  0  0  0  0  0  0  0  0  0  0  0  0  # atno 16504 bound_to 2750
    1.4249  -21.5615   20.8055 LP  0  0  0  0  0  0  0  0  0  0  0  0  # atno 16505 bound_to 2753
    2.9093  -22.0997   20.0937 LP  0  0  0  0  0  0  0  0  0  0  0  0  # atno 16506 bound_to 2753
   -1.6545  -20.9844   12.2212 LP  0  0  0  0  0  0  0  0  0  0  0  0  # atno 16507 bound_to 5380
   -2.3688  -20.4306   10.7437 LP  0  0  0  0  0  0  0  0  0  0  0  0  # atno 16508 bound_to 5380
   -0.7912  -17.6061   11.2730 LP  0  0  0  0  0  0  0  0  0  0  0  0  # atno 16509 bound_to 5481
    4.8352  -12.7018   19.3405 LP  0  0  0  0  0  0  0  0  0  0  0  0  # atno 16510 bound_to 1701
    4.2804  -12.2725   20.9242 LP  0  0  0  0  0  0  0  0  0  0  0  0  # atno 16511 bound_to 1701
   -2.6204  -11.8454   10.5530 LP  0  0  0  0  0  0  0  0  0  0  0  0  # atno 16512 bound_to 5586
   -4.4615  -11.5515   10.7177 LP  0  0  0  0  0  0  0  0  0  0  0  0  # atno 16513 bound_to 5589
   -5.8308  -10.7909   11.4570 LP  0  0  0  0  0  0  0  0  0  0  0  0  # atno 16514 bound_to 5589
    4.6302  -20.2300   13.5651 LP  0  0  0  0  0  0  0  0  0  0  0  0  # atno 16515 bound_to 2668
    4.1340  -20.9405   15.0648 LP  0  0  0  0  0  0  0  0  0  0  0  0  # atno 16516 bound_to 2668
    0.4074  -22.4547   12.4492 LP  0  0  0  0  0  0  0  0  0  0  0  0  # atno 16517 bound_to 5327
    1.0805  -24.0491   12.5178 LP  0  0  0  0  0  0  0  0  0  0  0  0  # atno 16518 bound_to 5327
   -0.3607  -21.4651   10.7724 LP  0  0  0  0  0  0  0  0  0  0  0  0  # atno 16519 bound_to 5428
    0.1663  -19.7623    8.1384 LP  0  0  0  0  0  0  0  0  0  0  0  0  # atno 16520 bound_to 5431
   -0.9767  -18.4742    7.9530 LP  0  0  0  0  0  0  0  0  0  0  0  0  # atno 16521 bound_to 5431
    2.8120  -13.1822   11.3076 LP  0  0  0  0  0  0  0  0  0  0  0  0  # atno 16522 bound_to 5439
    4.3843  -13.5478   11.0607 LP  0  0  0  0  0  0  0  0  0  0  0  0  # atno 16523 bound_to 5439
    0.8892  -11.4347   10.7236 LP  0  0  0  0  0  0  0  0  0  0  0  0  # atno 16525 bound_to 5532
    1.2323  -10.6653    9.2102 LP  0  0  0  0  0  0  0  0  0  0  0  0  # atno 16526 bound_to 5532
   -1.5685  -12.9796    8.5807 LP  0  0  0  0  0  0  0  0  0  0  0  0  # atno 16527 bound_to 5565
   -1.3934  -23.5806   12.0356 LP  0  0  0  0  0  0  0  0  0  0  0  0  # atno 16528 bound_to 5377
   -5.6617  -13.0739    9.9454 LP  0  0  0  0  0  0  0  0  0  0  0  0  # atno 16529 bound_to 8030
   -3.6557  -11.9153    7.1427 LP  0  0  0  0  0  0  0  0  0  0  0  0  # atno 16530 bound_to 8033
   -3.7775  -12.8214    8.6138 LP  0  0  0  0  0  0  0  0  0  0  0  0  # atno 16531 bound_to 8033
    4.9455  -20.9351   11.4328 LP  0  0  0  0  0  0  0  0  0  0  0  0  # atno 16532 bound_to 2665
   -0.2257  -25.8837   14.5238 LP  0  0  0  0  0  0  0  0  0  0  0  0  # atno 16533 bound_to 5324
   -8.4295  -16.6011   11.6628 LP  0  0  0  0  0  0  0  0  0  0  0  0  # atno 16534 bound_to 8371
  -10.0796  -16.4028   12.1507 LP  0  0  0  0  0  0  0  0  0  0  0  0  # atno 16535 bound_to 8371
   -4.0241  -25.5895   12.3343 LP  0  0  0  0  0  0  0  0  0  0  0  0  # atno 16536 bound_to 4570
   -3.6560  -25.1764   10.6930 LP  0  0  0  0  0  0  0  0  0  0  0  0  # atno 16537 bound_to 4570
   -9.5840  -23.2464   10.7538 LP  0  0  0  0  0  0  0  0  0  0  0  0  # atno 16538 bound_to 4515
   -8.6713  -25.8868   10.8697 LP  0  0  0  0  0  0  0  0  0  0  0  0  # atno 16539 bound_to 4518
   -8.1232  -25.0391   12.2772 LP  0  0  0  0  0  0  0  0  0  0  0  0  # atno 16540 bound_to 4518
   -7.1315  -24.6407    9.1700 LP  0  0  0  0  0  0  0  0  0  0  0  0  # atno 16541 bound_to 4567
   -0.2326  -25.3143   19.1929 LP  0  0  0  0  0  0  0  0  0  0  0  0  # atno 16542 bound_to 5228
   -0.8996  -24.7959   17.6808 LP  0  0  0  0  0  0  0  0  0  0  0  0  # atno 16543 bound_to 5228
   -0.1231  -27.7496   13.5680 LP  0  0  0  0  0  0  0  0  0  0  0  0  # atno 16544 bound_to 5277
   -1.7509  -27.3297   13.9847 LP  0  0  0  0  0  0  0  0  0  0  0  0  # atno 16545 bound_to 5277
  -10.5575  -21.4548   13.3750 LP  0  0  0  0  0  0  0  0  0  0  0  0  # atno 16548 bound_to 8418
   -9.4042  -20.8834   12.2159 LP  0  0  0  0  0  0  0  0  0  0  0  0  # atno 16549 bound_to 8418
   -0.6907  -26.8087   17.7156 LP  0  0  0  0  0  0  0  0  0  0  0  0  # atno 16550 bound_to 5274
    0.7972  -21.3084   24.1067 LP  0  0  0  0  0  0  0  0  0  0  0  0  # atno 16551 bound_to 2006
    0.1087  -21.1197   22.5286 LP  0  0  0  0  0  0  0  0  0  0  0  0  # atno 16552 bound_to 2006
  -10.1135  -23.0414   18.8580 LP  0  0  0  0  0  0  0  0  0  0  0  0  # atno 16555 bound_to 8549
   -2.7179  -13.0944   26.0376 LP  0  0  0  0  0  0  0  0  0  0  0  0  # atno 16556 bound_to 1821
   -3.9586  -13.8620   26.9710 LP  0  0  0  0  0  0  0  0  0  0  0  0  # atno 16557 bound_to 1821
   -1.8647  -16.2395   27.4643 LP  0  0  0  0  0  0  0  0  0  0  0  0  # atno 16558 bound_to 1854

> <Gold.Score>
     Fitness  S(hb_ext) S(vdw_ext)  S(hb_int)    S(int)      intcor
     35.05       8.00      21.28       0.00      -2.21      -0.76

> <Gold.Goldscore.Fitness>
35.0545

> <Gold.Goldscore.Internal.Vdw>
-2.5703

> <Gold.Goldscore.Internal.Torsion>
-0.4031

> <Gold.Goldscore.External.Vdw>
21.2821

> <Gold.Goldscore.Internal.HBond>
0.0000

> <Gold.Goldscore.External.HBond>
8.0000

> <Gold.Goldscore.Internal.Correction>
-0.7650

> <Gold.Goldscore.Hbonds>
donor molecule, donor type, donor heavy atom, donor atom, acceptor molecule, acceptor atom, score
      P1  H  1818  1839       L1    11  1.00
      L1  H     8    22       P1  7881  1.00

> <Gold.Goldscore.Internal.Vdw.Weighted>
-2.5703

> <Gold.Goldscore.Internal.Torsion.Weighted>
-0.4031

> <Gold.Goldscore.External.Vdw.Weighted>
29.2629

> <Gold.Goldscore.Internal.HBond.Weighted>
0.0000

> <Gold.Goldscore.External.HBond.Weighted>
8.0000

> <Gold.Goldscore.Internal.Correction.Weighted>
-0.7650

> <Gold.Rescore>
     Score     S(PLP)   S(hbond)     S(cho)   S(metal)  DE(clash)   DE(tors)     intcor
     36.98     -33.03       1.98       0.00       0.00       1.20       0.39       ----

> <Gold.PLP.Fitness>
36.9845

> <Gold.PLP.PLP>
-33.0348

> <Gold.PLP.part.hbond>
-2.0000

> <Gold.PLP.part.metal>
0.0000

> <Gold.PLP.part.buried>
-4.2020

> <Gold.PLP.part.nonpolar>
-28.4161

> <Gold.PLP.part.repulsive>
0.3879

> <Gold.PLP.ligand.clash>
1.1992

> <Gold.PLP.ligand.torsion>
0.3880

> <Gold.PLP.Chemscore.Hbond>
1.9750

> <Gold.PLP.Chemscore.CHOScore>
0.0000

> <Gold.PLP.Chemscore.Metal>
0.0000

> <Gold.Chemscore.Hbonds>
donor molecule, donor type, donor heavy atom, donor atom, acceptor molecule, acceptor atom, score
      L1  H     8    22       P1  7881  1.00
      P1  H  1818  1839       L1    11  1.00

> <Gold.PLP.Chemscore.Internal.Correction>
   9.000000E+99

#       Name:                CT1002167954
#       Creating user name   hitesit
#       Creation time:       Sun Apr 16 22:50:55 2023


#       File generated by GOLD software.
#

@<TRIPOS>MOLECULE
CT1002167954|ligand_prepared|mol2|1|dock6
    29    30     1
SMALL
NO_CHARGES


@<TRIPOS>ATOM
      1 C1          -5.4460 -17.8399  19.2131 C.3            1 RES1               0.0000
      2 C2          -4.2044 -17.0612  18.7327 C.ar           1 RES1               0.0000
      3 C3          -5.2234 -18.1292  20.6947 C.2            1 RES1               0.0000
      4 C4          -6.6473 -16.9455  18.9274 C.2            1 RES1               0.0000
      5 C5          -5.6645 -19.1827  18.4778 C.3            1 RES1               0.0000
      6 C6          -3.7397 -17.2031  17.4286 C.ar           1 RES1               0.0000
      7 C7          -3.5159 -16.1967  19.5797 C.ar           1 RES1               0.0000
      8 N8          -5.9504 -17.4080  21.5954 N.am           1 RES1               0.0000
      9 O9          -4.3942 -18.9497  21.0680 O.2            1 RES1               0.0000
     10 N10         -7.3553 -16.4607  19.9958 N.am           1 RES1               0.0000
     11 O11         -6.9772 -16.6428  17.7874 O.2            1 RES1               0.0000
     12 C12         -6.6980 -20.0819  19.1376 C.3            1 RES1               0.0000
     13 C13         -2.6289 -16.5040  16.9863 C.ar           1 RES1               0.0000
     14 C14         -2.4052 -15.4987  19.1354 C.ar           1 RES1               0.0000
     15 C15         -7.0429 -16.6264  21.3176 C.2            1 RES1               0.0000
     16 C16         -1.9612 -15.6511  17.8391 C.ar           1 RES1               0.0000
     17 O17         -7.6974 -16.1135  22.2208 O.2            1 RES1               0.0000
     18 H18         -5.9831 -18.9741  17.4490 H              1 RES1               0.0000
     19 H19         -4.7086 -19.7190  18.4305 H              1 RES1               0.0000
     20 H20         -4.2508 -17.8716  16.7438 H              1 RES1               0.0000
     21 H21         -3.8466 -16.0620  20.6039 H              1 RES1               0.0000
     22 H22         -5.6543 -17.4540  22.5652 H              1 RES1               0.0000
     23 H23         -8.1929 -15.9269  19.7864 H              1 RES1               0.0000
     24 H24         -6.8125 -21.0102  18.5819 H              1 RES1               0.0000
     25 H25         -6.4005 -20.3301  20.1543 H              1 RES1               0.0000
     26 H26         -7.6675 -19.5897  19.1787 H              1 RES1               0.0000
     27 H27         -2.2827 -16.6285  15.9655 H              1 RES1               0.0000
     28 H28         -1.8824 -14.8290  19.8102 H              1 RES1               0.0000
     29 H29         -1.0913 -15.1032  17.4923 H              1 RES1               0.0000
@<TRIPOS>BOND
    1    1    2 1     
    2    1    3 1     
    3    1    4 1     
    4    1    5 1     
    5    2    6 ar    
    6    2    7 ar    
    7    3    8 1     
    8    3    9 2     
    9    4   10 1     
   10    4   11 2     
   11    5   12 1     
   12    5   18 1     
   13    5   19 1     
   14    6   13 ar    
   15    6   20 1     
   16    7   14 ar    
   17    7   21 1     
   18    8   15 1     
   19    8   22 1     
   20   10   15 1     
   21   10   23 1     
   22   12   24 1     
   23   12   25 1     
   24   12   26 1     
   25   13   16 ar    
   26   13   27 1     
   27   14   16 ar    
   28   14   28 1     
   29   15   17 2     
   30   16   29 1     
@<TRIPOS>SUBSTRUCTURE
      1 RES1           1
@<TRIPOS>SET
DONOR_HYDROGENS      STATIC     ATOMS    <user>   **** ""
2 22 23
ATOM$RED        STATIC     ATOMS    COLORGROUP SYSTEM
2 22 23
@<TRIPOS>COMMENT
> <Gold.Version>
2022.3.0

> <Gold.Id.Protein>
unknown|3mvj_clean|pdb

> <Gold.Protein.RotatedTorsions>
[ 1772 1742 1743 1744 ] final  -52.98 input   69.76 | X-H torsion
[ 1801 1791 1792 1793 ] final   89.52 input  -10.55 | X-H torsion
[ 1839 1818 1819 1820 ] final  133.94 input   43.70 | X-H torsion
[ 2083 2067 2068 2069 ] final   60.37 input   63.04 | X-H torsion
[ 2134 2117 2118 2119 ] final -116.93 input   55.90 | X-H torsion
[ 5632 5617 5618 5619 ] final   49.97 input   93.34 | X-H torsion
[ 7884 7874 7875 7876 ] final  -44.42 input   68.03 | X-H torsion
[ 7924 7916 7917 7918 ] final  143.07 input   66.66 | X-H torsion
[ 8483 8469 8467 8464 ] final   29.06 input   59.99 | X-H torsion
[ 15475 15466 15465 15463 ] final -173.43 input   60.00 | X-H torsion
[ 7991 7973 7974 7975 ] final  104.43 input   84.71 | X-H torsion
[ 8477 8463 8464 8465 ] final -167.24 input   59.21 | X-H torsion
[ 8522 8507 8508 8509 ] final   90.54 input -104.23 | X-H torsion
[ 2822 2803 2804 2805 ] final   87.73 input  103.27 | X-H torsion
[ 2184 2168 2169 2170 ] final -161.94 input  106.62 | X-H torsion
[ 2724 2714 2715 2716 ] final   56.31 input   74.66 | X-H torsion
[ 2767 2750 2751 2752 ] final  -48.47 input   68.39 | X-H torsion
[ 5506 5481 5482 5483 ] final   28.13 input   57.83 | X-H torsion
[ 5596 5586 5587 5588 ] final -112.20 input -104.43 | X-H torsion
[ 5454 5428 5429 5430 ] final  -53.49 input  113.20 | X-H torsion
[ 5462 5439 5438 5436 ] final  -14.64 input   59.99 | X-H torsion
[ 5575 5565 5566 5567 ] final  -57.53 input  101.53 | X-H torsion
[ 5392 5377 5378 5379 ] final -103.23 input  130.34 | X-H torsion
[ 8046 8030 8031 8032 ] final  -25.73 input   72.86 | X-H torsion
[ 2684 2665 2666 2667 ] final  -94.72 input   26.41 | X-H torsion
[ 5342 5324 5325 5326 ] final  -28.26 input   62.58 | X-H torsion
[ 4530 4515 4516 4517 ] final -150.95 input  130.34 | X-H torsion
[ 4589 4567 4568 4569 ] final -131.37 input  104.80 | X-H torsion
[ 5299 5274 5275 5276 ] final -148.57 input   71.10 | X-H torsion
[ 8569 8549 8550 8551 ] final  100.07 input   74.91 | X-H torsion
[ 1864 1854 1855 1856 ] final    6.46 input   57.50 | X-H torsion
[ 15411 15403 15404 15405 ] final  -23.44 input  102.24 | X-H torsion
[ 2884 2867 2868 2869 ] final  -72.30 input   60.34 | X-H torsion
[ 16459 1745 1744 1743 ] final -150.88 input    0.00 | X-H torsion
[ 16462 1794 1793 1792 ] final -104.51 input   -0.00 | X-H torsion
[ 16466 2070 2069 2068 ] final  -86.23 input    0.00 | X-H torsion
[ 16474 7834 7833 7832 ] final    0.64 input    0.00 | X-H torsion
[ 16477 7877 7876 7875 ] final -141.28 input    0.00 | X-H torsion
[ 16486 7919 7918 7917 ] final  121.69 input    0.00 | X-H torsion
[ 16490 8466 8465 8464 ] final  -52.64 input    0.00 | X-H torsion
[ 16495 2717 2716 2715 ] final -143.94 input    0.00 | X-H torsion
[ 16498 5484 5483 5482 ] final  -93.32 input    0.00 | X-H torsion
[ 16500 2120 2119 2118 ] final  -60.97 input    0.00 | X-H torsion
[ 16505 2753 2752 2751 ] final   25.48 input    0.00 | X-H torsion
[ 16507 5380 5379 5378 ] final  123.15 input    0.00 | X-H torsion
[ 16510 1701 1700 1699 ] final   17.54 input   -0.00 | X-H torsion
[ 16513 5589 5588 5587 ] final  -55.59 input    0.00 | X-H torsion
[ 16515 2668 2667 2666 ] final   79.72 input    0.00 | X-H torsion
[ 16517 5327 5326 5325 ] final  -82.22 input   -0.00 | X-H torsion
[ 16520 5431 5430 5429 ] final  -58.40 input    0.00 | X-H torsion
[ 16525 5532 5531 5530 ] final  135.77 input   -0.00 | X-H torsion
[ 16530 8033 8032 8031 ] final   99.07 input    0.00 | X-H torsion
[ 16534 8371 8370 8369 ] final    2.17 input    0.00 | X-H torsion
[ 16536 4570 4569 4568 ] final  125.81 input    0.00 | X-H torsion
[ 16539 4518 4517 4516 ] final   -6.44 input    0.00 | X-H torsion
[ 16542 5228 5227 5226 ] final   42.79 input    0.00 | X-H torsion
[ 16544 5277 5276 5275 ] final   31.53 input    0.00 | X-H torsion
[ 16548 8418 8417 8416 ] final   96.91 input    0.00 | X-H torsion
[ 16551 2006 2005 2004 ] final    5.05 input    0.00 | X-H torsion
[ 16556 1821 1820 1819 ] final -176.60 input    0.00 | X-H torsion

> <Gold.Protein.ActiveResidues>
 THR48   LEU49   GLY50   THR51   GLY52   ARG56   VAL57   MET58   LEU59   TYR69  
 ALA70   MET71   LYS72   ILE73   GLU91   LEU95   VAL104  LYS105  LEU106  MET118 
 VAL119  MET120  GLU121  TYR122  VAL123  PRO124  GLY125  GLY126  GLU127  GLU170 
 ASN171  LEU172  LEU173  ILE174  ASP175  GLN181  VAL182  THR183  ASP184  PHE185 
 ASN326  PHE327  ASP328  TYR330 

> <Gold.Protein.RotatedAtoms>
    3.3169  -14.3716   20.9495 H   0  0  0  0  0  0  0  0  0  0  0  0  # atno 1772 bound_to 1742
    0.6860  -14.8848   20.6490 H   0  0  0  0  0  0  0  0  0  0  0  0  # atno 1801 bound_to 1791
   -0.1559  -13.6832   24.3858 H   0  0  0  0  0  0  0  0  0  0  0  0  # atno 1839 bound_to 1818
   -1.9078  -16.4503   27.4575 H   0  0  0  0  0  0  0  0  0  0  0  0  # atno 1864 bound_to 1854
    0.4015  -17.6410   22.7625 H   0  0  0  0  0  0  0  0  0  0  0  0  # atno 2083 bound_to 2067
    2.0725  -18.5342   20.3583 H   0  0  0  0  0  0  0  0  0  0  0  0  # atno 2134 bound_to 2117
    3.9605  -17.7441   17.3339 H   0  0  0  0  0  0  0  0  0  0  0  0  # atno 2184 bound_to 2168
    4.8000  -21.2217   10.9321 H   0  0  0  0  0  0  0  0  0  0  0  0  # atno 2684 bound_to 2665
    1.3041  -22.2443   13.3672 H   0  0  0  0  0  0  0  0  0  0  0  0  # atno 2724 bound_to 2714
    1.1136  -21.6873   17.0284 H   0  0  0  0  0  0  0  0  0  0  0  0  # atno 2767 bound_to 2750
   -0.3087  -24.0687   19.0816 H   0  0  0  0  0  0  0  0  0  0  0  0  # atno 2822 bound_to 2803
   -0.5222  -23.8277   22.6868 H   0  0  0  0  0  0  0  0  0  0  0  0  # atno 2884 bound_to 2867
   -9.1547  -21.6899   10.1361 H   0  0  0  0  0  0  0  0  0  0  0  0  # atno 4530 bound_to 4515
   -7.3769  -24.7966    9.6208 H   0  0  0  0  0  0  0  0  0  0  0  0  # atno 4589 bound_to 4567
   -0.2103  -27.1085   17.8837 H   0  0  0  0  0  0  0  0  0  0  0  0  # atno 5299 bound_to 5274
    0.3766  -25.0773   14.2494 H   0  0  0  0  0  0  0  0  0  0  0  0  # atno 5342 bound_to 5324
   -0.7788  -24.5167   11.5016 H   0  0  0  0  0  0  0  0  0  0  0  0  # atno 5392 bound_to 5377
   -0.5473  -21.3370   10.3346 H   0  0  0  0  0  0  0  0  0  0  0  0  # atno 5454 bound_to 5428
    2.9420  -13.4245   12.2570 H   0  0  0  0  0  0  0  0  0  0  0  0  # atno 5462 bound_to 5439
   -0.3272  -17.3377   11.1166 H   0  0  0  0  0  0  0  0  0  0  0  0  # atno 5506 bound_to 5481
   -0.2757  -12.2711    9.2896 H   0  0  0  0  0  0  0  0  0  0  0  0  # atno 5575 bound_to 5565
   -1.6801  -11.9015   10.8997 H   0  0  0  0  0  0  0  0  0  0  0  0  # atno 5596 bound_to 5586
   -4.1386   -9.2814   13.7024 H   0  0  0  0  0  0  0  0  0  0  0  0  # atno 5632 bound_to 5617
   -9.7330  -12.3187   16.8775 H   0  0  0  0  0  0  0  0  0  0  0  0  # atno 7884 bound_to 7874
  -11.0357  -13.3452   15.4621 H   0  0  0  0  0  0  0  0  0  0  0  0  # atno 7924 bound_to 7916
   -8.5318  -15.1297   12.3754 H   0  0  0  0  0  0  0  0  0  0  0  0  # atno 7991 bound_to 7973
   -5.9739  -13.4456    9.8468 H   0  0  0  0  0  0  0  0  0  0  0  0  # atno 8046 bound_to 8030
   -9.5812  -19.1247   13.4077 H   0  0  0  0  0  0  0  0  0  0  0  0  # atno 8477 bound_to 8463
   -8.6751  -17.6125   16.4268 H   0  0  0  0  0  0  0  0  0  0  0  0  # atno 8483 bound_to 8469
   -9.6719  -19.6557   17.1404 H   0  0  0  0  0  0  0  0  0  0  0  0  # atno 8522 bound_to 8507
  -10.0911  -23.0447   18.8722 H   0  0  0  0  0  0  0  0  0  0  0  0  # atno 8569 bound_to 8549
    2.0843   -8.4714   17.4227 H   0  0  0  0  0  0  0  0  0  0  0  0  # atno 15411 bound_to 15403
   -2.1179   -9.7569   22.3207 H   0  0  0  0  0  0  0  0  0  0  0  0  # atno 15475 bound_to 15466
    3.4287  -15.5324   19.6446 LP  0  0  0  0  0  0  0  0  0  0  0  0  # atno 16458 bound_to 1742
   -0.8458  -12.5585   20.0800 LP  0  0  0  0  0  0  0  0  0  0  0  0  # atno 16459 bound_to 1745
   -0.3499  -13.1954   18.5475 LP  0  0  0  0  0  0  0  0  0  0  0  0  # atno 16460 bound_to 1745
    1.4585  -13.5177   21.4230 LP  0  0  0  0  0  0  0  0  0  0  0  0  # atno 16461 bound_to 1791
   -0.2692  -16.7181   23.4794 LP  0  0  0  0  0  0  0  0  0  0  0  0  # atno 16462 bound_to 1794
    1.2270  -15.8458   23.4590 LP  0  0  0  0  0  0  0  0  0  0  0  0  # atno 16463 bound_to 1794
   -1.7002  -14.3325   23.8820 LP  0  0  0  0  0  0  0  0  0  0  0  0  # atno 16464 bound_to 1818
    0.3991  -19.3241   23.2523 LP  0  0  0  0  0  0  0  0  0  0  0  0  # atno 16465 bound_to 2067
    1.7981  -16.5111   20.1816 LP  0  0  0  0  0  0  0  0  0  0  0  0  # atno 16466 bound_to 2070
    2.6817  -16.9310   21.6109 LP  0  0  0  0  0  0  0  0  0  0  0  0  # atno 16467 bound_to 2070
    2.4537  -20.1999   19.9794 LP  0  0  0  0  0  0  0  0  0  0  0  0  # atno 16468 bound_to 2117
   -4.1186  -10.9337   13.1213 LP  0  0  0  0  0  0  0  0  0  0  0  0  # atno 16469 bound_to 5617
   -7.2493  -12.3138   18.3121 LP  0  0  0  0  0  0  0  0  0  0  0  0  # atno 16474 bound_to 7834
   -7.8897  -13.7932   17.6789 LP  0  0  0  0  0  0  0  0  0  0  0  0  # atno 16475 bound_to 7834
  -10.7221  -12.7381   18.2515 LP  0  0  0  0  0  0  0  0  0  0  0  0  # atno 16476 bound_to 7874
   -9.9129  -16.1204   14.3775 LP  0  0  0  0  0  0  0  0  0  0  0  0  # atno 16477 bound_to 7877
  -10.8970  -16.5126   15.7479 LP  0  0  0  0  0  0  0  0  0  0  0  0  # atno 16478 bound_to 7877
   -9.3539  -13.8060   15.3629 LP  0  0  0  0  0  0  0  0  0  0  0  0  # atno 16479 bound_to 7916
   -7.7411  -17.2497   15.1444 LP  0  0  0  0  0  0  0  0  0  0  0  0  # atno 16480 bound_to 8469
   -7.0576  -17.5526   16.5961 LP  0  0  0  0  0  0  0  0  0  0  0  0  # atno 16481 bound_to 8469
   -1.7748  -10.9363   21.2534 LP  0  0  0  0  0  0  0  0  0  0  0  0  # atno 16484 bound_to 15466
   -1.3143   -9.3989   20.9519 LP  0  0  0  0  0  0  0  0  0  0  0  0  # atno 16485 bound_to 15466
   -7.7879  -11.8713   13.2714 LP  0  0  0  0  0  0  0  0  0  0  0  0  # atno 16486 bound_to 7919
   -9.2797  -11.3423   12.5680 LP  0  0  0  0  0  0  0  0  0  0  0  0  # atno 16487 bound_to 7919
   -9.0182  -13.4540   12.3771 LP  0  0  0  0  0  0  0  0  0  0  0  0  # atno 16488 bound_to 7973
  -10.5613  -18.3576   14.6397 LP  0  0  0  0  0  0  0  0  0  0  0  0  # atno 16489 bound_to 8463
  -10.6603  -17.8780   16.6551 LP  0  0  0  0  0  0  0  0  0  0  0  0  # atno 16490 bound_to 8466
  -11.6826  -19.1561   17.2221 LP  0  0  0  0  0  0  0  0  0  0  0  0  # atno 16491 bound_to 8466
   -8.7273  -21.1300   17.3004 LP  0  0  0  0  0  0  0  0  0  0  0  0  # atno 16492 bound_to 8507
   -0.1737  -23.5016   16.4977 LP  0  0  0  0  0  0  0  0  0  0  0  0  # atno 16495 bound_to 2717
    0.2756  -23.3841   14.8290 LP  0  0  0  0  0  0  0  0  0  0  0  0  # atno 16496 bound_to 2717
    0.8624  -22.8160   19.4463 LP  0  0  0  0  0  0  0  0  0  0  0  0  # atno 16497 bound_to 2803
   -1.8053  -14.0222   10.8921 LP  0  0  0  0  0  0  0  0  0  0  0  0  # atno 16498 bound_to 5484
   -0.4235  -14.8486   11.5304 LP  0  0  0  0  0  0  0  0  0  0  0  0  # atno 16499 bound_to 5484
    4.0976  -20.9684   17.6370 LP  0  0  0  0  0  0  0  0  0  0  0  0  # atno 16500 bound_to 2120
    3.1148  -19.9917   16.5977 LP  0  0  0  0  0  0  0  0  0  0  0  0  # atno 16501 bound_to 2120
    5.4288  -18.2738   18.1164 LP  0  0  0  0  0  0  0  0  0  0  0  0  # atno 16502 bound_to 2168
    2.7646  -21.2888   13.4550 LP  0  0  0  0  0  0  0  0  0  0  0  0  # atno 16503 bound_to 2714
    2.7981  -22.0117   16.6784 LP  0  0  0  0  0  0  0  0  0  0  0  0  # atno 16504 bound_to 2750
    2.6110  -21.5417   19.7644 LP  0  0  0  0  0  0  0  0  0  0  0  0  # atno 16505 bound_to 2753
    1.7232  -22.1195   21.1348 LP  0  0  0  0  0  0  0  0  0  0  0  0  # atno 16506 bound_to 2753
   -1.4559  -20.5956   12.1372 LP  0  0  0  0  0  0  0  0  0  0  0  0  # atno 16507 bound_to 5380
   -2.5674  -20.8194   10.8277 LP  0  0  0  0  0  0  0  0  0  0  0  0  # atno 16508 bound_to 5380
   -0.7421  -18.6054    9.9840 LP  0  0  0  0  0  0  0  0  0  0  0  0  # atno 16509 bound_to 5481
    5.3938  -12.6533   20.2856 LP  0  0  0  0  0  0  0  0  0  0  0  0  # atno 16510 bound_to 1701
    3.7218  -12.3210   19.9791 LP  0  0  0  0  0  0  0  0  0  0  0  0  # atno 16511 bound_to 1701
   -2.4172  -10.5103   10.1382 LP  0  0  0  0  0  0  0  0  0  0  0  0  # atno 16512 bound_to 5586
   -4.7972  -10.5730   10.5674 LP  0  0  0  0  0  0  0  0  0  0  0  0  # atno 16513 bound_to 5589
   -5.4951  -11.7695   11.6073 LP  0  0  0  0  0  0  0  0  0  0  0  0  # atno 16514 bound_to 5589
    4.3289  -19.9661   13.7117 LP  0  0  0  0  0  0  0  0  0  0  0  0  # atno 16515 bound_to 2668
    4.4353  -21.2044   14.9181 LP  0  0  0  0  0  0  0  0  0  0  0  0  # atno 16516 bound_to 2668
    0.3882  -22.5592   12.8624 LP  0  0  0  0  0  0  0  0  0  0  0  0  # atno 16517 bound_to 5327
    1.0997  -23.9446   12.1046 LP  0  0  0  0  0  0  0  0  0  0  0  0  # atno 16518 bound_to 5327
    1.1722  -21.5851   10.1516 LP  0  0  0  0  0  0  0  0  0  0  0  0  # atno 16519 bound_to 5428
    0.4533  -19.0844    7.9373 LP  0  0  0  0  0  0  0  0  0  0  0  0  # atno 16520 bound_to 5431
   -1.2637  -19.1521    8.1541 LP  0  0  0  0  0  0  0  0  0  0  0  0  # atno 16521 bound_to 5431
    3.4974  -13.2419   10.7386 LP  0  0  0  0  0  0  0  0  0  0  0  0  # atno 16522 bound_to 5439
    4.4972  -13.7634   11.9197 LP  0  0  0  0  0  0  0  0  0  0  0  0  # atno 16523 bound_to 5439
    0.8535  -10.4886    9.3409 LP  0  0  0  0  0  0  0  0  0  0  0  0  # atno 16525 bound_to 5532
    1.2679  -11.6114   10.5929 LP  0  0  0  0  0  0  0  0  0  0  0  0  # atno 16526 bound_to 5532
   -1.3290  -12.8709    8.0256 LP  0  0  0  0  0  0  0  0  0  0  0  0  # atno 16527 bound_to 5565
   -2.3874  -23.8429   11.3858 LP  0  0  0  0  0  0  0  0  0  0  0  0  # atno 16528 bound_to 5377
   -6.8860  -12.0048   10.2418 LP  0  0  0  0  0  0  0  0  0  0  0  0  # atno 16529 bound_to 8030
   -3.6329  -13.0727    8.3752 LP  0  0  0  0  0  0  0  0  0  0  0  0  # atno 16530 bound_to 8033
   -3.8003  -11.6641    7.3813 LP  0  0  0  0  0  0  0  0  0  0  0  0  # atno 16531 bound_to 8033
    5.6729  -22.2443   12.0516 LP  0  0  0  0  0  0  0  0  0  0  0  0  # atno 16532 bound_to 2665
   -0.9592  -25.0577   15.3685 LP  0  0  0  0  0  0  0  0  0  0  0  0  # atno 16533 bound_to 5324
   -8.7804  -16.1135   11.2950 LP  0  0  0  0  0  0  0  0  0  0  0  0  # atno 16534 bound_to 8371
   -9.7287  -16.8905   12.5185 LP  0  0  0  0  0  0  0  0  0  0  0  0  # atno 16535 bound_to 8371
   -4.1840  -25.4227   12.3074 LP  0  0  0  0  0  0  0  0  0  0  0  0  # atno 16536 bound_to 4570
   -3.4961  -25.3431   10.7198 LP  0  0  0  0  0  0  0  0  0  0  0  0  # atno 16537 bound_to 4570
   -9.5644  -23.1665   10.9691 LP  0  0  0  0  0  0  0  0  0  0  0  0  # atno 16538 bound_to 4515
   -8.7175  -24.7463   11.9393 LP  0  0  0  0  0  0  0  0  0  0  0  0  # atno 16539 bound_to 4518
   -8.0769  -26.1796   11.2076 LP  0  0  0  0  0  0  0  0  0  0  0  0  # atno 16540 bound_to 4518
   -5.7630  -24.1689    9.9151 LP  0  0  0  0  0  0  0  0  0  0  0  0  # atno 16541 bound_to 4567
   -0.3885  -25.3049   19.2469 LP  0  0  0  0  0  0  0  0  0  0  0  0  # atno 16542 bound_to 5228
   -0.7437  -24.8053   17.6269 LP  0  0  0  0  0  0  0  0  0  0  0  0  # atno 16543 bound_to 5228
   -0.9872  -28.0333   14.4862 LP  0  0  0  0  0  0  0  0  0  0  0  0  # atno 16544 bound_to 5277
   -0.8868  -27.0461   13.0665 LP  0  0  0  0  0  0  0  0  0  0  0  0  # atno 16545 bound_to 5277
   -9.2256  -20.9178   12.4542 LP  0  0  0  0  0  0  0  0  0  0  0  0  # atno 16548 bound_to 8418
  -10.7361  -21.4204   13.1366 LP  0  0  0  0  0  0  0  0  0  0  0  0  # atno 16549 bound_to 8418
   -1.0073  -27.8776   16.5319 LP  0  0  0  0  0  0  0  0  0  0  0  0  # atno 16550 bound_to 5274
    0.3600  -21.3227   24.1718 LP  0  0  0  0  0  0  0  0  0  0  0  0  # atno 16551 bound_to 2006
    0.5458  -21.1054   22.4635 LP  0  0  0  0  0  0  0  0  0  0  0  0  # atno 16552 bound_to 2006
  -10.9917  -21.6816   19.4809 LP  0  0  0  0  0  0  0  0  0  0  0  0  # atno 16555 bound_to 8549
   -3.9277  -13.8411   27.0247 LP  0  0  0  0  0  0  0  0  0  0  0  0  # atno 16556 bound_to 1821
   -2.7489  -13.1153   25.9839 LP  0  0  0  0  0  0  0  0  0  0  0  0  # atno 16557 bound_to 1821
   -2.8927  -15.6520   26.2438 LP  0  0  0  0  0  0  0  0  0  0  0  0  # atno 16558 bound_to 1854

> <Gold.Score>
     Fitness  S(hb_ext) S(vdw_ext)  S(hb_int)    S(int)      intcor
     33.74       6.00      20.68       0.00      -0.70      -0.76

> <Gold.Goldscore.Fitness>
33.7382

> <Gold.Goldscore.Internal.Vdw>
-0.8603

> <Gold.Goldscore.Internal.Torsion>
-0.6080

> <Gold.Goldscore.External.Vdw>
20.6848

> <Gold.Goldscore.Internal.HBond>
0.0000

> <Gold.Goldscore.External.HBond>
6.0000

> <Gold.Goldscore.Internal.Correction>
-0.7650

> <Gold.Goldscore.Hbonds>
donor molecule, donor type, donor heavy atom, donor atom, acceptor molecule, acceptor atom, score
      L1  H    10    23       P1  7881  1.00

> <Gold.Goldscore.Internal.Vdw.Weighted>
-0.8603

> <Gold.Goldscore.Internal.Torsion.Weighted>
-0.6080

> <Gold.Goldscore.External.Vdw.Weighted>
28.4416

> <Gold.Goldscore.Internal.HBond.Weighted>
0.0000

> <Gold.Goldscore.External.HBond.Weighted>
6.0000

> <Gold.Goldscore.Internal.Correction.Weighted>
-0.7650

> <Gold.Rescore>
     Score     S(PLP)   S(hbond)     S(cho)   S(metal)  DE(clash)   DE(tors)     intcor
     14.36     -13.85       1.00       0.00       0.00       0.00       1.25       ----

> <Gold.PLP.Fitness>
14.3638

> <Gold.PLP.PLP>
-13.8546

> <Gold.PLP.part.hbond>
-2.2064

> <Gold.PLP.part.metal>
0.0000

> <Gold.PLP.part.buried>
6.8708

> <Gold.PLP.part.nonpolar>
-28.1858

> <Gold.PLP.part.repulsive>
4.4250

> <Gold.PLP.ligand.clash>
0.0000

> <Gold.PLP.ligand.torsion>
1.2454

> <Gold.PLP.Chemscore.Hbond>
1.0000

> <Gold.PLP.Chemscore.CHOScore>
0.0000

> <Gold.PLP.Chemscore.Metal>
0.0000

> <Gold.Chemscore.Hbonds>
donor molecule, donor type, donor heavy atom, donor atom, acceptor molecule, acceptor atom, score
      L1  H    10    23       P1  7881  1.00

> <Gold.PLP.Chemscore.Internal.Correction>
   9.000000E+99

#       Name:                CT1002167954
#       Creating user name   hitesit
#       Creation time:       Sun Apr 16 22:50:52 2023


#       File generated by GOLD software.
#

@<TRIPOS>MOLECULE
CT1002167954|ligand_prepared|mol2|1|dock4
    29    30     1
SMALL
NO_CHARGES


@<TRIPOS>ATOM
      1 C1          -5.3103 -16.7483  19.2775 C.3            1 RES1               0.0000
      2 C2          -5.4532 -18.2499  18.9558 C.ar           1 RES1               0.0000
      3 C3          -4.5023 -16.6618  20.5690 C.2            1 RES1               0.0000
      4 C4          -4.6244 -16.1168  18.0711 C.2            1 RES1               0.0000
      5 C5          -6.6597 -16.0243  19.4930 C.3            1 RES1               0.0000
      6 C6          -6.2242 -19.0780  19.7661 C.ar           1 RES1               0.0000
      7 C7          -4.8233 -18.8199  17.8527 C.ar           1 RES1               0.0000
      8 N8          -3.2054 -16.2501  20.4766 N.am           1 RES1               0.0000
      9 O9          -4.9838 -16.9878  21.6471 O.2            1 RES1               0.0000
     10 N10         -3.3682 -15.5979  18.2455 N.am           1 RES1               0.0000
     11 O11         -5.1537 -16.0789  16.9672 O.2            1 RES1               0.0000
     12 C12         -6.5169 -14.5477  19.8269 C.3            1 RES1               0.0000
     13 C13         -6.3629 -20.4265  19.4823 C.ar           1 RES1               0.0000
     14 C14         -4.9632 -20.1688  17.5708 C.ar           1 RES1               0.0000
     15 C15         -2.6153 -15.6634  19.3861 C.2            1 RES1               0.0000
     16 C16         -5.7330 -20.9727  18.3843 C.ar           1 RES1               0.0000
     17 O17         -1.4716 -15.2216  19.4495 O.2            1 RES1               0.0000
     18 H18         -7.2631 -16.1236  18.5823 H              1 RES1               0.0000
     19 H19         -7.2001 -16.5200  20.3089 H              1 RES1               0.0000
     20 H20         -6.7254 -18.6664  20.6358 H              1 RES1               0.0000
     21 H21         -4.2118 -18.2069  17.1993 H              1 RES1               0.0000
     22 H22         -2.6203 -16.3916  21.2938 H              1 RES1               0.0000
     23 H23         -2.9562 -15.1182  17.4514 H              1 RES1               0.0000
     24 H24         -7.4928 -14.0880  19.9681 H              1 RES1               0.0000
     25 H25         -5.9432 -14.4128  20.7415 H              1 RES1               0.0000
     26 H26         -6.0059 -14.0187  19.0251 H              1 RES1               0.0000
     27 H27         -6.9688 -21.0551  20.1264 H              1 RES1               0.0000
     28 H28         -4.4651 -20.5946  16.7060 H              1 RES1               0.0000
     29 H29         -5.8422 -22.0290  18.1620 H              1 RES1               0.0000
@<TRIPOS>BOND
    1    1    2 1     
    2    1    3 1     
    3    1    4 1     
    4    1    5 1     
    5    2    6 ar    
    6    2    7 ar    
    7    3    8 1     
    8    3    9 2     
    9    4   10 1     
   10    4   11 2     
   11    5   12 1     
   12    5   18 1     
   13    5   19 1     
   14    6   13 ar    
   15    6   20 1     
   16    7   14 ar    
   17    7   21 1     
   18    8   15 1     
   19    8   22 1     
   20   10   15 1     
   21   10   23 1     
   22   12   24 1     
   23   12   25 1     
   24   12   26 1     
   25   13   16 ar    
   26   13   27 1     
   27   14   16 ar    
   28   14   28 1     
   29   15   17 2     
   30   16   29 1     
@<TRIPOS>SUBSTRUCTURE
      1 RES1           1
@<TRIPOS>SET
DONOR_HYDROGENS      STATIC     ATOMS    <user>   **** ""
2 22 23
ATOM$RED        STATIC     ATOMS    COLORGROUP SYSTEM
2 22 23
@<TRIPOS>COMMENT
> <Gold.Version>
2022.3.0

> <Gold.Id.Protein>
unknown|3mvj_clean|pdb

> <Gold.Protein.RotatedTorsions>
[ 1772 1742 1743 1744 ] final  -59.87 input   69.76 | X-H torsion
[ 1801 1791 1792 1793 ] final  -11.73 input  -10.55 | X-H torsion
[ 1839 1818 1819 1820 ] final  -59.85 input   43.70 | X-H torsion
[ 2083 2067 2068 2069 ] final  134.75 input   63.04 | X-H torsion
[ 2134 2117 2118 2119 ] final  136.02 input   55.90 | X-H torsion
[ 5632 5617 5618 5619 ] final -102.11 input   93.34 | X-H torsion
[ 7884 7874 7875 7876 ] final   24.49 input   68.03 | X-H torsion
[ 7924 7916 7917 7918 ] final   14.72 input   66.66 | X-H torsion
[ 8483 8469 8467 8464 ] final   12.47 input   59.99 | X-H torsion
[ 15475 15466 15465 15463 ] final  133.31 input   60.00 | X-H torsion
[ 7991 7973 7974 7975 ] final  176.38 input   84.71 | X-H torsion
[ 8477 8463 8464 8465 ] final   53.82 input   59.21 | X-H torsion
[ 8522 8507 8508 8509 ] final  -65.01 input -104.23 | X-H torsion
[ 2822 2803 2804 2805 ] final   41.65 input  103.27 | X-H torsion
[ 2184 2168 2169 2170 ] final  -22.43 input  106.62 | X-H torsion
[ 2724 2714 2715 2716 ] final -117.76 input   74.66 | X-H torsion
[ 2767 2750 2751 2752 ] final -154.88 input   68.39 | X-H torsion
[ 5506 5481 5482 5483 ] final  170.66 input   57.83 | X-H torsion
[ 5596 5586 5587 5588 ] final   43.59 input -104.43 | X-H torsion
[ 5454 5428 5429 5430 ] final -114.36 input  113.20 | X-H torsion
[ 5462 5439 5438 5436 ] final  102.46 input   59.99 | X-H torsion
[ 5575 5565 5566 5567 ] final   80.75 input  101.53 | X-H torsion
[ 5392 5377 5378 5379 ] final -128.11 input  130.34 | X-H torsion
[ 8046 8030 8031 8032 ] final -129.36 input   72.86 | X-H torsion
[ 2684 2665 2666 2667 ] final  153.31 input   26.41 | X-H torsion
[ 5342 5324 5325 5326 ] final   98.08 input   62.58 | X-H torsion
[ 4530 4515 4516 4517 ] final   61.73 input  130.34 | X-H torsion
[ 4589 4567 4568 4569 ] final   92.43 input  104.80 | X-H torsion
[ 5299 5274 5275 5276 ] final  152.94 input   71.10 | X-H torsion
[ 8569 8549 8550 8551 ] final  -82.71 input   74.91 | X-H torsion
[ 1864 1854 1855 1856 ] final   35.26 input   57.50 | X-H torsion
[ 15411 15403 15404 15405 ] final -158.94 input  102.24 | X-H torsion
[ 2884 2867 2868 2869 ] final  -40.61 input   60.34 | X-H torsion
[ 16459 1745 1744 1743 ] final  147.87 input    0.00 | X-H torsion
[ 16462 1794 1793 1792 ] final   88.11 input   -0.00 | X-H torsion
[ 16466 2070 2069 2068 ] final  -10.92 input    0.00 | X-H torsion
[ 16474 7834 7833 7832 ] final   44.00 input    0.00 | X-H torsion
[ 16477 7877 7876 7875 ] final   59.29 input    0.00 | X-H torsion
[ 16486 7919 7918 7917 ] final  -70.13 input    0.00 | X-H torsion
[ 16490 8466 8465 8464 ] final  -84.19 input    0.00 | X-H torsion
[ 16495 2717 2716 2715 ] final  119.67 input    0.00 | X-H torsion
[ 16498 5484 5483 5482 ] final   81.79 input    0.00 | X-H torsion
[ 16500 2120 2119 2118 ] final -158.64 input    0.00 | X-H torsion
[ 16505 2753 2752 2751 ] final -129.16 input    0.00 | X-H torsion
[ 16507 5380 5379 5378 ] final   57.79 input    0.00 | X-H torsion
[ 16510 1701 1700 1699 ] final   32.04 input   -0.00 | X-H torsion
[ 16513 5589 5588 5587 ] final   25.81 input    0.00 | X-H torsion
[ 16515 2668 2667 2666 ] final -103.28 input    0.00 | X-H torsion
[ 16517 5327 5326 5325 ] final -112.72 input   -0.00 | X-H torsion
[ 16520 5431 5430 5429 ] final -169.00 input    0.00 | X-H torsion
[ 16525 5532 5531 5530 ] final  -10.54 input   -0.00 | X-H torsion
[ 16530 8033 8032 8031 ] final -162.39 input    0.00 | X-H torsion
[ 16534 8371 8370 8369 ] final  -58.86 input    0.00 | X-H torsion
[ 16536 4570 4569 4568 ] final -126.48 input    0.00 | X-H torsion
[ 16539 4518 4517 4516 ] final -129.02 input    0.00 | X-H torsion
[ 16542 5228 5227 5226 ] final    9.38 input    0.00 | X-H torsion
[ 16544 5277 5276 5275 ] final   43.06 input    0.00 | X-H torsion
[ 16548 8418 8417 8416 ] final  120.41 input    0.00 | X-H torsion
[ 16551 2006 2005 2004 ] final   30.45 input    0.00 | X-H torsion
[ 16556 1821 1820 1819 ] final  163.76 input    0.00 | X-H torsion

> <Gold.Protein.ActiveResidues>
 THR48   LEU49   GLY50   THR51   GLY52   ARG56   VAL57   MET58   LEU59   TYR69  
 ALA70   MET71   LYS72   ILE73   GLU91   LEU95   VAL104  LYS105  LEU106  MET118 
 VAL119  MET120  GLU121  TYR122  VAL123  PRO124  GLY125  GLY126  GLU127  GLU170 
 ASN171  LEU172  LEU173  ILE174  ASP175  GLN181  VAL182  THR183  ASP184  PHE185 
 ASN326  PHE327  ASP328  TYR330 

> <Gold.Protein.RotatedAtoms>
    3.3934  -14.3168   20.8987 H   0  0  0  0  0  0  0  0  0  0  0  0  # atno 1772 bound_to 1742
    1.4994  -14.5878   21.7188 H   0  0  0  0  0  0  0  0  0  0  0  0  # atno 1801 bound_to 1791
   -1.6021  -14.5025   23.8020 H   0  0  0  0  0  0  0  0  0  0  0  0  # atno 1839 bound_to 1818
   -2.0749  -16.7846   27.2126 H   0  0  0  0  0  0  0  0  0  0  0  0  # atno 1864 bound_to 1854
   -0.4559  -18.2936   22.8547 H   0  0  0  0  0  0  0  0  0  0  0  0  # atno 2083 bound_to 2067
    2.7049  -19.7135   20.8647 H   0  0  0  0  0  0  0  0  0  0  0  0  # atno 2134 bound_to 2117
    5.0617  -18.7492   18.0495 H   0  0  0  0  0  0  0  0  0  0  0  0  # atno 2184 bound_to 2168
    5.3678  -22.5579   11.1755 H   0  0  0  0  0  0  0  0  0  0  0  0  # atno 2684 bound_to 2665
    2.8183  -21.3473   13.5026 H   0  0  0  0  0  0  0  0  0  0  0  0  # atno 2724 bound_to 2714
    1.9792  -22.4378   16.1800 H   0  0  0  0  0  0  0  0  0  0  0  0  # atno 2767 bound_to 2750
    0.2478  -24.3078   19.4337 H   0  0  0  0  0  0  0  0  0  0  0  0  # atno 2822 bound_to 2803
   -0.6866  -23.4962   23.0008 H   0  0  0  0  0  0  0  0  0  0  0  0  # atno 2884 bound_to 2867
   -9.4881  -22.8361   11.3239 H   0  0  0  0  0  0  0  0  0  0  0  0  # atno 4530 bound_to 4515
   -5.8404  -24.2387    9.2650 H   0  0  0  0  0  0  0  0  0  0  0  0  # atno 4589 bound_to 4567
    0.1181  -27.8388   17.5602 H   0  0  0  0  0  0  0  0  0  0  0  0  # atno 5299 bound_to 5274
   -0.5864  -24.3740   15.2568 H   0  0  0  0  0  0  0  0  0  0  0  0  # atno 5342 bound_to 5324
   -0.9434  -24.7413   11.2414 H   0  0  0  0  0  0  0  0  0  0  0  0  # atno 5392 bound_to 5377
   -0.0463  -21.5723   11.0370 H   0  0  0  0  0  0  0  0  0  0  0  0  # atno 5454 bound_to 5428
    4.4730  -13.7684   11.9610 H   0  0  0  0  0  0  0  0  0  0  0  0  # atno 5462 bound_to 5439
   -1.1575  -18.5944   10.3638 H   0  0  0  0  0  0  0  0  0  0  0  0  # atno 5506 bound_to 5481
   -1.6078  -12.9715    8.5755 H   0  0  0  0  0  0  0  0  0  0  0  0  # atno 5575 bound_to 5565
   -2.7082  -10.7350   10.1339 H   0  0  0  0  0  0  0  0  0  0  0  0  # atno 5596 bound_to 5586
   -4.2652  -10.7374   12.7747 H   0  0  0  0  0  0  0  0  0  0  0  0  # atno 5632 bound_to 5617
  -10.7199  -12.4200   16.8490 H   0  0  0  0  0  0  0  0  0  0  0  0  # atno 7884 bound_to 7874
   -9.4810  -13.0574   15.3119 H   0  0  0  0  0  0  0  0  0  0  0  0  # atno 7924 bound_to 7916
   -8.3639  -14.4504   13.1342 H   0  0  0  0  0  0  0  0  0  0  0  0  # atno 7991 bound_to 7973
   -7.2837  -12.9818    9.9990 H   0  0  0  0  0  0  0  0  0  0  0  0  # atno 8046 bound_to 8030
  -10.0509  -18.0215   14.5685 H   0  0  0  0  0  0  0  0  0  0  0  0  # atno 8477 bound_to 8463
   -8.7517  -17.5571   16.1737 H   0  0  0  0  0  0  0  0  0  0  0  0  # atno 8483 bound_to 8469
   -9.0568  -21.3105   17.2390 H   0  0  0  0  0  0  0  0  0  0  0  0  # atno 8522 bound_to 8507
  -10.9981  -21.6587   19.4422 H   0  0  0  0  0  0  0  0  0  0  0  0  # atno 8569 bound_to 8549
    0.7984   -7.4671   17.2773 H   0  0  0  0  0  0  0  0  0  0  0  0  # atno 15411 bound_to 15403
   -2.1756  -10.5730   22.1340 H   0  0  0  0  0  0  0  0  0  0  0  0  # atno 15475 bound_to 15466
    3.3547  -15.5855   19.6937 LP  0  0  0  0  0  0  0  0  0  0  0  0  # atno 16458 bound_to 1742
   -1.1564  -13.3330   19.7933 LP  0  0  0  0  0  0  0  0  0  0  0  0  # atno 16459 bound_to 1745
   -0.0393  -12.4209   18.8342 LP  0  0  0  0  0  0  0  0  0  0  0  0  # atno 16460 bound_to 1745
    0.6725  -13.8047   20.3891 LP  0  0  0  0  0  0  0  0  0  0  0  0  # atno 16461 bound_to 1791
    1.2106  -15.8548   23.6485 LP  0  0  0  0  0  0  0  0  0  0  0  0  # atno 16462 bound_to 1794
   -0.2528  -16.7091   23.2899 LP  0  0  0  0  0  0  0  0  0  0  0  0  # atno 16463 bound_to 1794
   -0.2951  -13.5365   24.4492 LP  0  0  0  0  0  0  0  0  0  0  0  0  # atno 16464 bound_to 1818
    1.2214  -18.6982   23.1639 LP  0  0  0  0  0  0  0  0  0  0  0  0  # atno 16465 bound_to 2067
    1.4283  -16.5924   21.1697 LP  0  0  0  0  0  0  0  0  0  0  0  0  # atno 16466 bound_to 2070
    3.0515  -16.8496   20.6229 LP  0  0  0  0  0  0  0  0  0  0  0  0  # atno 16467 bound_to 2070
    1.8421  -19.0591   19.4896 LP  0  0  0  0  0  0  0  0  0  0  0  0  # atno 16468 bound_to 2117
   -3.9966   -9.5305   14.0154 LP  0  0  0  0  0  0  0  0  0  0  0  0  # atno 16469 bound_to 5617
   -7.4667  -12.6955   18.7773 LP  0  0  0  0  0  0  0  0  0  0  0  0  # atno 16474 bound_to 7834
   -7.6722  -13.4115   17.2136 LP  0  0  0  0  0  0  0  0  0  0  0  0  # atno 16475 bound_to 7834
   -9.7465  -12.6380   18.2798 LP  0  0  0  0  0  0  0  0  0  0  0  0  # atno 16476 bound_to 7874
  -11.1134  -16.4111   15.5517 LP  0  0  0  0  0  0  0  0  0  0  0  0  # atno 16477 bound_to 7877
   -9.6965  -16.2219   14.5737 LP  0  0  0  0  0  0  0  0  0  0  0  0  # atno 16478 bound_to 7877
  -10.8772  -14.0879   15.5100 LP  0  0  0  0  0  0  0  0  0  0  0  0  # atno 16479 bound_to 7916
   -7.4771  -17.2492   15.2098 LP  0  0  0  0  0  0  0  0  0  0  0  0  # atno 16480 bound_to 8469
   -7.2445  -17.6089   16.7856 LP  0  0  0  0  0  0  0  0  0  0  0  0  # atno 16481 bound_to 8469
   -1.3856  -10.4076   20.7212 LP  0  0  0  0  0  0  0  0  0  0  0  0  # atno 16484 bound_to 15466
   -1.6454   -9.1057   21.6721 LP  0  0  0  0  0  0  0  0  0  0  0  0  # atno 16485 bound_to 15466
   -9.1914  -11.3585   12.4138 LP  0  0  0  0  0  0  0  0  0  0  0  0  # atno 16486 bound_to 7919
   -7.8762  -11.8551   13.4255 LP  0  0  0  0  0  0  0  0  0  0  0  0  # atno 16487 bound_to 7919
   -9.1839  -14.1239   11.6290 LP  0  0  0  0  0  0  0  0  0  0  0  0  # atno 16488 bound_to 7973
  -10.1080  -19.4224   13.5193 LP  0  0  0  0  0  0  0  0  0  0  0  0  # atno 16489 bound_to 8463
  -10.5993  -17.8933   17.1217 LP  0  0  0  0  0  0  0  0  0  0  0  0  # atno 16490 bound_to 8466
  -11.7436  -19.1408   16.7555 LP  0  0  0  0  0  0  0  0  0  0  0  0  # atno 16491 bound_to 8466
   -9.3071  -19.5704   17.2075 LP  0  0  0  0  0  0  0  0  0  0  0  0  # atno 16492 bound_to 8507
    0.6778  -24.0398   15.6901 LP  0  0  0  0  0  0  0  0  0  0  0  0  # atno 16495 bound_to 2717
   -0.5759  -22.8459   15.6366 LP  0  0  0  0  0  0  0  0  0  0  0  0  # atno 16496 bound_to 2717
    0.3290  -22.5869   19.1088 LP  0  0  0  0  0  0  0  0  0  0  0  0  # atno 16497 bound_to 2803
   -0.4697  -14.9010   11.5540 LP  0  0  0  0  0  0  0  0  0  0  0  0  # atno 16498 bound_to 5484
   -1.7591  -13.9698   10.8684 LP  0  0  0  0  0  0  0  0  0  0  0  0  # atno 16499 bound_to 5484
    4.1844  -20.3690   16.4822 LP  0  0  0  0  0  0  0  0  0  0  0  0  # atno 16500 bound_to 2120
    3.0280  -20.5912   17.7525 LP  0  0  0  0  0  0  0  0  0  0  0  0  # atno 16501 bound_to 2120
    4.3483  -17.2876   17.4142 LP  0  0  0  0  0  0  0  0  0  0  0  0  # atno 16502 bound_to 2168
    1.2846  -22.1655   13.3227 LP  0  0  0  0  0  0  0  0  0  0  0  0  # atno 16503 bound_to 2714
    1.9613  -21.2861   17.4985 LP  0  0  0  0  0  0  0  0  0  0  0  0  # atno 16504 bound_to 2750
    2.0222  -22.3542   21.1240 LP  0  0  0  0  0  0  0  0  0  0  0  0  # atno 16505 bound_to 2753
    2.3120  -21.3070   19.7752 LP  0  0  0  0  0  0  0  0  0  0  0  0  # atno 16506 bound_to 2753
   -2.0097  -21.3461   12.0674 LP  0  0  0  0  0  0  0  0  0  0  0  0  # atno 16507 bound_to 5380
   -2.0136  -20.0689   10.8975 LP  0  0  0  0  0  0  0  0  0  0  0  0  # atno 16508 bound_to 5380
    0.0617  -17.3887   10.7128 LP  0  0  0  0  0  0  0  0  0  0  0  0  # atno 16509 bound_to 5481
    5.3964  -12.6946   20.0709 LP  0  0  0  0  0  0  0  0  0  0  0  0  # atno 16510 bound_to 1701
    3.7192  -12.2798   20.1938 LP  0  0  0  0  0  0  0  0  0  0  0  0  # atno 16511 bound_to 1701
   -1.4168  -11.6455   10.8834 LP  0  0  0  0  0  0  0  0  0  0  0  0  # atno 16512 bound_to 5586
   -4.4879  -11.6393   10.7749 LP  0  0  0  0  0  0  0  0  0  0  0  0  # atno 16513 bound_to 5589
   -5.8044  -10.7031   11.3998 LP  0  0  0  0  0  0  0  0  0  0  0  0  # atno 16514 bound_to 5589
    4.4030  -21.1829   14.9413 LP  0  0  0  0  0  0  0  0  0  0  0  0  # atno 16515 bound_to 2668
    4.3612  -19.9876   13.6885 LP  0  0  0  0  0  0  0  0  0  0  0  0  # atno 16516 bound_to 2668
    0.4119  -22.4546   12.4196 LP  0  0  0  0  0  0  0  0  0  0  0  0  # atno 16517 bound_to 5327
    1.0759  -24.0492   12.5474 LP  0  0  0  0  0  0  0  0  0  0  0  0  # atno 16518 bound_to 5327
    0.6817  -21.3548    9.4640 LP  0  0  0  0  0  0  0  0  0  0  0  0  # atno 16519 bound_to 5428
   -0.7620  -18.3435    7.8957 LP  0  0  0  0  0  0  0  0  0  0  0  0  # atno 16520 bound_to 5431
   -0.0484  -19.8930    8.1957 LP  0  0  0  0  0  0  0  0  0  0  0  0  # atno 16521 bound_to 5431
    2.9091  -13.4066   12.2267 LP  0  0  0  0  0  0  0  0  0  0  0  0  # atno 16522 bound_to 5439
    3.5431  -13.2522   10.7298 LP  0  0  0  0  0  0  0  0  0  0  0  0  # atno 16523 bound_to 5439
    1.6326  -11.6361   10.2487 LP  0  0  0  0  0  0  0  0  0  0  0  0  # atno 16525 bound_to 5532
    0.4888  -10.4639    9.6850 LP  0  0  0  0  0  0  0  0  0  0  0  0  # atno 16526 bound_to 5532
   -0.0441  -12.1953    8.7144 LP  0  0  0  0  0  0  0  0  0  0  0  0  # atno 16527 bound_to 5565
   -2.2268  -23.6237   11.6398 LP  0  0  0  0  0  0  0  0  0  0  0  0  # atno 16528 bound_to 5377
   -5.6175  -12.4539   10.0943 LP  0  0  0  0  0  0  0  0  0  0  0  0  # atno 16529 bound_to 8030
   -3.4096  -12.6962    7.1378 LP  0  0  0  0  0  0  0  0  0  0  0  0  # atno 16530 bound_to 8033
   -4.0236  -12.0405    8.6187 LP  0  0  0  0  0  0  0  0  0  0  0  0  # atno 16531 bound_to 8033
    5.1220  -20.9481   11.8154 LP  0  0  0  0  0  0  0  0  0  0  0  0  # atno 16532 bound_to 2665
   -0.0036  -25.7556   14.3688 LP  0  0  0  0  0  0  0  0  0  0  0  0  # atno 16533 bound_to 5324
   -8.4271  -16.7366   11.8052 LP  0  0  0  0  0  0  0  0  0  0  0  0  # atno 16534 bound_to 8371
  -10.0820  -16.2674   12.0083 LP  0  0  0  0  0  0  0  0  0  0  0  0  # atno 16535 bound_to 8371
   -3.2075  -25.9729   11.4707 LP  0  0  0  0  0  0  0  0  0  0  0  0  # atno 16536 bound_to 4570
   -4.4726  -24.7930   11.5565 LP  0  0  0  0  0  0  0  0  0  0  0  0  # atno 16537 bound_to 4570
   -9.2350  -22.0344    9.7957 LP  0  0  0  0  0  0  0  0  0  0  0  0  # atno 16538 bound_to 4515
   -7.7074  -25.8797   11.8903 LP  0  0  0  0  0  0  0  0  0  0  0  0  # atno 16539 bound_to 4518
   -9.0871  -25.0461   11.2567 LP  0  0  0  0  0  0  0  0  0  0  0  0  # atno 16540 bound_to 4518
   -7.2188  -24.6974   10.2523 LP  0  0  0  0  0  0  0  0  0  0  0  0  # atno 16541 bound_to 4567
   -0.8793  -25.2233   19.2266 LP  0  0  0  0  0  0  0  0  0  0  0  0  # atno 16542 bound_to 5228
   -0.2529  -24.8869   17.6472 LP  0  0  0  0  0  0  0  0  0  0  0  0  # atno 16543 bound_to 5228
   -1.1488  -27.9698   14.4975 LP  0  0  0  0  0  0  0  0  0  0  0  0  # atno 16544 bound_to 5277
   -0.7252  -27.1095   13.0551 LP  0  0  0  0  0  0  0  0  0  0  0  0  # atno 16545 bound_to 5277
   -9.1323  -20.9965   12.7853 LP  0  0  0  0  0  0  0  0  0  0  0  0  # atno 16548 bound_to 8418
  -10.8295  -21.3417   12.8056 LP  0  0  0  0  0  0  0  0  0  0  0  0  # atno 16549 bound_to 8418
   -1.3282  -27.1639   16.8482 LP  0  0  0  0  0  0  0  0  0  0  0  0  # atno 16550 bound_to 5274
   -0.0002  -21.3123   24.0491 LP  0  0  0  0  0  0  0  0  0  0  0  0  # atno 16551 bound_to 2006
    0.9061  -21.1158   22.5862 LP  0  0  0  0  0  0  0  0  0  0  0  0  # atno 16552 bound_to 2006
  -10.0939  -23.0536   18.9166 LP  0  0  0  0  0  0  0  0  0  0  0  0  # atno 16555 bound_to 8549
   -4.0386  -13.9177   26.7618 LP  0  0  0  0  0  0  0  0  0  0  0  0  # atno 16556 bound_to 1821
   -2.6379  -13.0387   26.2468 LP  0  0  0  0  0  0  0  0  0  0  0  0  # atno 16557 bound_to 1821
   -2.7334  -15.3335   26.4772 LP  0  0  0  0  0  0  0  0  0  0  0  0  # atno 16558 bound_to 1854

> <Gold.Score>
     Fitness  S(hb_ext) S(vdw_ext)  S(hb_int)    S(int)      intcor
     33.42       0.00      25.91       0.00      -2.21      -0.76

> <Gold.Goldscore.Fitness>
33.4157

> <Gold.Goldscore.Internal.Vdw>
-2.6036

> <Gold.Goldscore.Internal.Torsion>
-0.3678

> <Gold.Goldscore.External.Vdw>
25.9070

> <Gold.Goldscore.Internal.HBond>
0.0000

> <Gold.Goldscore.External.HBond>
0.0000

> <Gold.Goldscore.Internal.Correction>
-0.7650

> <Gold.Goldscore.Internal.Vdw.Weighted>
-2.6036

> <Gold.Goldscore.Internal.Torsion.Weighted>
-0.3678

> <Gold.Goldscore.External.Vdw.Weighted>
35.6221

> <Gold.Goldscore.Internal.HBond.Weighted>
0.0000

> <Gold.Goldscore.External.HBond.Weighted>
0.0000

> <Gold.Goldscore.Internal.Correction.Weighted>
-0.7650

> <Gold.Rescore>
     Score     S(PLP)   S(hbond)     S(cho)   S(metal)  DE(clash)   DE(tors)     intcor
     24.63     -27.35       0.00       0.00       0.00       1.16       0.78       ----

> <Gold.PLP.Fitness>
24.6254

> <Gold.PLP.PLP>
-27.3451

> <Gold.PLP.part.hbond>
-1.0000

> <Gold.PLP.part.metal>
0.0000

> <Gold.PLP.part.buried>
1.4642

> <Gold.PLP.part.nonpolar>
-31.5698

> <Gold.PLP.part.repulsive>
3.4651

> <Gold.PLP.ligand.clash>
1.1558

> <Gold.PLP.ligand.torsion>
0.7820

> <Gold.PLP.Chemscore.Hbond>
0.0000

> <Gold.PLP.Chemscore.CHOScore>
0.0000

> <Gold.PLP.Chemscore.Metal>
0.0000

> <Gold.PLP.Chemscore.Internal.Correction>
   9.000000E+99

#       Name:                CT1002167954
#       Creating user name   hitesit
#       Creation time:       Sun Apr 16 22:50:58 2023


#       File generated by GOLD software.
#

@<TRIPOS>MOLECULE
CT1002167954|ligand_prepared|mol2|1|dock8
    29    30     1
SMALL
NO_CHARGES


@<TRIPOS>ATOM
      1 C1          -5.4495 -16.8974  20.4698 C.3            1 RES1               0.0000
      2 C2          -4.9832 -17.6556  19.2103 C.ar           1 RES1               0.0000
      3 C3          -4.5272 -15.6897  20.6089 C.2            1 RES1               0.0000
      4 C4          -6.9127 -16.5389  20.2347 C.2            1 RES1               0.0000
      5 C5          -5.3648 -17.7322  21.7688 C.3            1 RES1               0.0000
      6 C6          -4.5043 -16.9624  18.1026 C.ar           1 RES1               0.0000
      7 C7          -5.0233 -19.0457  19.1423 C.ar           1 RES1               0.0000
      8 N8          -5.0388 -14.4647  20.2964 N.am           1 RES1               0.0000
      9 O9          -3.3574 -15.8149  20.9496 O.2            1 RES1               0.0000
     10 N10         -7.2387 -15.2128  20.1214 N.am           1 RES1               0.0000
     11 O11         -7.7837 -17.3937  20.1300 O.2            1 RES1               0.0000
     12 C12         -5.5479 -16.9134  23.0370 C.3            1 RES1               0.0000
     13 C13         -4.0782 -17.6346  16.9691 C.ar           1 RES1               0.0000
     14 C14         -4.5969 -19.7159  18.0076 C.ar           1 RES1               0.0000
     15 C15         -6.3636 -14.1610  20.1109 C.2            1 RES1               0.0000
     16 C16         -4.1238 -19.0117  16.9210 C.ar           1 RES1               0.0000
     17 O17         -6.7277 -12.9998  19.9497 O.2            1 RES1               0.0000
     18 H18         -6.1354 -18.5124  21.7380 H              1 RES1               0.0000
     19 H19         -4.3870 -18.2281  21.8068 H              1 RES1               0.0000
     20 H20         -4.4633 -15.8785  18.1212 H              1 RES1               0.0000
     21 H21         -5.3927 -19.6204  19.9848 H              1 RES1               0.0000
     22 H22         -4.3749 -13.7042  20.1908 H              1 RES1               0.0000
     23 H23         -8.2252 -14.9890  20.0372 H              1 RES1               0.0000
     24 H24         -5.4795 -17.5472  23.9186 H              1 RES1               0.0000
     25 H25         -4.7827 -16.1436  23.1129 H              1 RES1               0.0000
     26 H26         -6.5207 -16.4262  23.0444 H              1 RES1               0.0000
     27 H27         -3.7079 -17.0757  16.1160 H              1 RES1               0.0000
     28 H28         -4.6352 -20.7997  17.9739 H              1 RES1               0.0000
     29 H29         -3.7895 -19.5380  16.0330 H              1 RES1               0.0000
@<TRIPOS>BOND
    1    1    2 1     
    2    1    3 1     
    3    1    4 1     
    4    1    5 1     
    5    2    6 ar    
    6    2    7 ar    
    7    3    8 1     
    8    3    9 2     
    9    4   10 1     
   10    4   11 2     
   11    5   12 1     
   12    5   18 1     
   13    5   19 1     
   14    6   13 ar    
   15    6   20 1     
   16    7   14 ar    
   17    7   21 1     
   18    8   15 1     
   19    8   22 1     
   20   10   15 1     
   21   10   23 1     
   22   12   24 1     
   23   12   25 1     
   24   12   26 1     
   25   13   16 ar    
   26   13   27 1     
   27   14   16 ar    
   28   14   28 1     
   29   15   17 2     
   30   16   29 1     
@<TRIPOS>SUBSTRUCTURE
      1 RES1           1
@<TRIPOS>SET
DONOR_HYDROGENS      STATIC     ATOMS    <user>   **** ""
2 22 23
ATOM$RED        STATIC     ATOMS    COLORGROUP SYSTEM
2 22 23
@<TRIPOS>COMMENT
> <Gold.Version>
2022.3.0

> <Gold.Id.Protein>
unknown|3mvj_clean|pdb

> <Gold.Protein.RotatedTorsions>
[ 1772 1742 1743 1744 ] final  146.43 input   69.76 | X-H torsion
[ 1801 1791 1792 1793 ] final  132.84 input  -10.55 | X-H torsion
[ 1839 1818 1819 1820 ] final -125.74 input   43.70 | X-H torsion
[ 2083 2067 2068 2069 ] final  160.46 input   63.04 | X-H torsion
[ 2134 2117 2118 2119 ] final -175.45 input   55.90 | X-H torsion
[ 5632 5617 5618 5619 ] final  -20.34 input   93.34 | X-H torsion
[ 7884 7874 7875 7876 ] final  130.14 input   68.03 | X-H torsion
[ 7924 7916 7917 7918 ] final  121.08 input   66.66 | X-H torsion
[ 8483 8469 8467 8464 ] final -107.01 input   59.99 | X-H torsion
[ 15475 15466 15465 15463 ] final -158.03 input   60.00 | X-H torsion
[ 7991 7973 7974 7975 ] final   91.87 input   84.71 | X-H torsion
[ 8477 8463 8464 8465 ] final -165.80 input   59.21 | X-H torsion
[ 8522 8507 8508 8509 ] final -143.69 input -104.23 | X-H torsion
[ 2822 2803 2804 2805 ] final   31.49 input  103.27 | X-H torsion
[ 2184 2168 2169 2170 ] final  -45.34 input  106.62 | X-H torsion
[ 2724 2714 2715 2716 ] final -109.51 input   74.66 | X-H torsion
[ 2767 2750 2751 2752 ] final -133.17 input   68.39 | X-H torsion
[ 5506 5481 5482 5483 ] final   34.25 input   57.83 | X-H torsion
[ 5596 5586 5587 5588 ] final  -45.15 input -104.43 | X-H torsion
[ 5454 5428 5429 5430 ] final   41.53 input  113.20 | X-H torsion
[ 5462 5439 5438 5436 ] final  -41.25 input   59.99 | X-H torsion
[ 5575 5565 5566 5567 ] final  130.86 input  101.53 | X-H torsion
[ 5392 5377 5378 5379 ] final -118.62 input  130.34 | X-H torsion
[ 8046 8030 8031 8032 ] final   33.43 input   72.86 | X-H torsion
[ 2684 2665 2666 2667 ] final -128.55 input   26.41 | X-H torsion
[ 5342 5324 5325 5326 ] final   24.36 input   62.58 | X-H torsion
[ 4530 4515 4516 4517 ] final  -20.38 input  130.34 | X-H torsion
[ 4589 4567 4568 4569 ] final   69.45 input  104.80 | X-H torsion
[ 5299 5274 5275 5276 ] final  -76.88 input   71.10 | X-H torsion
[ 8569 8549 8550 8551 ] final  -95.57 input   74.91 | X-H torsion
[ 1864 1854 1855 1856 ] final   85.30 input   57.50 | X-H torsion
[ 15411 15403 15404 15405 ] final   19.18 input  102.24 | X-H torsion
[ 2884 2867 2868 2869 ] final  138.88 input   60.34 | X-H torsion
[ 16459 1745 1744 1743 ] final   77.02 input    0.00 | X-H torsion
[ 16462 1794 1793 1792 ] final  -57.76 input   -0.00 | X-H torsion
[ 16466 2070 2069 2068 ] final  -57.95 input    0.00 | X-H torsion
[ 16474 7834 7833 7832 ] final -163.38 input    0.00 | X-H torsion
[ 16477 7877 7876 7875 ] final  -38.22 input    0.00 | X-H torsion
[ 16486 7919 7918 7917 ] final -152.31 input    0.00 | X-H torsion
[ 16490 8466 8465 8464 ] final  150.05 input    0.00 | X-H torsion
[ 16495 2717 2716 2715 ] final  -94.58 input    0.00 | X-H torsion
[ 16498 5484 5483 5482 ] final -174.61 input    0.00 | X-H torsion
[ 16500 2120 2119 2118 ] final  -22.73 input    0.00 | X-H torsion
[ 16505 2753 2752 2751 ] final -149.27 input    0.00 | X-H torsion
[ 16507 5380 5379 5378 ] final  -34.23 input    0.00 | X-H torsion
[ 16510 1701 1700 1699 ] final  179.33 input   -0.00 | X-H torsion
[ 16513 5589 5588 5587 ] final -100.42 input    0.00 | X-H torsion
[ 16515 2668 2667 2666 ] final  145.81 input    0.00 | X-H torsion
[ 16517 5327 5326 5325 ] final   86.68 input   -0.00 | X-H torsion
[ 16520 5431 5430 5429 ] final -134.36 input    0.00 | X-H torsion
[ 16525 5532 5531 5530 ] final  102.00 input   -0.00 | X-H torsion
[ 16530 8033 8032 8031 ] final   70.71 input    0.00 | X-H torsion
[ 16534 8371 8370 8369 ] final -147.25 input    0.00 | X-H torsion
[ 16536 4570 4569 4568 ] final -127.24 input    0.00 | X-H torsion
[ 16539 4518 4517 4516 ] final   83.10 input    0.00 | X-H torsion
[ 16542 5228 5227 5226 ] final  136.62 input    0.00 | X-H torsion
[ 16544 5277 5276 5275 ] final  -32.59 input    0.00 | X-H torsion
[ 16548 8418 8417 8416 ] final    5.00 input    0.00 | X-H torsion
[ 16551 2006 2005 2004 ] final  178.68 input    0.00 | X-H torsion
[ 16556 1821 1820 1819 ] final -167.31 input    0.00 | X-H torsion

> <Gold.Protein.ActiveResidues>
 THR48   LEU49   GLY50   THR51   GLY52   ARG56   VAL57   MET58   LEU59   TYR69  
 ALA70   MET71   LYS72   ILE73   GLU91   LEU95   VAL104  LYS105  LEU106  MET118 
 VAL119  MET120  GLU121  TYR122  VAL123  PRO124  GLY125  GLY126  GLU127  GLU170 
 ASN171  LEU172  LEU173  ILE174  ASP175  GLN181  VAL182  THR183  ASP184  PHE185 
 ASN326  PHE327  ASP328  TYR330 

> <Gold.Protein.RotatedAtoms>
    3.6241  -15.3442   19.5237 H   0  0  0  0  0  0  0  0  0  0  0  0  # atno 1772 bound_to 1742
    0.5423  -14.3206   20.3442 H   0  0  0  0  0  0  0  0  0  0  0  0  # atno 1801 bound_to 1791
   -0.6734  -14.7498   23.7143 H   0  0  0  0  0  0  0  0  0  0  0  0  # atno 1839 bound_to 1818
   -2.5374  -16.9053   26.6218 H   0  0  0  0  0  0  0  0  0  0  0  0  # atno 1864 bound_to 1854
   -0.4749  -18.6781   22.9566 H   0  0  0  0  0  0  0  0  0  0  0  0  # atno 2083 bound_to 2067
    2.4993  -19.0161   20.9430 H   0  0  0  0  0  0  0  0  0  0  0  0  # atno 2134 bound_to 2117
    4.7532  -18.8672   17.9332 H   0  0  0  0  0  0  0  0  0  0  0  0  # atno 2184 bound_to 2168
    4.8551  -21.6819   10.7036 H   0  0  0  0  0  0  0  0  0  0  0  0  # atno 2684 bound_to 2665
    2.8576  -21.4535   13.5608 H   0  0  0  0  0  0  0  0  0  0  0  0  # atno 2724 bound_to 2714
    1.6494  -22.3930   16.2202 H   0  0  0  0  0  0  0  0  0  0  0  0  # atno 2767 bound_to 2750
    0.3871  -24.2863   19.5063 H   0  0  0  0  0  0  0  0  0  0  0  0  # atno 2822 bound_to 2803
    0.9536  -22.9678   22.5632 H   0  0  0  0  0  0  0  0  0  0  0  0  # atno 2884 bound_to 2867
   -9.5824  -23.2218   10.2420 H   0  0  0  0  0  0  0  0  0  0  0  0  # atno 4530 bound_to 4515
   -5.7075  -24.1990    9.5963 H   0  0  0  0  0  0  0  0  0  0  0  0  # atno 4589 bound_to 4567
   -1.0651  -26.7674   17.4102 H   0  0  0  0  0  0  0  0  0  0  0  0  # atno 5299 bound_to 5274
    0.2099  -24.3929   14.5736 H   0  0  0  0  0  0  0  0  0  0  0  0  # atno 5342 bound_to 5324
   -0.8642  -24.6662   11.3389 H   0  0  0  0  0  0  0  0  0  0  0  0  # atno 5392 bound_to 5377
    0.3351  -21.2766    9.3793 H   0  0  0  0  0  0  0  0  0  0  0  0  # atno 5454 bound_to 5428
    2.7596  -13.2962   11.8883 H   0  0  0  0  0  0  0  0  0  0  0  0  # atno 5462 bound_to 5439
   -0.4059  -17.3612   11.1640 H   0  0  0  0  0  0  0  0  0  0  0  0  # atno 5506 bound_to 5481
   -1.2693  -12.8147    7.9191 H   0  0  0  0  0  0  0  0  0  0  0  0  # atno 5575 bound_to 5565
   -2.6067  -11.8855   10.5839 H   0  0  0  0  0  0  0  0  0  0  0  0  # atno 5596 bound_to 5586
   -4.3849   -9.5763   12.7499 H   0  0  0  0  0  0  0  0  0  0  0  0  # atno 5632 bound_to 5617
  -10.7948  -12.7239   18.2111 H   0  0  0  0  0  0  0  0  0  0  0  0  # atno 7884 bound_to 7874
  -10.8888  -13.0445   15.4259 H   0  0  0  0  0  0  0  0  0  0  0  0  # atno 7924 bound_to 7916
   -8.6155  -15.1319   12.2024 H   0  0  0  0  0  0  0  0  0  0  0  0  # atno 7991 bound_to 7973
   -5.5488  -12.6962   10.0155 H   0  0  0  0  0  0  0  0  0  0  0  0  # atno 8046 bound_to 8030
   -9.5964  -19.1410   13.4062 H   0  0  0  0  0  0  0  0  0  0  0  0  # atno 8477 bound_to 8463
   -7.4872  -17.2524   15.2119 H   0  0  0  0  0  0  0  0  0  0  0  0  # atno 8483 bound_to 8469
   -8.3419  -20.4679   17.5462 H   0  0  0  0  0  0  0  0  0  0  0  0  # atno 8522 bound_to 8507
  -11.0437  -21.6440   19.2519 H   0  0  0  0  0  0  0  0  0  0  0  0  # atno 8569 bound_to 8549
    1.7506   -8.8596   17.8120 H   0  0  0  0  0  0  0  0  0  0  0  0  # atno 15411 bound_to 15403
   -2.0341   -9.5328   22.2457 H   0  0  0  0  0  0  0  0  0  0  0  0  # atno 15475 bound_to 15466
    3.1314  -14.5910   21.0247 LP  0  0  0  0  0  0  0  0  0  0  0  0  # atno 16458 bound_to 1742
   -0.8035  -13.6060   18.8940 LP  0  0  0  0  0  0  0  0  0  0  0  0  # atno 16459 bound_to 1745
   -0.3922  -12.1479   19.7335 LP  0  0  0  0  0  0  0  0  0  0  0  0  # atno 16460 bound_to 1745
    1.5973  -14.0629   21.7174 LP  0  0  0  0  0  0  0  0  0  0  0  0  # atno 16461 bound_to 1791
   -0.0394  -16.5859   22.8455 LP  0  0  0  0  0  0  0  0  0  0  0  0  # atno 16462 bound_to 1794
    0.9971  -15.9780   24.0929 LP  0  0  0  0  0  0  0  0  0  0  0  0  # atno 16463 bound_to 1794
   -1.1974  -13.2962   24.5344 LP  0  0  0  0  0  0  0  0  0  0  0  0  # atno 16464 bound_to 1818
    1.2395  -18.3295   23.0662 LP  0  0  0  0  0  0  0  0  0  0  0  0  # atno 16465 bound_to 2067
    1.5082  -16.4992   20.4896 LP  0  0  0  0  0  0  0  0  0  0  0  0  # atno 16466 bound_to 2070
    2.9716  -16.9428   21.3030 LP  0  0  0  0  0  0  0  0  0  0  0  0  # atno 16467 bound_to 2070
    2.0409  -19.7338   19.4138 LP  0  0  0  0  0  0  0  0  0  0  0  0  # atno 16468 bound_to 2117
   -3.8813  -10.6496   14.0393 LP  0  0  0  0  0  0  0  0  0  0  0  0  # atno 16469 bound_to 5617
   -7.8252  -13.6925   17.4699 LP  0  0  0  0  0  0  0  0  0  0  0  0  # atno 16474 bound_to 7834
   -7.3138  -12.4145   18.5211 LP  0  0  0  0  0  0  0  0  0  0  0  0  # atno 16475 bound_to 7834
   -9.6725  -12.3375   16.9332 LP  0  0  0  0  0  0  0  0  0  0  0  0  # atno 16476 bound_to 7874
   -9.8290  -16.6076   15.6403 LP  0  0  0  0  0  0  0  0  0  0  0  0  # atno 16477 bound_to 7877
  -10.9809  -16.0255   14.4851 LP  0  0  0  0  0  0  0  0  0  0  0  0  # atno 16478 bound_to 7877
   -9.4979  -14.1005   15.3983 LP  0  0  0  0  0  0  0  0  0  0  0  0  # atno 16479 bound_to 7916
   -7.2379  -17.6073   16.7805 LP  0  0  0  0  0  0  0  0  0  0  0  0  # atno 16480 bound_to 8469
   -8.7569  -17.5576   16.1833 LP  0  0  0  0  0  0  0  0  0  0  0  0  # atno 16481 bound_to 8469
   -1.8974  -10.9583   21.4732 LP  0  0  0  0  0  0  0  0  0  0  0  0  # atno 16484 bound_to 15466
   -1.2761   -9.6027   20.8076 LP  0  0  0  0  0  0  0  0  0  0  0  0  # atno 16485 bound_to 15466
   -8.1290  -11.6768   12.1573 LP  0  0  0  0  0  0  0  0  0  0  0  0  # atno 16486 bound_to 7919
   -8.9387  -11.5368   13.6820 LP  0  0  0  0  0  0  0  0  0  0  0  0  # atno 16487 bound_to 7919
   -8.9358  -13.4518   12.5477 LP  0  0  0  0  0  0  0  0  0  0  0  0  # atno 16488 bound_to 7973
  -10.5466  -18.3419   14.6412 LP  0  0  0  0  0  0  0  0  0  0  0  0  # atno 16489 bound_to 8463
  -11.5423  -19.0483   17.5133 LP  0  0  0  0  0  0  0  0  0  0  0  0  # atno 16490 bound_to 8466
  -10.8005  -17.9858   16.3639 LP  0  0  0  0  0  0  0  0  0  0  0  0  # atno 16491 bound_to 8466
   -9.9809  -20.3645   16.9180 LP  0  0  0  0  0  0  0  0  0  0  0  0  # atno 16492 bound_to 8507
   -0.5549  -23.0203   16.1154 LP  0  0  0  0  0  0  0  0  0  0  0  0  # atno 16495 bound_to 2717
    0.6568  -23.8655   15.2113 LP  0  0  0  0  0  0  0  0  0  0  0  0  # atno 16496 bound_to 2717
    0.1955  -22.6074   19.0392 LP  0  0  0  0  0  0  0  0  0  0  0  0  # atno 16497 bound_to 2803
   -0.7115  -13.7467   10.8746 LP  0  0  0  0  0  0  0  0  0  0  0  0  # atno 16498 bound_to 5484
   -1.5173  -15.1241   11.5479 LP  0  0  0  0  0  0  0  0  0  0  0  0  # atno 16499 bound_to 5484
    3.5901  -20.8923   17.8788 LP  0  0  0  0  0  0  0  0  0  0  0  0  # atno 16500 bound_to 2120
    3.6223  -20.0679   16.3559 LP  0  0  0  0  0  0  0  0  0  0  0  0  # atno 16501 bound_to 2120
    4.6510  -17.1718   17.5283 LP  0  0  0  0  0  0  0  0  0  0  0  0  # atno 16502 bound_to 2168
    1.2461  -22.0617   13.2659 LP  0  0  0  0  0  0  0  0  0  0  0  0  # atno 16503 bound_to 2714
    2.2801  -21.3294   17.4597 LP  0  0  0  0  0  0  0  0  0  0  0  0  # atno 16504 bound_to 2750
    1.7798  -22.1745   21.1437 LP  0  0  0  0  0  0  0  0  0  0  0  0  # atno 16505 bound_to 2753
    2.5544  -21.4868   19.7555 LP  0  0  0  0  0  0  0  0  0  0  0  0  # atno 16506 bound_to 2753
   -2.6218  -21.1007   11.0101 LP  0  0  0  0  0  0  0  0  0  0  0  0  # atno 16507 bound_to 5380
   -1.4015  -20.3143   11.9548 LP  0  0  0  0  0  0  0  0  0  0  0  0  # atno 16508 bound_to 5380
   -0.6659  -18.5826    9.9381 LP  0  0  0  0  0  0  0  0  0  0  0  0  # atno 16509 bound_to 5481
    3.8001  -12.3874   19.7251 LP  0  0  0  0  0  0  0  0  0  0  0  0  # atno 16510 bound_to 1701
    5.3155  -12.5869   20.5397 LP  0  0  0  0  0  0  0  0  0  0  0  0  # atno 16511 bound_to 1701
   -1.5155  -10.5259   10.4455 LP  0  0  0  0  0  0  0  0  0  0  0  0  # atno 16512 bound_to 5586
   -5.3309  -10.3494   10.8861 LP  0  0  0  0  0  0  0  0  0  0  0  0  # atno 16513 bound_to 5589
   -4.9614  -11.9930   11.2887 LP  0  0  0  0  0  0  0  0  0  0  0  0  # atno 16514 bound_to 5589
    3.7958  -19.9728   14.4914 LP  0  0  0  0  0  0  0  0  0  0  0  0  # atno 16515 bound_to 2668
    4.9684  -21.1977   14.1384 LP  0  0  0  0  0  0  0  0  0  0  0  0  # atno 16516 bound_to 2668
    1.1027  -24.0077   12.2598 LP  0  0  0  0  0  0  0  0  0  0  0  0  # atno 16517 bound_to 5327
    0.3852  -22.4961   12.7072 LP  0  0  0  0  0  0  0  0  0  0  0  0  # atno 16518 bound_to 5327
    0.3084  -21.6443   11.0868 LP  0  0  0  0  0  0  0  0  0  0  0  0  # atno 16519 bound_to 5428
   -0.2537  -18.2948    7.8244 LP  0  0  0  0  0  0  0  0  0  0  0  0  # atno 16520 bound_to 5431
   -0.5566  -19.9417    8.2670 LP  0  0  0  0  0  0  0  0  0  0  0  0  # atno 16521 bound_to 5431
    3.9163  -13.3550   10.7456 LP  0  0  0  0  0  0  0  0  0  0  0  0  # atno 16522 bound_to 5439
    4.2620  -13.7795   12.2841 LP  0  0  0  0  0  0  0  0  0  0  0  0  # atno 16523 bound_to 5439
    1.2886  -10.7024    9.2071 LP  0  0  0  0  0  0  0  0  0  0  0  0  # atno 16525 bound_to 5532
    0.8328  -11.3975   10.7267 LP  0  0  0  0  0  0  0  0  0  0  0  0  # atno 16526 bound_to 5532
   -0.3706  -12.3466    9.3475 LP  0  0  0  0  0  0  0  0  0  0  0  0  # atno 16527 bound_to 5565
   -2.3041  -23.6971   11.5446 LP  0  0  0  0  0  0  0  0  0  0  0  0  # atno 16528 bound_to 5377
   -7.2978  -12.7305   10.0783 LP  0  0  0  0  0  0  0  0  0  0  0  0  # atno 16529 bound_to 8030
   -3.7964  -12.7804    8.6358 LP  0  0  0  0  0  0  0  0  0  0  0  0  # atno 16530 bound_to 8033
   -3.6368  -11.9563    7.1207 LP  0  0  0  0  0  0  0  0  0  0  0  0  # atno 16531 bound_to 8033
    5.6194  -21.7979   12.2732 LP  0  0  0  0  0  0  0  0  0  0  0  0  # atno 16532 bound_to 2665
   -0.7938  -25.7368   15.0467 LP  0  0  0  0  0  0  0  0  0  0  0  0  # atno 16533 bound_to 5324
   -9.3151  -17.0823   12.5467 LP  0  0  0  0  0  0  0  0  0  0  0  0  # atno 16534 bound_to 8371
   -9.1940  -15.9216   11.2668 LP  0  0  0  0  0  0  0  0  0  0  0  0  # atno 16535 bound_to 8371
   -3.2097  -25.9759   11.4816 LP  0  0  0  0  0  0  0  0  0  0  0  0  # atno 16536 bound_to 4570
   -4.4704  -24.7900   11.5457 LP  0  0  0  0  0  0  0  0  0  0  0  0  # atno 16537 bound_to 4570
   -9.1418  -21.6533   10.8644 LP  0  0  0  0  0  0  0  0  0  0  0  0  # atno 16538 bound_to 4515
   -9.0138  -25.4204   10.9668 LP  0  0  0  0  0  0  0  0  0  0  0  0  # atno 16539 bound_to 4518
   -7.7807  -25.5054   12.1802 LP  0  0  0  0  0  0  0  0  0  0  0  0  # atno 16540 bound_to 4518
   -7.3448  -24.7351    9.9384 LP  0  0  0  0  0  0  0  0  0  0  0  0  # atno 16541 bound_to 4567
    0.2581  -25.1115   18.1770 LP  0  0  0  0  0  0  0  0  0  0  0  0  # atno 16542 bound_to 5228
   -1.3903  -24.9987   18.6968 LP  0  0  0  0  0  0  0  0  0  0  0  0  # atno 16543 bound_to 5228
   -0.2270  -27.9960   13.9705 LP  0  0  0  0  0  0  0  0  0  0  0  0  # atno 16544 bound_to 5277
   -1.6470  -27.0833   13.5822 LP  0  0  0  0  0  0  0  0  0  0  0  0  # atno 16545 bound_to 5277
  -10.3969  -21.0325   12.0483 LP  0  0  0  0  0  0  0  0  0  0  0  0  # atno 16548 bound_to 8418
   -9.5648  -21.3057   13.5426 LP  0  0  0  0  0  0  0  0  0  0  0  0  # atno 16549 bound_to 8418
   -0.1719  -28.2109   16.9947 LP  0  0  0  0  0  0  0  0  0  0  0  0  # atno 16550 bound_to 5274
    0.4497  -21.1061   22.4584 LP  0  0  0  0  0  0  0  0  0  0  0  0  # atno 16551 bound_to 2006
    0.4562  -21.3220   24.1769 LP  0  0  0  0  0  0  0  0  0  0  0  0  # atno 16552 bound_to 2006
  -10.0487  -23.0681   19.1049 LP  0  0  0  0  0  0  0  0  0  0  0  0  # atno 16555 bound_to 8549
   -3.8502  -13.7894   27.1297 LP  0  0  0  0  0  0  0  0  0  0  0  0  # atno 16556 bound_to 1821
   -2.8263  -13.1670   25.8790 LP  0  0  0  0  0  0  0  0  0  0  0  0  # atno 16557 bound_to 1821
   -2.2927  -15.2185   27.0402 LP  0  0  0  0  0  0  0  0  0  0  0  0  # atno 16558 bound_to 1854

> <Gold.Score>
     Fitness  S(hb_ext) S(vdw_ext)  S(hb_int)    S(int)      intcor
     33.15       6.00      20.00       0.00      -0.35      -0.76

> <Gold.Goldscore.Fitness>
33.1545

> <Gold.Goldscore.Internal.Vdw>
-0.5230

> <Gold.Goldscore.Internal.Torsion>
-0.5902

> <Gold.Goldscore.External.Vdw>
20.0020

> <Gold.Goldscore.Internal.HBond>
0.0000

> <Gold.Goldscore.External.HBond>
6.0000

> <Gold.Goldscore.Internal.Correction>
-0.7650

> <Gold.Goldscore.Hbonds>
donor molecule, donor type, donor heavy atom, donor atom, acceptor molecule, acceptor atom, score
      L1  H    10    23       P1  7881  1.00

> <Gold.Goldscore.Internal.Vdw.Weighted>
-0.5230

> <Gold.Goldscore.Internal.Torsion.Weighted>
-0.5902

> <Gold.Goldscore.External.Vdw.Weighted>
27.5028

> <Gold.Goldscore.Internal.HBond.Weighted>
0.0000

> <Gold.Goldscore.External.HBond.Weighted>
6.0000

> <Gold.Goldscore.Internal.Correction.Weighted>
-0.7650

> <Gold.Rescore>
     Score     S(PLP)   S(hbond)     S(cho)   S(metal)  DE(clash)   DE(tors)     intcor
     26.21     -25.19       1.00       0.00       0.00       0.00       0.99       ----

> <Gold.PLP.Fitness>
26.2051

> <Gold.PLP.PLP>
-25.1901

> <Gold.PLP.part.hbond>
-3.3592

> <Gold.PLP.part.metal>
0.0000

> <Gold.PLP.part.buried>
-1.7292

> <Gold.PLP.part.nonpolar>
-21.6152

> <Gold.PLP.part.repulsive>
2.9954

> <Gold.PLP.ligand.clash>
0.0000

> <Gold.PLP.ligand.torsion>
0.9925

> <Gold.PLP.Chemscore.Hbond>
1.0000

> <Gold.PLP.Chemscore.CHOScore>
0.0000

> <Gold.PLP.Chemscore.Metal>
0.0000

> <Gold.Chemscore.Hbonds>
donor molecule, donor type, donor heavy atom, donor atom, acceptor molecule, acceptor atom, score
      L1  H    10    23       P1  7881  0.75

> <Gold.PLP.Chemscore.Internal.Correction>
   9.000000E+99

#       Name:                CT1002167954
#       Creating user name   hitesit
#       Creation time:       Sun Apr 16 22:50:57 2023


#       File generated by GOLD software.
#

@<TRIPOS>MOLECULE
CT1002167954|ligand_prepared|mol2|1|dock7
    29    30     1
SMALL
NO_CHARGES


@<TRIPOS>ATOM
      1 C1          -5.3010 -16.2477  19.2100 C.3            1 RES1               0.0000
      2 C2          -5.3400 -17.7433  18.8353 C.ar           1 RES1               0.0000
      3 C3          -3.8262 -15.8671  19.3010 C.2            1 RES1               0.0000
      4 C4          -6.0666 -15.5135  18.1147 C.2            1 RES1               0.0000
      5 C5          -5.9760 -15.9249  20.5633 C.3            1 RES1               0.0000
      6 C6          -6.0219 -18.6564  19.6341 C.ar           1 RES1               0.0000
      7 C7          -4.7022 -18.2237  17.6946 C.ar           1 RES1               0.0000
      8 N8          -3.3055 -15.1108  18.2927 N.am           1 RES1               0.0000
      9 O9          -3.1212 -16.2579  20.2232 O.2            1 RES1               0.0000
     10 N10         -5.3680 -14.6517  17.3104 N.am           1 RES1               0.0000
     11 O11         -7.2651 -15.6861  17.9304 O.2            1 RES1               0.0000
     12 C12         -5.9049 -14.4557  20.9490 C.3            1 RES1               0.0000
     13 C13         -6.0671 -20.0005  19.3030 C.ar           1 RES1               0.0000
     14 C14         -4.7485 -19.5683  17.3655 C.ar           1 RES1               0.0000
     15 C15         -4.0163 -14.4402  17.3300 C.2            1 RES1               0.0000
     16 C16         -5.4310 -20.4573  18.1684 C.ar           1 RES1               0.0000
     17 O17         -3.4531 -13.6901  16.5380 O.2            1 RES1               0.0000
     18 H18         -7.0297 -16.2261  20.5132 H              1 RES1               0.0000
     19 H19         -5.4943 -16.5198  21.3491 H              1 RES1               0.0000
     20 H20         -6.5264 -18.3158  20.5321 H              1 RES1               0.0000
     21 H21         -4.1584 -17.5427  17.0487 H              1 RES1               0.0000
     22 H22         -2.2940 -15.0369  18.2505 H              1 RES1               0.0000
     23 H23         -5.9055 -14.1182  16.6344 H              1 RES1               0.0000
     24 H24         -6.3930 -14.2840  21.9060 H              1 RES1               0.0000
     25 H25         -4.8706 -14.1285  21.0326 H              1 RES1               0.0000
     26 H26         -6.3969 -13.8365  20.2017 H              1 RES1               0.0000
     27 H27         -6.6044 -20.6963  19.9390 H              1 RES1               0.0000
     28 H28         -4.2459 -19.9235  16.4720 H              1 RES1               0.0000
     29 H29         -5.4669 -21.5102  17.9091 H              1 RES1               0.0000
@<TRIPOS>BOND
    1    1    2 1     
    2    1    3 1     
    3    1    4 1     
    4    1    5 1     
    5    2    6 ar    
    6    2    7 ar    
    7    3    8 1     
    8    3    9 2     
    9    4   10 1     
   10    4   11 2     
   11    5   12 1     
   12    5   18 1     
   13    5   19 1     
   14    6   13 ar    
   15    6   20 1     
   16    7   14 ar    
   17    7   21 1     
   18    8   15 1     
   19    8   22 1     
   20   10   15 1     
   21   10   23 1     
   22   12   24 1     
   23   12   25 1     
   24   12   26 1     
   25   13   16 ar    
   26   13   27 1     
   27   14   16 ar    
   28   14   28 1     
   29   15   17 2     
   30   16   29 1     
@<TRIPOS>SUBSTRUCTURE
      1 RES1           1
@<TRIPOS>SET
DONOR_HYDROGENS      STATIC     ATOMS    <user>   **** ""
2 22 23
ATOM$RED        STATIC     ATOMS    COLORGROUP SYSTEM
2 22 23
@<TRIPOS>COMMENT
> <Gold.Version>
2022.3.0

> <Gold.Id.Protein>
unknown|3mvj_clean|pdb

> <Gold.Protein.RotatedTorsions>
[ 1772 1742 1743 1744 ] final -149.14 input   69.76 | X-H torsion
[ 1801 1791 1792 1793 ] final   96.82 input  -10.55 | X-H torsion
[ 1839 1818 1819 1820 ] final  129.91 input   43.70 | X-H torsion
[ 2083 2067 2068 2069 ] final  -42.03 input   63.04 | X-H torsion
[ 2134 2117 2118 2119 ] final   82.98 input   55.90 | X-H torsion
[ 5632 5617 5618 5619 ] final  170.98 input   93.34 | X-H torsion
[ 7884 7874 7875 7876 ] final -138.35 input   68.03 | X-H torsion
[ 7924 7916 7917 7918 ] final   79.50 input   66.66 | X-H torsion
[ 8483 8469 8467 8464 ] final   70.50 input   59.99 | X-H torsion
[ 15475 15466 15465 15463 ] final -146.40 input   60.00 | X-H torsion
[ 7991 7973 7974 7975 ] final -109.36 input   84.71 | X-H torsion
[ 8477 8463 8464 8465 ] final  -61.34 input   59.21 | X-H torsion
[ 8522 8507 8508 8509 ] final   20.96 input -104.23 | X-H torsion
[ 2822 2803 2804 2805 ] final  -79.37 input  103.27 | X-H torsion
[ 2184 2168 2169 2170 ] final  170.05 input  106.62 | X-H torsion
[ 2724 2714 2715 2716 ] final -168.52 input   74.66 | X-H torsion
[ 2767 2750 2751 2752 ] final -170.54 input   68.39 | X-H torsion
[ 5506 5481 5482 5483 ] final   56.43 input   57.83 | X-H torsion
[ 5596 5586 5587 5588 ] final  -29.92 input -104.43 | X-H torsion
[ 5454 5428 5429 5430 ] final  -87.57 input  113.20 | X-H torsion
[ 5462 5439 5438 5436 ] final  173.80 input   59.99 | X-H torsion
[ 5575 5565 5566 5567 ] final -137.62 input  101.53 | X-H torsion
[ 5392 5377 5378 5379 ] final  138.70 input  130.34 | X-H torsion
[ 8046 8030 8031 8032 ] final   84.02 input   72.86 | X-H torsion
[ 2684 2665 2666 2667 ] final  -28.42 input   26.41 | X-H torsion
[ 5342 5324 5325 5326 ] final -142.92 input   62.58 | X-H torsion
[ 4530 4515 4516 4517 ] final -138.55 input  130.34 | X-H torsion
[ 4589 4567 4568 4569 ] final  -78.09 input  104.80 | X-H torsion
[ 5299 5274 5275 5276 ] final  162.42 input   71.10 | X-H torsion
[ 8569 8549 8550 8551 ] final   53.54 input   74.91 | X-H torsion
[ 1864 1854 1855 1856 ] final -146.60 input   57.50 | X-H torsion
[ 15411 15403 15404 15405 ] final   24.66 input  102.24 | X-H torsion
[ 2884 2867 2868 2869 ] final   56.96 input   60.34 | X-H torsion
[ 16459 1745 1744 1743 ] final  131.60 input    0.00 | X-H torsion
[ 16462 1794 1793 1792 ] final   65.47 input   -0.00 | X-H torsion
[ 16466 2070 2069 2068 ] final -100.47 input    0.00 | X-H torsion
[ 16474 7834 7833 7832 ] final  130.20 input    0.00 | X-H torsion
[ 16477 7877 7876 7875 ] final  -51.17 input    0.00 | X-H torsion
[ 16486 7919 7918 7917 ] final  -19.57 input    0.00 | X-H torsion
[ 16490 8466 8465 8464 ] final  128.98 input    0.00 | X-H torsion
[ 16495 2717 2716 2715 ] final -124.38 input    0.00 | X-H torsion
[ 16498 5484 5483 5482 ] final   44.43 input    0.00 | X-H torsion
[ 16500 2120 2119 2118 ] final  -14.75 input    0.00 | X-H torsion
[ 16505 2753 2752 2751 ] final  -72.44 input    0.00 | X-H torsion
[ 16507 5380 5379 5378 ] final -128.64 input    0.00 | X-H torsion
[ 16510 1701 1700 1699 ] final  -25.97 input   -0.00 | X-H torsion
[ 16513 5589 5588 5587 ] final -179.38 input    0.00 | X-H torsion
[ 16515 2668 2667 2666 ] final  118.65 input    0.00 | X-H torsion
[ 16517 5327 5326 5325 ] final  103.11 input   -0.00 | X-H torsion
[ 16520 5431 5430 5429 ] final  -34.70 input    0.00 | X-H torsion
[ 16525 5532 5531 5530 ] final -164.07 input   -0.00 | X-H torsion
[ 16530 8033 8032 8031 ] final  -72.63 input    0.00 | X-H torsion
[ 16534 8371 8370 8369 ] final  -62.70 input    0.00 | X-H torsion
[ 16536 4570 4569 4568 ] final  142.63 input    0.00 | X-H torsion
[ 16539 4518 4517 4516 ] final -131.66 input    0.00 | X-H torsion
[ 16542 5228 5227 5226 ] final   28.64 input    0.00 | X-H torsion
[ 16544 5277 5276 5275 ] final -131.72 input    0.00 | X-H torsion
[ 16548 8418 8417 8416 ] final  176.49 input    0.00 | X-H torsion
[ 16551 2006 2005 2004 ] final   95.36 input    0.00 | X-H torsion
[ 16556 1821 1820 1819 ] final  113.08 input    0.00 | X-H torsion

> <Gold.Protein.ActiveResidues>
 THR48   LEU49   GLY50   THR51   GLY52   ARG56   VAL57   MET58   LEU59   TYR69  
 ALA70   MET71   LYS72   ILE73   GLU91   LEU95   VAL104  LYS105  LEU106  MET118 
 VAL119  MET120  GLU121  TYR122  VAL123  PRO124  GLY125  GLY126  GLU127  GLU170 
 ASN171  LEU172  LEU173  ILE174  ASP175  GLN181  VAL182  THR183  ASP184  PHE185 
 ASN326  PHE327  ASP328  TYR330 

> <Gold.Protein.RotatedAtoms>
    4.0024  -14.5300   19.8287 H   0  0  0  0  0  0  0  0  0  0  0  0  # atno 1772 bound_to 1742
    0.6431  -14.8099   20.5756 H   0  0  0  0  0  0  0  0  0  0  0  0  # atno 1801 bound_to 1791
   -0.1869  -13.6359   24.4121 H   0  0  0  0  0  0  0  0  0  0  0  0  # atno 1839 bound_to 1818
   -2.7980  -15.3183   26.4680 H   0  0  0  0  0  0  0  0  0  0  0  0  # atno 1864 bound_to 1854
    1.2719  -18.6684   23.1248 H   0  0  0  0  0  0  0  0  0  0  0  0  # atno 2083 bound_to 2067
    2.5983  -20.2023   20.2475 H   0  0  0  0  0  0  0  0  0  0  0  0  # atno 2134 bound_to 2117
    4.1943  -17.3887   17.3661 H   0  0  0  0  0  0  0  0  0  0  0  0  # atno 2184 bound_to 2168
    5.0914  -20.9219   11.8087 H   0  0  0  0  0  0  0  0  0  0  0  0  # atno 2684 bound_to 2665
    2.2775  -20.9497   13.1516 H   0  0  0  0  0  0  0  0  0  0  0  0  # atno 2724 bound_to 2714
    2.2190  -22.4192   16.2108 H   0  0  0  0  0  0  0  0  0  0  0  0  # atno 2767 bound_to 2750
    0.9719  -22.9348   19.5699 H   0  0  0  0  0  0  0  0  0  0  0  0  # atno 2822 bound_to 2803
    0.1625  -22.5015   23.2810 H   0  0  0  0  0  0  0  0  0  0  0  0  # atno 2884 bound_to 2867
   -9.1819  -21.7944    9.9804 H   0  0  0  0  0  0  0  0  0  0  0  0  # atno 4530 bound_to 4515
   -7.1483  -24.7330   10.3936 H   0  0  0  0  0  0  0  0  0  0  0  0  # atno 4589 bound_to 4567
    0.1120  -27.7247   17.6510 H   0  0  0  0  0  0  0  0  0  0  0  0  # atno 5299 bound_to 5274
   -0.6737  -25.8449   14.9394 H   0  0  0  0  0  0  0  0  0  0  0  0  # atno 5342 bound_to 5324
   -2.1613  -24.5497   10.8775 H   0  0  0  0  0  0  0  0  0  0  0  0  # atno 5392 bound_to 5377
   -0.3627  -21.4683   10.7996 H   0  0  0  0  0  0  0  0  0  0  0  0  # atno 5454 bound_to 5428
    4.2531  -13.4870   10.9296 H   0  0  0  0  0  0  0  0  0  0  0  0  # atno 5462 bound_to 5439
   -0.6979  -17.5025   11.2727 H   0  0  0  0  0  0  0  0  0  0  0  0  # atno 5506 bound_to 5481
   -0.1537  -12.2374    8.1496 H   0  0  0  0  0  0  0  0  0  0  0  0  # atno 5575 bound_to 5565
   -2.7557  -11.7365   10.4801 H   0  0  0  0  0  0  0  0  0  0  0  0  # atno 5596 bound_to 5586
   -3.9201  -10.7984   13.9503 H   0  0  0  0  0  0  0  0  0  0  0  0  # atno 5632 bound_to 5617
   -9.5510  -12.5690   18.1217 H   0  0  0  0  0  0  0  0  0  0  0  0  # atno 7884 bound_to 7874
  -10.3608  -12.7150   15.3563 H   0  0  0  0  0  0  0  0  0  0  0  0  # atno 7924 bound_to 7916
   -8.7889  -13.5297   12.8231 H   0  0  0  0  0  0  0  0  0  0  0  0  # atno 7991 bound_to 7973
   -5.8805  -12.0343   10.1860 H   0  0  0  0  0  0  0  0  0  0  0  0  # atno 8046 bound_to 8030
  -10.7869  -19.2646   14.1491 H   0  0  0  0  0  0  0  0  0  0  0  0  # atno 8477 bound_to 8463
   -8.2033  -17.6926   16.8850 H   0  0  0  0  0  0  0  0  0  0  0  0  # atno 8483 bound_to 8469
  -10.0274  -20.6060   16.9506 H   0  0  0  0  0  0  0  0  0  0  0  0  # atno 8522 bound_to 8507
  -10.0283  -22.9589   19.5560 H   0  0  0  0  0  0  0  0  0  0  0  0  # atno 8569 bound_to 8549
    1.6831   -8.8854   17.8561 H   0  0  0  0  0  0  0  0  0  0  0  0  # atno 15411 bound_to 15403
   -1.9562   -9.3863   22.1537 H   0  0  0  0  0  0  0  0  0  0  0  0  # atno 15475 bound_to 15466
    2.7653  -15.3791   20.7294 LP  0  0  0  0  0  0  0  0  0  0  0  0  # atno 16458 bound_to 1742
   -1.1407  -13.4866   19.6030 LP  0  0  0  0  0  0  0  0  0  0  0  0  # atno 16459 bound_to 1745
   -0.0550  -12.2673   19.0246 LP  0  0  0  0  0  0  0  0  0  0  0  0  # atno 16460 bound_to 1745
    1.4999  -13.5901   21.4939 LP  0  0  0  0  0  0  0  0  0  0  0  0  # atno 16461 bound_to 1791
    1.2142  -15.8536   23.3085 LP  0  0  0  0  0  0  0  0  0  0  0  0  # atno 16462 bound_to 1794
   -0.2565  -16.7103   23.6299 LP  0  0  0  0  0  0  0  0  0  0  0  0  # atno 16463 bound_to 1794
   -1.6701  -14.3785   23.8564 LP  0  0  0  0  0  0  0  0  0  0  0  0  # atno 16464 bound_to 1818
   -0.4356  -18.3389   22.9048 LP  0  0  0  0  0  0  0  0  0  0  0  0  # atno 16465 bound_to 2067
    1.9896  -16.5367   20.0880 LP  0  0  0  0  0  0  0  0  0  0  0  0  # atno 16466 bound_to 2070
    2.4902  -16.9053   21.7046 LP  0  0  0  0  0  0  0  0  0  0  0  0  # atno 16467 bound_to 2070
    1.9451  -18.5864   20.0866 LP  0  0  0  0  0  0  0  0  0  0  0  0  # atno 16468 bound_to 2117
   -4.3292   -9.4717   12.8824 LP  0  0  0  0  0  0  0  0  0  0  0  0  # atno 16469 bound_to 5617
   -7.9195  -13.7266   18.4131 LP  0  0  0  0  0  0  0  0  0  0  0  0  # atno 16474 bound_to 7834
   -7.2195  -12.3804   17.5778 LP  0  0  0  0  0  0  0  0  0  0  0  0  # atno 16475 bound_to 7834
  -10.9021  -12.4906   17.0216 LP  0  0  0  0  0  0  0  0  0  0  0  0  # atno 16476 bound_to 7874
   -9.7006  -16.5702   15.4980 LP  0  0  0  0  0  0  0  0  0  0  0  0  # atno 16477 bound_to 7877
  -11.1093  -16.0628   14.6274 LP  0  0  0  0  0  0  0  0  0  0  0  0  # atno 16478 bound_to 7877
  -10.0152  -14.4234   15.4665 LP  0  0  0  0  0  0  0  0  0  0  0  0  # atno 16479 bound_to 7916
   -8.3828  -17.3276   15.3092 LP  0  0  0  0  0  0  0  0  0  0  0  0  # atno 16480 bound_to 8469
   -6.8910  -17.3940   15.9700 LP  0  0  0  0  0  0  0  0  0  0  0  0  # atno 16481 bound_to 8469
   -1.9828  -10.9306   21.6418 LP  0  0  0  0  0  0  0  0  0  0  0  0  # atno 16484 bound_to 15466
   -1.2692   -9.7778   20.7316 LP  0  0  0  0  0  0  0  0  0  0  0  0  # atno 16485 bound_to 15466
   -9.3369  -11.3682   13.1390 LP  0  0  0  0  0  0  0  0  0  0  0  0  # atno 16486 bound_to 7919
   -7.7307  -11.8454   12.7004 LP  0  0  0  0  0  0  0  0  0  0  0  0  # atno 16487 bound_to 7919
   -8.7648  -15.0318   11.9357 LP  0  0  0  0  0  0  0  0  0  0  0  0  # atno 16488 bound_to 7973
   -9.3976  -18.2226   13.9242 LP  0  0  0  0  0  0  0  0  0  0  0  0  # atno 16489 bound_to 8463
  -11.6750  -19.1516   17.2450 LP  0  0  0  0  0  0  0  0  0  0  0  0  # atno 16490 bound_to 8466
  -10.6679  -17.8826   16.6322 LP  0  0  0  0  0  0  0  0  0  0  0  0  # atno 16491 bound_to 8466
   -8.3922  -20.2343   17.4792 LP  0  0  0  0  0  0  0  0  0  0  0  0  # atno 16492 bound_to 8507
   -0.3635  -23.2948   16.4092 LP  0  0  0  0  0  0  0  0  0  0  0  0  # atno 16495 bound_to 2717
    0.4654  -23.5909   14.9175 LP  0  0  0  0  0  0  0  0  0  0  0  0  # atno 16496 bound_to 2717
   -0.3649  -23.9027   18.9783 LP  0  0  0  0  0  0  0  0  0  0  0  0  # atno 16497 bound_to 2803
   -0.9481  -15.1671   11.6436 LP  0  0  0  0  0  0  0  0  0  0  0  0  # atno 16498 bound_to 5484
   -1.2807  -13.7037   10.7789 LP  0  0  0  0  0  0  0  0  0  0  0  0  # atno 16499 bound_to 5484
    3.4772  -20.8514   17.8890 LP  0  0  0  0  0  0  0  0  0  0  0  0  # atno 16500 bound_to 2120
    3.7352  -20.1088   16.3457 LP  0  0  0  0  0  0  0  0  0  0  0  0  # atno 16501 bound_to 2120
    5.1994  -18.6225   18.0848 LP  0  0  0  0  0  0  0  0  0  0  0  0  # atno 16502 bound_to 2168
    1.8132  -22.5541   13.6658 LP  0  0  0  0  0  0  0  0  0  0  0  0  # atno 16503 bound_to 2714
    1.7295  -21.3041   17.4687 LP  0  0  0  0  0  0  0  0  0  0  0  0  # atno 16504 bound_to 2750
    2.6983  -22.4775   20.6718 LP  0  0  0  0  0  0  0  0  0  0  0  0  # atno 16505 bound_to 2753
    1.6359  -21.1838   20.2274 LP  0  0  0  0  0  0  0  0  0  0  0  0  # atno 16506 bound_to 2753
   -1.9452  -20.0263   10.9518 LP  0  0  0  0  0  0  0  0  0  0  0  0  # atno 16507 bound_to 5380
   -2.0781  -21.3887   12.0131 LP  0  0  0  0  0  0  0  0  0  0  0  0  # atno 16508 bound_to 5380
   -0.3832  -18.4458    9.8329 LP  0  0  0  0  0  0  0  0  0  0  0  0  # atno 16509 bound_to 5481
    5.0838  -12.4797   20.8203 LP  0  0  0  0  0  0  0  0  0  0  0  0  # atno 16510 bound_to 1701
    4.0318  -12.4946   19.4444 LP  0  0  0  0  0  0  0  0  0  0  0  0  # atno 16511 bound_to 1701
   -1.3705  -10.6709   10.5465 LP  0  0  0  0  0  0  0  0  0  0  0  0  # atno 16512 bound_to 5586
   -5.8496  -11.0354   11.5739 LP  0  0  0  0  0  0  0  0  0  0  0  0  # atno 16513 bound_to 5589
   -4.4427  -11.3071   10.6009 LP  0  0  0  0  0  0  0  0  0  0  0  0  # atno 16514 bound_to 5589
    3.9525  -19.8551   14.1351 LP  0  0  0  0  0  0  0  0  0  0  0  0  # atno 16515 bound_to 2668
    4.8117  -21.3154   14.4947 LP  0  0  0  0  0  0  0  0  0  0  0  0  # atno 16516 bound_to 2668
    1.0935  -23.9050   12.0348 LP  0  0  0  0  0  0  0  0  0  0  0  0  # atno 16517 bound_to 5327
    0.3944  -22.5988   12.9322 LP  0  0  0  0  0  0  0  0  0  0  0  0  # atno 16518 bound_to 5327
    0.9916  -21.4566    9.6963 LP  0  0  0  0  0  0  0  0  0  0  0  0  # atno 16519 bound_to 5428
    0.4045  -19.4250    8.0272 LP  0  0  0  0  0  0  0  0  0  0  0  0  # atno 16520 bound_to 5431
   -1.2149  -18.8115    8.0642 LP  0  0  0  0  0  0  0  0  0  0  0  0  # atno 16521 bound_to 5431
    3.9212  -13.7359   12.5029 LP  0  0  0  0  0  0  0  0  0  0  0  0  # atno 16522 bound_to 5439
    2.7526  -13.2064   11.4926 LP  0  0  0  0  0  0  0  0  0  0  0  0  # atno 16523 bound_to 5439
    0.3330  -10.5846   10.0291 LP  0  0  0  0  0  0  0  0  0  0  0  0  # atno 16525 bound_to 5532
    1.7884  -11.5154    9.9047 LP  0  0  0  0  0  0  0  0  0  0  0  0  # atno 16526 bound_to 5532
   -1.4467  -12.9034    9.1252 LP  0  0  0  0  0  0  0  0  0  0  0  0  # atno 16527 bound_to 5565
   -1.0385  -23.8107   11.9948 LP  0  0  0  0  0  0  0  0  0  0  0  0  # atno 16528 bound_to 5377
   -6.9765  -13.3716    9.9132 LP  0  0  0  0  0  0  0  0  0  0  0  0  # atno 16529 bound_to 8030
   -3.8461  -11.6083    7.4839 LP  0  0  0  0  0  0  0  0  0  0  0  0  # atno 16530 bound_to 8033
   -3.5871  -13.1284    8.2727 LP  0  0  0  0  0  0  0  0  0  0  0  0  # atno 16531 bound_to 8033
    5.3901  -22.5352   11.2012 LP  0  0  0  0  0  0  0  0  0  0  0  0  # atno 16532 bound_to 2665
    0.0831  -24.2960   14.6838 LP  0  0  0  0  0  0  0  0  0  0  0  0  # atno 16533 bound_to 5324
   -8.4346  -16.7745   11.8485 LP  0  0  0  0  0  0  0  0  0  0  0  0  # atno 16534 bound_to 8371
  -10.0745  -16.2294   11.9650 LP  0  0  0  0  0  0  0  0  0  0  0  0  # atno 16535 bound_to 8371
   -4.0089  -25.6039   12.3338 LP  0  0  0  0  0  0  0  0  0  0  0  0  # atno 16536 bound_to 4570
   -3.6712  -25.1620   10.6935 LP  0  0  0  0  0  0  0  0  0  0  0  0  # atno 16537 bound_to 4570
   -9.5375  -23.0634   11.1229 LP  0  0  0  0  0  0  0  0  0  0  0  0  # atno 16538 bound_to 4515
   -7.7109  -25.9062   11.8606 LP  0  0  0  0  0  0  0  0  0  0  0  0  # atno 16539 bound_to 4518
   -9.0836  -25.0196   11.2864 LP  0  0  0  0  0  0  0  0  0  0  0  0  # atno 16540 bound_to 4518
   -5.9797  -24.2291    9.1829 LP  0  0  0  0  0  0  0  0  0  0  0  0  # atno 16541 bound_to 4567
   -0.5988  -25.2795   19.2727 LP  0  0  0  0  0  0  0  0  0  0  0  0  # atno 16542 bound_to 5228
   -0.5334  -24.8308   17.6011 LP  0  0  0  0  0  0  0  0  0  0  0  0  # atno 16543 bound_to 5228
   -0.6545  -27.1441   13.0596 LP  0  0  0  0  0  0  0  0  0  0  0  0  # atno 16544 bound_to 5277
   -1.2195  -27.9352   14.4931 LP  0  0  0  0  0  0  0  0  0  0  0  0  # atno 16545 bound_to 5277
   -9.4597  -21.2664   13.4802 LP  0  0  0  0  0  0  0  0  0  0  0  0  # atno 16548 bound_to 8418
  -10.5021  -21.0719   12.1107 LP  0  0  0  0  0  0  0  0  0  0  0  0  # atno 16549 bound_to 8418
   -1.3223  -27.2754   16.7594 LP  0  0  0  0  0  0  0  0  0  0  0  0  # atno 16550 bound_to 5274
   -0.4075  -21.2137   23.2193 LP  0  0  0  0  0  0  0  0  0  0  0  0  # atno 16551 bound_to 2006
    1.3134  -21.2144   23.4159 LP  0  0  0  0  0  0  0  0  0  0  0  0  # atno 16552 bound_to 2006
  -11.0539  -21.7664   18.8039 LP  0  0  0  0  0  0  0  0  0  0  0  0  # atno 16555 bound_to 8549
   -3.9436  -13.8741   26.0280 LP  0  0  0  0  0  0  0  0  0  0  0  0  # atno 16556 bound_to 1821
   -2.7330  -13.0823   26.9806 LP  0  0  0  0  0  0  0  0  0  0  0  0  # atno 16557 bound_to 1821
   -2.0443  -16.7309   27.1869 LP  0  0  0  0  0  0  0  0  0  0  0  0  # atno 16558 bound_to 1854

> <Gold.Score>
     Fitness  S(hb_ext) S(vdw_ext)  S(hb_int)    S(int)      intcor
     30.96       0.00      23.12       0.00      -0.84      -0.76

> <Gold.Goldscore.Fitness>
30.9589

> <Gold.Goldscore.Internal.Vdw>
-1.2304

> <Gold.Goldscore.Internal.Torsion>
-0.3719

> <Gold.Goldscore.External.Vdw>
23.1245

> <Gold.Goldscore.Internal.HBond>
0.0000

> <Gold.Goldscore.External.HBond>
0.0000

> <Gold.Goldscore.Internal.Correction>
-0.7650

> <Gold.Goldscore.Internal.Vdw.Weighted>
-1.2304

> <Gold.Goldscore.Internal.Torsion.Weighted>
-0.3719

> <Gold.Goldscore.External.Vdw.Weighted>
31.7962

> <Gold.Goldscore.Internal.HBond.Weighted>
0.0000

> <Gold.Goldscore.External.HBond.Weighted>
0.0000

> <Gold.Goldscore.Internal.Correction.Weighted>
-0.7650

> <Gold.Rescore>
     Score     S(PLP)   S(hbond)     S(cho)   S(metal)  DE(clash)   DE(tors)     intcor
     34.15     -34.19       0.00       0.00       0.00       0.00       0.02       ----

> <Gold.PLP.Fitness>
34.1491

> <Gold.PLP.PLP>
-34.1852

> <Gold.PLP.part.hbond>
-1.7445

> <Gold.PLP.part.metal>
0.0000

> <Gold.PLP.part.buried>
-2.5276

> <Gold.PLP.part.nonpolar>
-30.6220

> <Gold.PLP.part.repulsive>
0.4988

> <Gold.PLP.ligand.clash>
0.0000

> <Gold.PLP.ligand.torsion>
0.0180

> <Gold.PLP.Chemscore.Hbond>
0.0000

> <Gold.PLP.Chemscore.CHOScore>
0.0000

> <Gold.PLP.Chemscore.Metal>
0.0000

> <Gold.Chemscore.Hbonds>
donor molecule, donor type, donor heavy atom, donor atom, acceptor molecule, acceptor atom, score
      P1  H  8469  8483       L1    11  0.02

> <Gold.PLP.Chemscore.Internal.Correction>
   9.000000E+99

#       Name:                CT1002167954
#       Creating user name   hitesit
#       Creation time:       Sun Apr 16 22:50:51 2023


#       File generated by GOLD software.
#

@<TRIPOS>MOLECULE
CT1002167954|ligand_prepared|mol2|1|dock3
    29    30     1
SMALL
NO_CHARGES


@<TRIPOS>ATOM
      1 C1          -5.4560 -16.8753  18.8575 C.3            1 RES1               0.0000
      2 C2          -4.7095 -17.7442  17.8248 C.ar           1 RES1               0.0000
      3 C3          -4.7204 -17.0570  20.1819 C.2            1 RES1               0.0000
      4 C4          -5.4236 -15.4495  18.3183 C.2            1 RES1               0.0000
      5 C5          -6.9359 -17.2766  19.0585 C.3            1 RES1               0.0000
      6 C6          -4.9153 -19.1197  17.7750 C.ar           1 RES1               0.0000
      7 C7          -3.8155 -17.1854  16.9153 C.ar           1 RES1               0.0000
      8 N8          -3.9462 -16.0239  20.6216 N.am           1 RES1               0.0000
      9 O9          -4.7871 -18.1056  20.8113 O.2            1 RES1               0.0000
     10 N10         -4.7157 -14.5121  19.0240 N.am           1 RES1               0.0000
     11 O11         -5.9909 -15.1330  17.2799 O.2            1 RES1               0.0000
     12 C12         -7.6967 -16.3601  20.0036 C.3            1 RES1               0.0000
     13 C13         -4.2538 -19.9076  16.8476 C.ar           1 RES1               0.0000
     14 C14         -3.1547 -17.9752  15.9890 C.ar           1 RES1               0.0000
     15 C15         -3.9502 -14.7415  20.1347 C.2            1 RES1               0.0000
     16 C16         -3.3735 -19.3359  15.9538 C.ar           1 RES1               0.0000
     17 O17         -3.2982 -13.8570  20.6822 O.2            1 RES1               0.0000
     18 H18         -7.4381 -17.2737  18.0832 H              1 RES1               0.0000
     19 H19         -6.9739 -18.2999  19.4521 H              1 RES1               0.0000
     20 H20         -5.6025 -19.5877  18.4720 H              1 RES1               0.0000
     21 H21         -3.6270 -16.1172  16.9253 H              1 RES1               0.0000
     22 H22         -3.3049 -16.2233  21.3827 H              1 RES1               0.0000
     23 H23         -4.7641 -13.5546  18.6905 H              1 RES1               0.0000
     24 H24         -8.7293 -16.6863  20.1092 H              1 RES1               0.0000
     25 H25         -7.2392 -16.3583  20.9908 H              1 RES1               0.0000
     26 H26         -7.7007 -15.3382  19.6300 H              1 RES1               0.0000
     27 H27         -4.4284 -20.9782  16.8250 H              1 RES1               0.0000
     28 H28         -2.4623 -17.5211  15.2878 H              1 RES1               0.0000
     29 H29         -2.8557 -19.9533  15.2273 H              1 RES1               0.0000
@<TRIPOS>BOND
    1    1    2 1     
    2    1    3 1     
    3    1    4 1     
    4    1    5 1     
    5    2    6 ar    
    6    2    7 ar    
    7    3    8 1     
    8    3    9 2     
    9    4   10 1     
   10    4   11 2     
   11    5   12 1     
   12    5   18 1     
   13    5   19 1     
   14    6   13 ar    
   15    6   20 1     
   16    7   14 ar    
   17    7   21 1     
   18    8   15 1     
   19    8   22 1     
   20   10   15 1     
   21   10   23 1     
   22   12   24 1     
   23   12   25 1     
   24   12   26 1     
   25   13   16 ar    
   26   13   27 1     
   27   14   16 ar    
   28   14   28 1     
   29   15   17 2     
   30   16   29 1     
@<TRIPOS>SUBSTRUCTURE
      1 RES1           1
@<TRIPOS>SET
DONOR_HYDROGENS      STATIC     ATOMS    <user>   **** ""
2 22 23
ATOM$RED        STATIC     ATOMS    COLORGROUP SYSTEM
2 22 23
@<TRIPOS>COMMENT
> <Gold.Version>
2022.3.0

> <Gold.Id.Protein>
unknown|3mvj_clean|pdb

> <Gold.Protein.RotatedTorsions>
[ 1772 1742 1743 1744 ] final   39.96 input   69.76 | X-H torsion
[ 1801 1791 1792 1793 ] final -130.41 input  -10.55 | X-H torsion
[ 1839 1818 1819 1820 ] final  153.87 input   43.70 | X-H torsion
[ 2083 2067 2068 2069 ] final -109.10 input   63.04 | X-H torsion
[ 2134 2117 2118 2119 ] final  118.16 input   55.90 | X-H torsion
[ 5632 5617 5618 5619 ] final -177.06 input   93.34 | X-H torsion
[ 7884 7874 7875 7876 ] final   85.50 input   68.03 | X-H torsion
[ 7924 7916 7917 7918 ] final -101.38 input   66.66 | X-H torsion
[ 8483 8469 8467 8464 ] final -165.64 input   59.99 | X-H torsion
[ 15475 15466 15465 15463 ] final  138.93 input   60.00 | X-H torsion
[ 7991 7973 7974 7975 ] final  113.25 input   84.71 | X-H torsion
[ 8477 8463 8464 8465 ] final  -10.66 input   59.21 | X-H torsion
[ 8522 8507 8508 8509 ] final -121.14 input -104.23 | X-H torsion
[ 2822 2803 2804 2805 ] final   88.42 input  103.27 | X-H torsion
[ 2184 2168 2169 2170 ] final    5.82 input  106.62 | X-H torsion
[ 2724 2714 2715 2716 ] final  -21.94 input   74.66 | X-H torsion
[ 2767 2750 2751 2752 ] final  162.95 input   68.39 | X-H torsion
[ 5506 5481 5482 5483 ] final  165.36 input   57.83 | X-H torsion
[ 5596 5586 5587 5588 ] final  130.61 input -104.43 | X-H torsion
[ 5454 5428 5429 5430 ] final  -66.62 input  113.20 | X-H torsion
[ 5462 5439 5438 5436 ] final  -11.38 input   59.99 | X-H torsion
[ 5575 5565 5566 5567 ] final -128.88 input  101.53 | X-H torsion
[ 5392 5377 5378 5379 ] final -152.01 input  130.34 | X-H torsion
[ 8046 8030 8031 8032 ] final   32.34 input   72.86 | X-H torsion
[ 2684 2665 2666 2667 ] final   -1.47 input   26.41 | X-H torsion
[ 5342 5324 5325 5326 ] final    3.73 input   62.58 | X-H torsion
[ 4530 4515 4516 4517 ] final  -93.32 input  130.34 | X-H torsion
[ 4589 4567 4568 4569 ] final -149.81 input  104.80 | X-H torsion
[ 5299 5274 5275 5276 ] final  141.23 input   71.10 | X-H torsion
[ 8569 8549 8550 8551 ] final   81.78 input   74.91 | X-H torsion
[ 1864 1854 1855 1856 ] final -121.37 input   57.50 | X-H torsion
[ 15411 15403 15404 15405 ] final -118.02 input  102.24 | X-H torsion
[ 2884 2867 2868 2869 ] final -156.40 input   60.34 | X-H torsion
[ 16459 1745 1744 1743 ] final  -33.90 input    0.00 | X-H torsion
[ 16462 1794 1793 1792 ] final -166.59 input   -0.00 | X-H torsion
[ 16466 2070 2069 2068 ] final  111.95 input    0.00 | X-H torsion
[ 16474 7834 7833 7832 ] final   -3.36 input    0.00 | X-H torsion
[ 16477 7877 7876 7875 ] final   -0.58 input    0.00 | X-H torsion
[ 16486 7919 7918 7917 ] final   38.91 input    0.00 | X-H torsion
[ 16490 8466 8465 8464 ] final   58.60 input    0.00 | X-H torsion
[ 16495 2717 2716 2715 ] final  166.92 input    0.00 | X-H torsion
[ 16498 5484 5483 5482 ] final -157.54 input    0.00 | X-H torsion
[ 16500 2120 2119 2118 ] final  -28.37 input    0.00 | X-H torsion
[ 16505 2753 2752 2751 ] final  -76.05 input    0.00 | X-H torsion
[ 16507 5380 5379 5378 ] final   94.04 input    0.00 | X-H torsion
[ 16510 1701 1700 1699 ] final   92.55 input   -0.00 | X-H torsion
[ 16513 5589 5588 5587 ] final  -65.69 input    0.00 | X-H torsion
[ 16515 2668 2667 2666 ] final -123.39 input    0.00 | X-H torsion
[ 16517 5327 5326 5325 ] final -144.08 input   -0.00 | X-H torsion
[ 16520 5431 5430 5429 ] final  101.74 input    0.00 | X-H torsion
[ 16525 5532 5531 5530 ] final  -92.18 input   -0.00 | X-H torsion
[ 16530 8033 8032 8031 ] final  158.21 input    0.00 | X-H torsion
[ 16534 8371 8370 8369 ] final  -90.88 input    0.00 | X-H torsion
[ 16536 4570 4569 4568 ] final  128.70 input    0.00 | X-H torsion
[ 16539 4518 4517 4516 ] final   93.03 input    0.00 | X-H torsion
[ 16542 5228 5227 5226 ] final -168.20 input    0.00 | X-H torsion
[ 16544 5277 5276 5275 ] final  -13.63 input    0.00 | X-H torsion
[ 16548 8418 8417 8416 ] final -177.12 input    0.00 | X-H torsion
[ 16551 2006 2005 2004 ] final   71.81 input    0.00 | X-H torsion
[ 16556 1821 1820 1819 ] final -127.77 input    0.00 | X-H torsion

> <Gold.Protein.ActiveResidues>
 THR48   LEU49   GLY50   THR51   GLY52   ARG56   VAL57   MET58   LEU59   TYR69  
 ALA70   MET71   LYS72   ILE73   GLU91   LEU95   VAL104  LYS105  LEU106  MET118 
 VAL119  MET120  GLU121  TYR122  VAL123  PRO124  GLY125  GLY126  GLU127  GLU170 
 ASN171  LEU172  LEU173  ILE174  ASP175  GLN181  VAL182  THR183  ASP184  PHE185 
 ASN326  PHE327  ASP328  TYR330 

> <Gold.Protein.RotatedAtoms>
    2.7358  -15.4773   20.6295 H   0  0  0  0  0  0  0  0  0  0  0  0  # atno 1772 bound_to 1742
    1.1318  -13.3038   20.9690 H   0  0  0  0  0  0  0  0  0  0  0  0  # atno 1801 bound_to 1791
   -0.0620  -13.9368   24.2402 H   0  0  0  0  0  0  0  0  0  0  0  0  # atno 1839 bound_to 1818
   -2.5812  -15.1627   26.7557 H   0  0  0  0  0  0  0  0  0  0  0  0  # atno 1864 bound_to 1854
    0.5652  -19.3498   23.2395 H   0  0  0  0  0  0  0  0  0  0  0  0  # atno 2083 bound_to 2067
    2.7090  -19.9363   20.7016 H   0  0  0  0  0  0  0  0  0  0  0  0  # atno 2134 bound_to 2117
    5.3592  -18.4471   18.1220 H   0  0  0  0  0  0  0  0  0  0  0  0  # atno 2184 bound_to 2168
    5.2941  -21.1058   12.1192 H   0  0  0  0  0  0  0  0  0  0  0  0  # atno 2684 bound_to 2665
    2.2918  -22.5078   13.8133 H   0  0  0  0  0  0  0  0  0  0  0  0  # atno 2724 bound_to 2714
    2.5742  -22.2953   16.3695 H   0  0  0  0  0  0  0  0  0  0  0  0  # atno 2767 bound_to 2750
   -0.3150  -24.0613   19.0768 H   0  0  0  0  0  0  0  0  0  0  0  0  # atno 2822 bound_to 2803
    0.5630  -23.7566   22.2016 H   0  0  0  0  0  0  0  0  0  0  0  0  # atno 2884 bound_to 2867
   -9.3405  -22.3774    9.6797 H   0  0  0  0  0  0  0  0  0  0  0  0  # atno 4530 bound_to 4515
   -7.2911  -24.7594    9.3474 H   0  0  0  0  0  0  0  0  0  0  0  0  # atno 4589 bound_to 4567
    0.0980  -27.9666   17.4346 H   0  0  0  0  0  0  0  0  0  0  0  0  # atno 5299 bound_to 5274
    0.3387  -24.6220   14.4030 H   0  0  0  0  0  0  0  0  0  0  0  0  # atno 5342 bound_to 5324
   -1.2154  -24.8582   11.0256 H   0  0  0  0  0  0  0  0  0  0  0  0  # atno 5392 bound_to 5377
   -0.5102  -21.3849   10.5271 H   0  0  0  0  0  0  0  0  0  0  0  0  # atno 5454 bound_to 5428
    2.9757  -13.4416   12.2945 H   0  0  0  0  0  0  0  0  0  0  0  0  # atno 5462 bound_to 5439
   -1.1961  -18.5696   10.4321 H   0  0  0  0  0  0  0  0  0  0  0  0  # atno 5506 bound_to 5481
   -0.0954  -12.2046    8.2679 H   0  0  0  0  0  0  0  0  0  0  0  0  # atno 5575 bound_to 5565
   -1.5528  -10.4706   10.4249 H   0  0  0  0  0  0  0  0  0  0  0  0  # atno 5596 bound_to 5586
   -3.9530  -10.9034   13.8008 H   0  0  0  0  0  0  0  0  0  0  0  0  # atno 5632 bound_to 5617
  -11.0998  -12.6301   17.6263 H   0  0  0  0  0  0  0  0  0  0  0  0  # atno 7884 bound_to 7874
  -10.0250  -14.4435   15.4677 H   0  0  0  0  0  0  0  0  0  0  0  0  # atno 7924 bound_to 7916
   -8.4800  -15.1040   12.4975 H   0  0  0  0  0  0  0  0  0  0  0  0  # atno 7991 bound_to 7973
   -5.5488  -12.7128   10.0115 H   0  0  0  0  0  0  0  0  0  0  0  0  # atno 8046 bound_to 8030
  -10.7651  -18.6483   14.5980 H   0  0  0  0  0  0  0  0  0  0  0  0  # atno 8477 bound_to 8463
   -6.9062  -17.3826   15.9091 H   0  0  0  0  0  0  0  0  0  0  0  0  # atno 8483 bound_to 8469
   -8.4183  -20.8096   17.4958 H   0  0  0  0  0  0  0  0  0  0  0  0  # atno 8522 bound_to 8507
  -10.0262  -23.0657   19.1423 H   0  0  0  0  0  0  0  0  0  0  0  0  # atno 8569 bound_to 8549
    1.3695   -7.4545   17.0400 H   0  0  0  0  0  0  0  0  0  0  0  0  # atno 15411 bound_to 15403
   -2.1881  -10.4973   22.1844 H   0  0  0  0  0  0  0  0  0  0  0  0  # atno 15475 bound_to 15466
    3.9913  -14.4622   19.9543 LP  0  0  0  0  0  0  0  0  0  0  0  0  # atno 16458 bound_to 1742
   -0.0388  -12.4022   18.8533 LP  0  0  0  0  0  0  0  0  0  0  0  0  # atno 16459 bound_to 1745
   -1.1569  -13.3517   19.7743 LP  0  0  0  0  0  0  0  0  0  0  0  0  # atno 16460 bound_to 1745
    1.0277  -15.0454   21.1137 LP  0  0  0  0  0  0  0  0  0  0  0  0  # atno 16461 bound_to 1791
    0.1354  -16.4800   24.2392 LP  0  0  0  0  0  0  0  0  0  0  0  0  # atno 16462 bound_to 1794
    0.8223  -16.0839   22.6993 LP  0  0  0  0  0  0  0  0  0  0  0  0  # atno 16463 bound_to 1794
   -1.7914  -14.0862   24.0234 LP  0  0  0  0  0  0  0  0  0  0  0  0  # atno 16464 bound_to 1818
    0.2421  -17.6853   22.7948 LP  0  0  0  0  0  0  0  0  0  0  0  0  # atno 16465 bound_to 2067
    2.8853  -16.9448   21.4287 LP  0  0  0  0  0  0  0  0  0  0  0  0  # atno 16466 bound_to 2070
    1.5945  -16.4972   20.3639 LP  0  0  0  0  0  0  0  0  0  0  0  0  # atno 16467 bound_to 2070
    1.8381  -18.8437   19.6474 LP  0  0  0  0  0  0  0  0  0  0  0  0  # atno 16468 bound_to 2117
   -4.2975   -9.3705   13.0265 LP  0  0  0  0  0  0  0  0  0  0  0  0  # atno 16469 bound_to 5617
   -7.2368  -12.2973   18.2553 LP  0  0  0  0  0  0  0  0  0  0  0  0  # atno 16474 bound_to 7834
   -7.9021  -13.8097   17.7357 LP  0  0  0  0  0  0  0  0  0  0  0  0  # atno 16475 bound_to 7834
   -9.3710  -12.4302   17.5113 LP  0  0  0  0  0  0  0  0  0  0  0  0  # atno 16476 bound_to 7874
  -10.3389  -16.6287   15.8678 LP  0  0  0  0  0  0  0  0  0  0  0  0  # atno 16477 bound_to 7877
  -10.4711  -16.0043   14.2576 LP  0  0  0  0  0  0  0  0  0  0  0  0  # atno 16478 bound_to 7877
  -10.3442  -12.7299   15.3574 LP  0  0  0  0  0  0  0  0  0  0  0  0  # atno 16479 bound_to 7916
   -8.1471  -17.6942   16.9150 LP  0  0  0  0  0  0  0  0  0  0  0  0  # atno 16480 bound_to 8469
   -8.4328  -17.3396   15.3468 LP  0  0  0  0  0  0  0  0  0  0  0  0  # atno 16481 bound_to 8469
   -1.4176  -10.4889   20.7513 LP  0  0  0  0  0  0  0  0  0  0  0  0  # atno 16484 bound_to 15466
   -1.6008   -9.1006   21.5913 LP  0  0  0  0  0  0  0  0  0  0  0  0  # atno 16485 bound_to 15466
   -8.7909  -11.5888   13.7465 LP  0  0  0  0  0  0  0  0  0  0  0  0  # atno 16486 bound_to 7919
   -8.2767  -11.6248   12.0929 LP  0  0  0  0  0  0  0  0  0  0  0  0  # atno 16487 bound_to 7919
   -9.0694  -13.4794   12.2567 LP  0  0  0  0  0  0  0  0  0  0  0  0  # atno 16488 bound_to 7973
   -9.4187  -18.8175   13.4909 LP  0  0  0  0  0  0  0  0  0  0  0  0  # atno 16489 bound_to 8463
  -11.5999  -18.8897   16.2847 LP  0  0  0  0  0  0  0  0  0  0  0  0  # atno 16490 bound_to 8466
  -10.7430  -18.1444   17.5925 LP  0  0  0  0  0  0  0  0  0  0  0  0  # atno 16491 bound_to 8466
   -9.9088  -20.0424   16.9654 LP  0  0  0  0  0  0  0  0  0  0  0  0  # atno 16492 bound_to 8507
    0.3620  -23.9405   16.3002 LP  0  0  0  0  0  0  0  0  0  0  0  0  # atno 16495 bound_to 2717
   -0.2601  -22.9452   15.0265 LP  0  0  0  0  0  0  0  0  0  0  0  0  # atno 16496 bound_to 2717
    0.8684  -22.8230   19.4509 LP  0  0  0  0  0  0  0  0  0  0  0  0  # atno 16497 bound_to 2803
   -0.9525  -13.6853   10.8098 LP  0  0  0  0  0  0  0  0  0  0  0  0  # atno 16498 bound_to 5484
   -1.2763  -15.1855   11.6127 LP  0  0  0  0  0  0  0  0  0  0  0  0  # atno 16499 bound_to 5484
    3.6702  -20.9164   17.8627 LP  0  0  0  0  0  0  0  0  0  0  0  0  # atno 16500 bound_to 2120
    3.5422  -20.0437   16.3720 LP  0  0  0  0  0  0  0  0  0  0  0  0  # atno 16501 bound_to 2120
    4.0564  -17.5840   17.3431 LP  0  0  0  0  0  0  0  0  0  0  0  0  # atno 16502 bound_to 2168
    1.7992  -21.0312   13.0191 LP  0  0  0  0  0  0  0  0  0  0  0  0  # atno 16503 bound_to 2714
    1.3861  -21.4239   17.3153 LP  0  0  0  0  0  0  0  0  0  0  0  0  # atno 16504 bound_to 2750
    2.6644  -22.4889   20.7130 LP  0  0  0  0  0  0  0  0  0  0  0  0  # atno 16505 bound_to 2753
    1.6698  -21.1723   20.1862 LP  0  0  0  0  0  0  0  0  0  0  0  0  # atno 16506 bound_to 2753
   -1.6491  -20.9765   12.2215 LP  0  0  0  0  0  0  0  0  0  0  0  0  # atno 16507 bound_to 5380
   -2.3742  -20.4385   10.7434 LP  0  0  0  0  0  0  0  0  0  0  0  0  # atno 16508 bound_to 5380
    0.0991  -17.4127   10.6467 LP  0  0  0  0  0  0  0  0  0  0  0  0  # atno 16509 bound_to 5481
    4.8866  -12.7096   19.3627 LP  0  0  0  0  0  0  0  0  0  0  0  0  # atno 16510 bound_to 1701
    4.2290  -12.2647   20.9020 LP  0  0  0  0  0  0  0  0  0  0  0  0  # atno 16511 bound_to 1701
   -2.5411  -11.9028   10.6002 LP  0  0  0  0  0  0  0  0  0  0  0  0  # atno 16512 bound_to 5586
   -4.9101  -10.4833   10.6172 LP  0  0  0  0  0  0  0  0  0  0  0  0  # atno 16513 bound_to 5589
   -5.3821  -11.8591   11.5576 LP  0  0  0  0  0  0  0  0  0  0  0  0  # atno 16514 bound_to 5589
    4.1886  -20.9995   15.0504 LP  0  0  0  0  0  0  0  0  0  0  0  0  # atno 16515 bound_to 2668
    4.5755  -20.1710   13.5794 LP  0  0  0  0  0  0  0  0  0  0  0  0  # atno 16516 bound_to 2668
    0.5319  -22.5770   11.9840 LP  0  0  0  0  0  0  0  0  0  0  0  0  # atno 16517 bound_to 5327
    0.9560  -23.9268   12.9830 LP  0  0  0  0  0  0  0  0  0  0  0  0  # atno 16518 bound_to 5327
    1.1360  -21.5383    9.9631 LP  0  0  0  0  0  0  0  0  0  0  0  0  # atno 16519 bound_to 5428
   -1.1928  -19.4356    8.2159 LP  0  0  0  0  0  0  0  0  0  0  0  0  # atno 16520 bound_to 5431
    0.3824  -18.8009    7.8755 LP  0  0  0  0  0  0  0  0  0  0  0  0  # atno 16521 bound_to 5431
    3.4464  -13.2310   10.7513 LP  0  0  0  0  0  0  0  0  0  0  0  0  # atno 16522 bound_to 5439
    4.5142  -13.7570   11.8692 LP  0  0  0  0  0  0  0  0  0  0  0  0  # atno 16523 bound_to 5439
    0.6649  -11.2668   10.7060 LP  0  0  0  0  0  0  0  0  0  0  0  0  # atno 16525 bound_to 5532
    1.4565  -10.8332    9.2277 LP  0  0  0  0  0  0  0  0  0  0  0  0  # atno 16526 bound_to 5532
   -1.5029  -12.9351    9.0111 LP  0  0  0  0  0  0  0  0  0  0  0  0  # atno 16527 bound_to 5565
   -1.9615  -23.5097   11.8502 LP  0  0  0  0  0  0  0  0  0  0  0  0  # atno 16528 bound_to 5377
   -7.2978  -12.7145   10.0822 LP  0  0  0  0  0  0  0  0  0  0  0  0  # atno 16529 bound_to 8030
   -3.3964  -13.1050    7.5545 LP  0  0  0  0  0  0  0  0  0  0  0  0  # atno 16530 bound_to 8033
   -4.0368  -11.6317    8.2020 LP  0  0  0  0  0  0  0  0  0  0  0  0  # atno 16531 bound_to 8033
    5.1935  -22.3567   10.9000 LP  0  0  0  0  0  0  0  0  0  0  0  0  # atno 16532 bound_to 2665
   -0.9216  -25.5095   15.2161 LP  0  0  0  0  0  0  0  0  0  0  0  0  # atno 16533 bound_to 5324
   -8.5975  -17.0053   12.1616 LP  0  0  0  0  0  0  0  0  0  0  0  0  # atno 16534 bound_to 8371
   -9.9116  -15.9987   11.6519 LP  0  0  0  0  0  0  0  0  0  0  0  0  # atno 16535 bound_to 8371
   -4.1557  -25.4545   12.3169 LP  0  0  0  0  0  0  0  0  0  0  0  0  # atno 16536 bound_to 4570
   -3.5245  -25.3114   10.7103 LP  0  0  0  0  0  0  0  0  0  0  0  0  # atno 16537 bound_to 4570
   -9.3807  -22.4875   11.4199 LP  0  0  0  0  0  0  0  0  0  0  0  0  # atno 16538 bound_to 4515
   -8.9502  -25.5445   10.9120 LP  0  0  0  0  0  0  0  0  0  0  0  0  # atno 16539 bound_to 4518
   -7.8443  -25.3813   12.2350 LP  0  0  0  0  0  0  0  0  0  0  0  0  # atno 16540 bound_to 4518
   -5.8443  -24.2040   10.1742 LP  0  0  0  0  0  0  0  0  0  0  0  0  # atno 16541 bound_to 4567
   -0.2868  -24.8787   17.6363 LP  0  0  0  0  0  0  0  0  0  0  0  0  # atno 16542 bound_to 5228
   -0.8454  -25.2316   19.2374 LP  0  0  0  0  0  0  0  0  0  0  0  0  # atno 16543 bound_to 5228
   -0.3955  -28.0775   14.1856 LP  0  0  0  0  0  0  0  0  0  0  0  0  # atno 16544 bound_to 5277
   -1.4785  -27.0018   13.3670 LP  0  0  0  0  0  0  0  0  0  0  0  0  # atno 16545 bound_to 5277
   -9.5376  -21.2961   13.5285 LP  0  0  0  0  0  0  0  0  0  0  0  0  # atno 16548 bound_to 8418
  -10.4241  -21.0421   12.0624 LP  0  0  0  0  0  0  0  0  0  0  0  0  # atno 16549 bound_to 8418
   -1.3087  -27.0390   16.9709 LP  0  0  0  0  0  0  0  0  0  0  0  0  # atno 16550 bound_to 5274
   -0.3748  -21.2572   23.5686 LP  0  0  0  0  0  0  0  0  0  0  0  0  # atno 16551 bound_to 2006
    1.2807  -21.1709   23.0666 LP  0  0  0  0  0  0  0  0  0  0  0  0  # atno 16552 bound_to 2006
  -11.0560  -21.6607   19.2135 LP  0  0  0  0  0  0  0  0  0  0  0  0  # atno 16555 bound_to 8549
   -3.4011  -13.4983   27.3678 LP  0  0  0  0  0  0  0  0  0  0  0  0  # atno 16556 bound_to 1821
   -3.2755  -13.4581   25.6408 LP  0  0  0  0  0  0  0  0  0  0  0  0  # atno 16557 bound_to 1821
   -2.2509  -16.8792   26.9127 LP  0  0  0  0  0  0  0  0  0  0  0  0  # atno 16558 bound_to 1854

> <Gold.Score>
     Fitness  S(hb_ext) S(vdw_ext)  S(hb_int)    S(int)      intcor
     30.61       3.44      20.76       0.00      -1.38      -0.76

> <Gold.Goldscore.Fitness>
30.6097

> <Gold.Goldscore.Internal.Vdw>
-1.7553

> <Gold.Goldscore.Internal.Torsion>
-0.3904

> <Gold.Goldscore.External.Vdw>
20.7648

> <Gold.Goldscore.Internal.HBond>
0.0000

> <Gold.Goldscore.External.HBond>
3.4389

> <Gold.Goldscore.Internal.Correction>
-0.7650

> <Gold.Goldscore.Hbonds>
donor molecule, donor type, donor heavy atom, donor atom, acceptor molecule, acceptor atom, score
      L1  H    10    23       P1  5625  0.57

> <Gold.Goldscore.Internal.Vdw.Weighted>
-1.7553

> <Gold.Goldscore.Internal.Torsion.Weighted>
-0.3904

> <Gold.Goldscore.External.Vdw.Weighted>
28.5516

> <Gold.Goldscore.Internal.HBond.Weighted>
0.0000

> <Gold.Goldscore.External.HBond.Weighted>
3.4389

> <Gold.Goldscore.Internal.Correction.Weighted>
-0.7650

> <Gold.Rescore>
     Score     S(PLP)   S(hbond)     S(cho)   S(metal)  DE(clash)   DE(tors)     intcor
     22.93     -21.78       0.99       0.00       0.00       0.15       0.84       ----

> <Gold.PLP.Fitness>
22.9326

> <Gold.PLP.PLP>
-21.7765

> <Gold.PLP.part.hbond>
-1.0000

> <Gold.PLP.part.metal>
0.0000

> <Gold.PLP.part.buried>
6.5155

> <Gold.PLP.part.nonpolar>
-27.9333

> <Gold.PLP.part.repulsive>
0.5241

> <Gold.PLP.ligand.clash>
0.1456

> <Gold.PLP.ligand.torsion>
0.8372

> <Gold.PLP.Chemscore.Hbond>
0.9920

> <Gold.PLP.Chemscore.CHOScore>
0.0000

> <Gold.PLP.Chemscore.Metal>
0.0000

> <Gold.Chemscore.Hbonds>
donor molecule, donor type, donor heavy atom, donor atom, acceptor molecule, acceptor atom, score
      L1  H    10    23       P1  5625  1.00

> <Gold.PLP.Chemscore.Internal.Correction>
   9.000000E+99

#       Name:                CT1002167954
#       Creating user name   hitesit
#       Creation time:       Sun Apr 16 22:50:54 2023


#       File generated by GOLD software.
#

@<TRIPOS>MOLECULE
CT1002167954|ligand_prepared|mol2|1|dock5
    29    30     1
SMALL
NO_CHARGES


@<TRIPOS>ATOM
      1 C1          -4.5136 -16.7585  18.2536 C.3            1 RES1               0.0000
      2 C2          -3.9221 -17.6657  17.1555 C.ar           1 RES1               0.0000
      3 C3          -5.3682 -15.7181  17.5356 C.2            1 RES1               0.0000
      4 C4          -5.3001 -17.6740  19.1853 C.2            1 RES1               0.0000
      5 C5          -3.4471 -16.0212  19.0965 C.3            1 RES1               0.0000
      6 C6          -4.4582 -18.9269  16.9134 C.ar           1 RES1               0.0000
      7 C7          -2.8441 -17.2548  16.3759 C.ar           1 RES1               0.0000
      8 N8          -6.7233 -15.8480  17.6176 N.am           1 RES1               0.0000
      9 O9          -4.8608 -14.8203  16.8748 O.2            1 RES1               0.0000
     10 N10         -6.6598 -17.5143  19.2452 N.am           1 RES1               0.0000
     11 O11         -4.7566 -18.5432  19.8557 O.2            1 RES1               0.0000
     12 C12         -4.0034 -15.3622  20.3488 C.3            1 RES1               0.0000
     13 C13         -3.9374 -19.7466  15.9258 C.ar           1 RES1               0.0000
     14 C14         -2.3247 -18.0761  15.3890 C.ar           1 RES1               0.0000
     15 C15         -7.4104 -16.6634  18.4805 C.2            1 RES1               0.0000
     16 C16         -2.8707 -19.3217  15.1627 C.ar           1 RES1               0.0000
     17 O17         -8.6350 -16.6157  18.5530 O.2            1 RES1               0.0000
     18 H18         -2.6711 -16.7388  19.3902 H              1 RES1               0.0000
     19 H19         -2.9741 -15.2523  18.4733 H              1 RES1               0.0000
     20 H20         -5.2962 -19.2794  17.5055 H              1 RES1               0.0000
     21 H21         -2.3978 -16.2794  16.5370 H              1 RES1               0.0000
     22 H22         -7.2770 -15.2870  16.9780 H              1 RES1               0.0000
     23 H23         -7.1585 -18.0824  19.9226 H              1 RES1               0.0000
     24 H24         -3.2139 -14.8592  20.9033 H              1 RES1               0.0000
     25 H25         -4.7605 -14.6240  20.0924 H              1 RES1               0.0000
     26 H26         -4.4593 -16.1017  21.0039 H              1 RES1               0.0000
     27 H27         -4.3699 -20.7265  15.7526 H              1 RES1               0.0000
     28 H28         -1.4847 -17.7379  14.7913 H              1 RES1               0.0000
     29 H29         -2.4632 -19.9638  14.3889 H              1 RES1               0.0000
@<TRIPOS>BOND
    1    1    2 1     
    2    1    3 1     
    3    1    4 1     
    4    1    5 1     
    5    2    6 ar    
    6    2    7 ar    
    7    3    8 1     
    8    3    9 2     
    9    4   10 1     
   10    4   11 2     
   11    5   12 1     
   12    5   18 1     
   13    5   19 1     
   14    6   13 ar    
   15    6   20 1     
   16    7   14 ar    
   17    7   21 1     
   18    8   15 1     
   19    8   22 1     
   20   10   15 1     
   21   10   23 1     
   22   12   24 1     
   23   12   25 1     
   24   12   26 1     
   25   13   16 ar    
   26   13   27 1     
   27   14   16 ar    
   28   14   28 1     
   29   15   17 2     
   30   16   29 1     
@<TRIPOS>SUBSTRUCTURE
      1 RES1           1
@<TRIPOS>SET
DONOR_HYDROGENS      STATIC     ATOMS    <user>   **** ""
2 22 23
ATOM$RED        STATIC     ATOMS    COLORGROUP SYSTEM
2 22 23
@<TRIPOS>COMMENT
> <Gold.Version>
2022.3.0

> <Gold.Id.Protein>
unknown|3mvj_clean|pdb

> <Gold.Protein.RotatedTorsions>
[ 1772 1742 1743 1744 ] final   -1.87 input   69.76 | X-H torsion
[ 1801 1791 1792 1793 ] final   53.67 input  -10.55 | X-H torsion
[ 1839 1818 1819 1820 ] final -161.38 input   43.70 | X-H torsion
[ 2083 2067 2068 2069 ] final    5.51 input   63.04 | X-H torsion
[ 2134 2117 2118 2119 ] final  -56.72 input   55.90 | X-H torsion
[ 5632 5617 5618 5619 ] final  128.76 input   93.34 | X-H torsion
[ 7884 7874 7875 7876 ] final -141.32 input   68.03 | X-H torsion
[ 7924 7916 7917 7918 ] final  146.91 input   66.66 | X-H torsion
[ 8483 8469 8467 8464 ] final -153.00 input   59.99 | X-H torsion
[ 15475 15466 15465 15463 ] final  -92.08 input   60.00 | X-H torsion
[ 7991 7973 7974 7975 ] final -154.40 input   84.71 | X-H torsion
[ 8477 8463 8464 8465 ] final   29.93 input   59.21 | X-H torsion
[ 8522 8507 8508 8509 ] final -170.48 input -104.23 | X-H torsion
[ 2822 2803 2804 2805 ] final  -53.89 input  103.27 | X-H torsion
[ 2184 2168 2169 2170 ] final   -6.93 input  106.62 | X-H torsion
[ 2724 2714 2715 2716 ] final  144.96 input   74.66 | X-H torsion
[ 2767 2750 2751 2752 ] final  110.81 input   68.39 | X-H torsion
[ 5506 5481 5482 5483 ] final -144.51 input   57.83 | X-H torsion
[ 5596 5586 5587 5588 ] final -108.36 input -104.43 | X-H torsion
[ 5454 5428 5429 5430 ] final  151.58 input  113.20 | X-H torsion
[ 5462 5439 5438 5436 ] final  -46.45 input   59.99 | X-H torsion
[ 5575 5565 5566 5567 ] final  -62.59 input  101.53 | X-H torsion
[ 5392 5377 5378 5379 ] final   19.66 input  130.34 | X-H torsion
[ 8046 8030 8031 8032 ] final   60.30 input   72.86 | X-H torsion
[ 2684 2665 2666 2667 ] final  -78.47 input   26.41 | X-H torsion
[ 5342 5324 5325 5326 ] final  101.39 input   62.58 | X-H torsion
[ 4530 4515 4516 4517 ] final  -60.17 input  130.34 | X-H torsion
[ 4589 4567 4568 4569 ] final  173.08 input  104.80 | X-H torsion
[ 5299 5274 5275 5276 ] final  168.73 input   71.10 | X-H torsion
[ 8569 8549 8550 8551 ] final   91.31 input   74.91 | X-H torsion
[ 1864 1854 1855 1856 ] final  -37.78 input   57.50 | X-H torsion
[ 15411 15403 15404 15405 ] final   48.17 input  102.24 | X-H torsion
[ 2884 2867 2868 2869 ] final  -70.21 input   60.34 | X-H torsion
[ 16459 1745 1744 1743 ] final   81.20 input    0.00 | X-H torsion
[ 16462 1794 1793 1792 ] final    2.77 input   -0.00 | X-H torsion
[ 16466 2070 2069 2068 ] final  167.44 input    0.00 | X-H torsion
[ 16474 7834 7833 7832 ] final  -61.95 input    0.00 | X-H torsion
[ 16477 7877 7876 7875 ] final -156.32 input    0.00 | X-H torsion
[ 16486 7919 7918 7917 ] final    5.36 input    0.00 | X-H torsion
[ 16490 8466 8465 8464 ] final  -37.95 input    0.00 | X-H torsion
[ 16495 2717 2716 2715 ] final  122.76 input    0.00 | X-H torsion
[ 16498 5484 5483 5482 ] final  -46.02 input    0.00 | X-H torsion
[ 16500 2120 2119 2118 ] final -136.54 input    0.00 | X-H torsion
[ 16505 2753 2752 2751 ] final  -41.15 input    0.00 | X-H torsion
[ 16507 5380 5379 5378 ] final  108.90 input    0.00 | X-H torsion
[ 16510 1701 1700 1699 ] final  -64.06 input   -0.00 | X-H torsion
[ 16513 5589 5588 5587 ] final   39.80 input    0.00 | X-H torsion
[ 16515 2668 2667 2666 ] final  131.12 input    0.00 | X-H torsion
[ 16517 5327 5326 5325 ] final  -80.63 input   -0.00 | X-H torsion
[ 16520 5431 5430 5429 ] final  131.26 input    0.00 | X-H torsion
[ 16525 5532 5531 5530 ] final   83.37 input   -0.00 | X-H torsion
[ 16530 8033 8032 8031 ] final -144.76 input    0.00 | X-H torsion
[ 16534 8371 8370 8369 ] final   17.50 input    0.00 | X-H torsion
[ 16536 4570 4569 4568 ] final -166.74 input    0.00 | X-H torsion
[ 16539 4518 4517 4516 ] final -147.18 input    0.00 | X-H torsion
[ 16542 5228 5227 5226 ] final -172.43 input    0.00 | X-H torsion
[ 16544 5277 5276 5275 ] final  121.29 input    0.00 | X-H torsion
[ 16548 8418 8417 8416 ] final  151.16 input    0.00 | X-H torsion
[ 16551 2006 2005 2004 ] final  156.61 input    0.00 | X-H torsion
[ 16556 1821 1820 1819 ] final -166.76 input    0.00 | X-H torsion

> <Gold.Protein.ActiveResidues>
 THR48   LEU49   GLY50   THR51   GLY52   ARG56   VAL57   MET58   LEU59   TYR69  
 ALA70   MET71   LYS72   ILE73   GLU91   LEU95   VAL104  LYS105  LEU106  MET118 
 VAL119  MET120  GLU121  TYR122  VAL123  PRO124  GLY125  GLY126  GLU127  GLU170 
 ASN171  LEU172  LEU173  ILE174  ASP175  GLN181  VAL182  THR183  ASP184  PHE185 
 ASN326  PHE327  ASP328  TYR330 

> <Gold.Protein.RotatedAtoms>
    2.8418  -14.9720   20.9989 H   0  0  0  0  0  0  0  0  0  0  0  0  # atno 1772 bound_to 1742
    0.9705  -15.0726   21.0780 H   0  0  0  0  0  0  0  0  0  0  0  0  # atno 1801 bound_to 1791
   -0.2309  -14.4932   23.8965 H   0  0  0  0  0  0  0  0  0  0  0  0  # atno 1839 bound_to 1818
   -1.9072  -15.7778   27.5311 H   0  0  0  0  0  0  0  0  0  0  0  0  # atno 1864 bound_to 1854
    1.1300  -17.9894   22.9278 H   0  0  0  0  0  0  0  0  0  0  0  0  # atno 2083 bound_to 2067
    1.8392  -18.8783   19.5686 H   0  0  0  0  0  0  0  0  0  0  0  0  # atno 2134 bound_to 2117
    5.2407  -18.6015   18.1003 H   0  0  0  0  0  0  0  0  0  0  0  0  # atno 2184 bound_to 2168
    4.8268  -21.0555   11.1184 H   0  0  0  0  0  0  0  0  0  0  0  0  # atno 2684 bound_to 2665
    1.6163  -21.1090   12.9945 H   0  0  0  0  0  0  0  0  0  0  0  0  # atno 2724 bound_to 2714
    2.8565  -21.8273   16.9293 H   0  0  0  0  0  0  0  0  0  0  0  0  # atno 2767 bound_to 2750
    1.0669  -23.2981   19.6917 H   0  0  0  0  0  0  0  0  0  0  0  0  # atno 2822 bound_to 2803
   -0.5399  -23.8105   22.7077 H   0  0  0  0  0  0  0  0  0  0  0  0  # atno 2884 bound_to 2867
   -9.4727  -22.8474    9.7901 H   0  0  0  0  0  0  0  0  0  0  0  0  # atno 4530 bound_to 4515
   -6.9015  -24.6108    8.9534 H   0  0  0  0  0  0  0  0  0  0  0  0  # atno 4589 bound_to 4567
    0.0970  -27.6450   17.7048 H   0  0  0  0  0  0  0  0  0  0  0  0  # atno 5299 bound_to 5274
   -0.6209  -24.4041   15.2781 H   0  0  0  0  0  0  0  0  0  0  0  0  # atno 5342 bound_to 5324
   -1.8554  -23.4749   11.9149 H   0  0  0  0  0  0  0  0  0  0  0  0  # atno 5392 bound_to 5377
    1.1357  -21.6570   10.5225 H   0  0  0  0  0  0  0  0  0  0  0  0  # atno 5454 bound_to 5428
    2.7453  -13.2750   11.8075 H   0  0  0  0  0  0  0  0  0  0  0  0  # atno 5462 bound_to 5439
   -0.6646  -18.5829    9.8984 H   0  0  0  0  0  0  0  0  0  0  0  0  # atno 5506 bound_to 5481
   -0.2268  -12.2474    9.2328 H   0  0  0  0  0  0  0  0  0  0  0  0  # atno 5575 bound_to 5565
   -1.7317  -11.9301   10.8928 H   0  0  0  0  0  0  0  0  0  0  0  0  # atno 5596 bound_to 5586
   -3.8860  -10.2352   14.2575 H   0  0  0  0  0  0  0  0  0  0  0  0  # atno 5632 bound_to 5617
   -9.5802  -12.5794   18.1550 H   0  0  0  0  0  0  0  0  0  0  0  0  # atno 7884 bound_to 7874
  -11.0490  -13.4024   15.4677 H   0  0  0  0  0  0  0  0  0  0  0  0  # atno 7924 bound_to 7916
   -8.4784  -14.0229   13.1596 H   0  0  0  0  0  0  0  0  0  0  0  0  # atno 7991 bound_to 7973
   -5.6490  -12.3074   10.1128 H   0  0  0  0  0  0  0  0  0  0  0  0  # atno 8046 bound_to 8030
  -10.3675  -18.1807   14.6709 H   0  0  0  0  0  0  0  0  0  0  0  0  # atno 8477 bound_to 8463
   -6.9643  -17.3403   15.7160 H   0  0  0  0  0  0  0  0  0  0  0  0  # atno 8483 bound_to 8469
   -8.4205  -20.0562   17.5475 H   0  0  0  0  0  0  0  0  0  0  0  0  # atno 8522 bound_to 8507
  -10.0539  -23.0637   18.9993 H   0  0  0  0  0  0  0  0  0  0  0  0  # atno 8569 bound_to 8549
    1.3584   -8.9201   18.0091 H   0  0  0  0  0  0  0  0  0  0  0  0  # atno 15411 bound_to 15403
   -1.5318   -9.1179   21.4622 H   0  0  0  0  0  0  0  0  0  0  0  0  # atno 15475 bound_to 15466
    3.8887  -14.9513   19.5967 LP  0  0  0  0  0  0  0  0  0  0  0  0  # atno 16458 bound_to 1742
   -0.8408  -13.6208   18.9428 LP  0  0  0  0  0  0  0  0  0  0  0  0  # atno 16459 bound_to 1745
   -0.3549  -12.1331   19.6848 LP  0  0  0  0  0  0  0  0  0  0  0  0  # atno 16460 bound_to 1745
    1.1836  -13.3362   21.0084 LP  0  0  0  0  0  0  0  0  0  0  0  0  # atno 16461 bound_to 1791
    0.6936  -16.1591   22.6393 LP  0  0  0  0  0  0  0  0  0  0  0  0  # atno 16462 bound_to 1794
    0.2641  -16.4048   24.2991 LP  0  0  0  0  0  0  0  0  0  0  0  0  # atno 16463 bound_to 1794
   -1.6273  -13.5456   24.3573 LP  0  0  0  0  0  0  0  0  0  0  0  0  # atno 16464 bound_to 1818
   -0.2996  -18.9900   23.0938 LP  0  0  0  0  0  0  0  0  0  0  0  0  # atno 16465 bound_to 2067
    3.0582  -16.8548   20.6462 LP  0  0  0  0  0  0  0  0  0  0  0  0  # atno 16466 bound_to 2070
    1.4216  -16.5872   21.1464 LP  0  0  0  0  0  0  0  0  0  0  0  0  # atno 16467 bound_to 2070
    2.6794  -19.8671   20.7433 LP  0  0  0  0  0  0  0  0  0  0  0  0  # atno 16468 bound_to 2117
   -4.3620  -10.0145   12.5863 LP  0  0  0  0  0  0  0  0  0  0  0  0  # atno 16469 bound_to 5617
   -7.2539  -12.4804   17.4281 LP  0  0  0  0  0  0  0  0  0  0  0  0  # atno 16474 bound_to 7834
   -7.8851  -13.6266   18.5629 LP  0  0  0  0  0  0  0  0  0  0  0  0  # atno 16475 bound_to 7834
  -10.8732  -12.4803   16.9886 LP  0  0  0  0  0  0  0  0  0  0  0  0  # atno 16476 bound_to 7874
  -10.1129  -16.0614   14.2884 LP  0  0  0  0  0  0  0  0  0  0  0  0  # atno 16477 bound_to 7877
  -10.6971  -16.5717   15.8370 LP  0  0  0  0  0  0  0  0  0  0  0  0  # atno 16478 bound_to 7877
   -9.3409  -13.7499   15.3573 LP  0  0  0  0  0  0  0  0  0  0  0  0  # atno 16479 bound_to 7916
   -7.9457  -17.6939   16.9652 LP  0  0  0  0  0  0  0  0  0  0  0  0  # atno 16480 bound_to 8469
   -8.5756  -17.3824   15.4911 LP  0  0  0  0  0  0  0  0  0  0  0  0  # atno 16481 bound_to 8469
   -2.2045  -10.3693   22.2555 LP  0  0  0  0  0  0  0  0  0  0  0  0  # atno 16484 bound_to 15466
   -1.4750  -10.6095   20.8144 LP  0  0  0  0  0  0  0  0  0  0  0  0  # atno 16485 bound_to 15466
   -9.1816  -11.4432   13.4707 LP  0  0  0  0  0  0  0  0  0  0  0  0  # atno 16486 bound_to 7919
   -7.8860  -11.7704   12.3687 LP  0  0  0  0  0  0  0  0  0  0  0  0  # atno 16487 bound_to 7919
   -9.0709  -14.5454   11.6038 LP  0  0  0  0  0  0  0  0  0  0  0  0  # atno 16488 bound_to 7973
   -9.8024  -19.2687   13.4205 LP  0  0  0  0  0  0  0  0  0  0  0  0  # atno 16489 bound_to 8463
  -10.7432  -17.9373   16.4585 LP  0  0  0  0  0  0  0  0  0  0  0  0  # atno 16490 bound_to 8466
  -11.5997  -19.0968   17.4187 LP  0  0  0  0  0  0  0  0  0  0  0  0  # atno 16491 bound_to 8466
   -9.9067  -20.7525   16.9167 LP  0  0  0  0  0  0  0  0  0  0  0  0  # atno 16492 bound_to 8507
    0.6684  -24.0458   15.7355 LP  0  0  0  0  0  0  0  0  0  0  0  0  # atno 16495 bound_to 2717
   -0.5666  -22.8400   15.5912 LP  0  0  0  0  0  0  0  0  0  0  0  0  # atno 16496 bound_to 2717
   -0.4560  -23.5545   18.8616 LP  0  0  0  0  0  0  0  0  0  0  0  0  # atno 16497 bound_to 2803
   -1.9604  -14.6207   11.2092 LP  0  0  0  0  0  0  0  0  0  0  0  0  # atno 16498 bound_to 5484
   -0.2684  -14.2501   11.2133 LP  0  0  0  0  0  0  0  0  0  0  0  0  # atno 16499 bound_to 5484
    4.3578  -20.5569   16.6940 LP  0  0  0  0  0  0  0  0  0  0  0  0  # atno 16500 bound_to 2120
    2.8546  -20.4032   17.5406 LP  0  0  0  0  0  0  0  0  0  0  0  0  # atno 16501 bound_to 2120
    4.1726  -17.4325   17.3644 LP  0  0  0  0  0  0  0  0  0  0  0  0  # atno 16502 bound_to 2168
    2.4594  -22.3984   13.8193 LP  0  0  0  0  0  0  0  0  0  0  0  0  # atno 16503 bound_to 2714
    1.1132  -21.8764   16.7741 LP  0  0  0  0  0  0  0  0  0  0  0  0  # atno 16504 bound_to 2750
    2.8922  -22.2786   20.2962 LP  0  0  0  0  0  0  0  0  0  0  0  0  # atno 16505 bound_to 2753
    1.4420  -21.3826   20.6030 LP  0  0  0  0  0  0  0  0  0  0  0  0  # atno 16506 bound_to 2753
   -1.5352  -20.7847   12.2015 LP  0  0  0  0  0  0  0  0  0  0  0  0  # atno 16507 bound_to 5380
   -2.4881  -20.6304   10.7634 LP  0  0  0  0  0  0  0  0  0  0  0  0  # atno 16508 bound_to 5380
   -0.4154  -17.3998   11.1634 LP  0  0  0  0  0  0  0  0  0  0  0  0  # atno 16509 bound_to 5481
    4.5645  -12.3276   20.9835 LP  0  0  0  0  0  0  0  0  0  0  0  0  # atno 16510 bound_to 1701
    4.5511  -12.6467   19.2812 LP  0  0  0  0  0  0  0  0  0  0  0  0  # atno 16511 bound_to 1701
   -2.3670  -10.4825   10.1449 LP  0  0  0  0  0  0  0  0  0  0  0  0  # atno 16512 bound_to 5586
   -4.5686  -11.7887   10.8998 LP  0  0  0  0  0  0  0  0  0  0  0  0  # atno 16513 bound_to 5589
   -5.7236  -10.5537   11.2749 LP  0  0  0  0  0  0  0  0  0  0  0  0  # atno 16514 bound_to 5589
    3.8661  -19.8899   14.2985 LP  0  0  0  0  0  0  0  0  0  0  0  0  # atno 16515 bound_to 2668
    4.8981  -21.2806   14.3313 LP  0  0  0  0  0  0  0  0  0  0  0  0  # atno 16516 bound_to 2668
    0.3897  -22.5704   12.8835 LP  0  0  0  0  0  0  0  0  0  0  0  0  # atno 16517 bound_to 5327
    1.0982  -23.9334   12.0834 LP  0  0  0  0  0  0  0  0  0  0  0  0  # atno 16518 bound_to 5327
   -0.4753  -21.2719    9.9676 LP  0  0  0  0  0  0  0  0  0  0  0  0  # atno 16519 bound_to 5428
   -1.2614  -19.0107    8.1189 LP  0  0  0  0  0  0  0  0  0  0  0  0  # atno 16520 bound_to 5431
    0.4510  -19.2258    7.9725 LP  0  0  0  0  0  0  0  0  0  0  0  0  # atno 16521 bound_to 5431
    3.9940  -13.3809   10.7698 LP  0  0  0  0  0  0  0  0  0  0  0  0  # atno 16522 bound_to 5439
    4.1987  -13.7750   12.3413 LP  0  0  0  0  0  0  0  0  0  0  0  0  # atno 16523 bound_to 5439
    1.5047  -10.8773    9.2436 LP  0  0  0  0  0  0  0  0  0  0  0  0  # atno 16525 bound_to 5532
    0.6168  -11.2227   10.6901 LP  0  0  0  0  0  0  0  0  0  0  0  0  # atno 16526 bound_to 5532
   -1.3762  -12.8937    8.0804 LP  0  0  0  0  0  0  0  0  0  0  0  0  # atno 16527 bound_to 5565
   -1.3370  -24.8594   10.9826 LP  0  0  0  0  0  0  0  0  0  0  0  0  # atno 16528 bound_to 5377
   -7.2007  -13.1072    9.9841 LP  0  0  0  0  0  0  0  0  0  0  0  0  # atno 16529 bound_to 8030
   -3.4636  -12.4503    7.0541 LP  0  0  0  0  0  0  0  0  0  0  0  0  # atno 16530 bound_to 8033
   -3.9696  -12.2865    8.7024 LP  0  0  0  0  0  0  0  0  0  0  0  0  # atno 16531 bound_to 8033
    5.6469  -22.4055   11.8709 LP  0  0  0  0  0  0  0  0  0  0  0  0  # atno 16532 bound_to 2665
    0.0306  -25.7258   14.3476 LP  0  0  0  0  0  0  0  0  0  0  0  0  # atno 16533 bound_to 5324
   -8.9780  -15.9995   11.2579 LP  0  0  0  0  0  0  0  0  0  0  0  0  # atno 16534 bound_to 8371
   -9.5311  -17.0045   12.5556 LP  0  0  0  0  0  0  0  0  0  0  0  0  # atno 16535 bound_to 8371
   -3.4602  -25.9819   12.0106 LP  0  0  0  0  0  0  0  0  0  0  0  0  # atno 16536 bound_to 4570
   -4.2199  -24.7840   11.0167 LP  0  0  0  0  0  0  0  0  0  0  0  0  # atno 16537 bound_to 4570
   -9.2502  -22.0231   11.3109 LP  0  0  0  0  0  0  0  0  0  0  0  0  # atno 16538 bound_to 4515
   -7.7607  -26.0411   11.6760 LP  0  0  0  0  0  0  0  0  0  0  0  0  # atno 16539 bound_to 4518
   -9.0338  -24.8848   11.4709 LP  0  0  0  0  0  0  0  0  0  0  0  0  # atno 16540 bound_to 4518
   -6.2135  -24.3448   10.5475 LP  0  0  0  0  0  0  0  0  0  0  0  0  # atno 16541 bound_to 4567
   -0.2279  -24.8933   17.6562 LP  0  0  0  0  0  0  0  0  0  0  0  0  # atno 16542 bound_to 5228
   -0.9043  -25.2170   19.2175 LP  0  0  0  0  0  0  0  0  0  0  0  0  # atno 16543 bound_to 5228
   -1.7507  -27.2741   13.9080 LP  0  0  0  0  0  0  0  0  0  0  0  0  # atno 16544 bound_to 5277
   -0.1233  -27.8053   13.6447 LP  0  0  0  0  0  0  0  0  0  0  0  0  # atno 16545 bound_to 5277
   -9.2222  -21.1400   13.2121 LP  0  0  0  0  0  0  0  0  0  0  0  0  # atno 16548 bound_to 8418
  -10.7395  -21.1982   12.3788 LP  0  0  0  0  0  0  0  0  0  0  0  0  # atno 16549 bound_to 8418
   -1.3076  -27.3533   16.7068 LP  0  0  0  0  0  0  0  0  0  0  0  0  # atno 16550 bound_to 5274
    0.1247  -21.1186   22.5219 LP  0  0  0  0  0  0  0  0  0  0  0  0  # atno 16551 bound_to 2006
    0.7812  -21.3095   24.1133 LP  0  0  0  0  0  0  0  0  0  0  0  0  # atno 16552 bound_to 2006
  -11.0286  -21.6627   19.3550 LP  0  0  0  0  0  0  0  0  0  0  0  0  # atno 16555 bound_to 8549
   -3.8452  -13.7861   27.1353 LP  0  0  0  0  0  0  0  0  0  0  0  0  # atno 16556 bound_to 1821
   -2.8313  -13.1703   25.8733 LP  0  0  0  0  0  0  0  0  0  0  0  0  # atno 16557 bound_to 1821
   -2.8933  -16.2930   26.1737 LP  0  0  0  0  0  0  0  0  0  0  0  0  # atno 16558 bound_to 1854

> <Gold.Score>
     Fitness  S(hb_ext) S(vdw_ext)  S(hb_int)    S(int)      intcor
     30.55       0.17      23.13       0.00      -1.42      -0.76

> <Gold.Goldscore.Fitness>
30.5497

> <Gold.Goldscore.Internal.Vdw>
-1.5934

> <Gold.Goldscore.Internal.Torsion>
-0.5890

> <Gold.Goldscore.External.Vdw>
23.1283

> <Gold.Goldscore.Internal.HBond>
0.0000

> <Gold.Goldscore.External.HBond>
0.1658

> <Gold.Goldscore.Internal.Correction>
-0.7650

> <Gold.Goldscore.Hbonds>
donor molecule, donor type, donor heavy atom, donor atom, acceptor molecule, acceptor atom, score
      L1  H    10    23       P1  8514  0.03

> <Gold.Goldscore.Internal.Vdw.Weighted>
-1.5934

> <Gold.Goldscore.Internal.Torsion.Weighted>
-0.5890

> <Gold.Goldscore.External.Vdw.Weighted>
31.8014

> <Gold.Goldscore.Internal.HBond.Weighted>
0.0000

> <Gold.Goldscore.External.HBond.Weighted>
0.1658

> <Gold.Goldscore.Internal.Correction.Weighted>
-0.7650

> <Gold.Rescore>
     Score     S(PLP)   S(hbond)     S(cho)   S(metal)  DE(clash)   DE(tors)     intcor
      9.42     -11.86       0.00       0.00       0.00       0.96       0.74       ----

> <Gold.PLP.Fitness>
9.4177

> <Gold.PLP.PLP>
-11.8594

> <Gold.PLP.part.hbond>
-2.2485

> <Gold.PLP.part.metal>
0.0000

> <Gold.PLP.part.buried>
14.0835

> <Gold.PLP.part.nonpolar>
-30.2146

> <Gold.PLP.part.repulsive>
5.0225

> <Gold.PLP.ligand.clash>
0.9570

> <Gold.PLP.ligand.torsion>
0.7424

> <Gold.PLP.Chemscore.Hbond>
0.0000

> <Gold.PLP.Chemscore.CHOScore>
0.0000

> <Gold.PLP.Chemscore.Metal>
0.0000

> <Gold.PLP.Chemscore.Internal.Correction>
   9.000000E+99

#       Name:                CT1002167954
#       Creating user name   hitesit
#       Creation time:       Sun Apr 16 22:50:59 2023


#       File generated by GOLD software.
#

@<TRIPOS>MOLECULE
CT1002167954|ligand_prepared|mol2|1|dock9
    29    30     1
SMALL
NO_CHARGES


@<TRIPOS>ATOM
      1 C1          -5.0184 -15.7898  20.7661 C.3            1 RES1               0.0000
      2 C2          -4.1391 -15.8017  19.4990 C.ar           1 RES1               0.0000
      3 C3          -4.5476 -14.6040  21.6031 C.2            1 RES1               0.0000
      4 C4          -6.4604 -15.6773  20.2837 C.2            1 RES1               0.0000
      5 C5          -4.8994 -17.0728  21.6213 C.3            1 RES1               0.0000
      6 C6          -3.5364 -14.6329  19.0437 C.ar           1 RES1               0.0000
      7 C7          -3.9198 -16.9722  18.7776 C.ar           1 RES1               0.0000
      8 N8          -5.3506 -13.5026  21.6462 N.am           1 RES1               0.0000
      9 O9          -3.4696 -14.6201  22.1844 O.2            1 RES1               0.0000
     10 N10         -7.1537 -14.5365  20.5928 N.am           1 RES1               0.0000
     11 O11         -6.9971 -16.5592  19.6246 O.2            1 RES1               0.0000
     12 C12         -5.5158 -16.9463  23.0055 C.3            1 RES1               0.0000
     13 C13         -2.7407 -14.6346  17.9101 C.ar           1 RES1               0.0000
     14 C14         -3.1239 -16.9717  17.6439 C.ar           1 RES1               0.0000
     15 C15         -6.6543 -13.4309  21.2258 C.2            1 RES1               0.0000
     16 C16         -2.5336 -15.8039  17.2097 C.ar           1 RES1               0.0000
     17 O17         -7.3249 -12.4210  21.4196 O.2            1 RES1               0.0000
     18 H18         -5.3900 -17.8978  21.0903 H              1 RES1               0.0000
     19 H19         -3.8379 -17.3278  21.7295 H              1 RES1               0.0000
     20 H20         -3.6899 -13.7026  19.5805 H              1 RES1               0.0000
     21 H21         -4.3750 -17.9025  19.1000 H              1 RES1               0.0000
     22 H22         -4.9441 -12.6536  22.0261 H              1 RES1               0.0000
     23 H23         -8.1328 -14.5089  20.3264 H              1 RES1               0.0000
     24 H24         -5.4049 -17.8738  23.5634 H              1 RES1               0.0000
     25 H25         -5.0344 -16.1512  23.5710 H              1 RES1               0.0000
     26 H26         -6.5773 -16.7178  22.9356 H              1 RES1               0.0000
     27 H27         -2.2795 -13.7127  17.5717 H              1 RES1               0.0000
     28 H28         -2.9642 -17.8941  17.0955 H              1 RES1               0.0000
     29 H29         -1.9099 -15.8051  16.3219 H              1 RES1               0.0000
@<TRIPOS>BOND
    1    1    2 1     
    2    1    3 1     
    3    1    4 1     
    4    1    5 1     
    5    2    6 ar    
    6    2    7 ar    
    7    3    8 1     
    8    3    9 2     
    9    4   10 1     
   10    4   11 2     
   11    5   12 1     
   12    5   18 1     
   13    5   19 1     
   14    6   13 ar    
   15    6   20 1     
   16    7   14 ar    
   17    7   21 1     
   18    8   15 1     
   19    8   22 1     
   20   10   15 1     
   21   10   23 1     
   22   12   24 1     
   23   12   25 1     
   24   12   26 1     
   25   13   16 ar    
   26   13   27 1     
   27   14   16 ar    
   28   14   28 1     
   29   15   17 2     
   30   16   29 1     
@<TRIPOS>SUBSTRUCTURE
      1 RES1           1
@<TRIPOS>SET
DONOR_HYDROGENS      STATIC     ATOMS    <user>   **** ""
2 22 23
ATOM$RED        STATIC     ATOMS    COLORGROUP SYSTEM
2 22 23
@<TRIPOS>COMMENT
> <Gold.Version>
2022.3.0

> <Gold.Id.Protein>
unknown|3mvj_clean|pdb

> <Gold.Protein.RotatedTorsions>
[ 1772 1742 1743 1744 ] final   58.51 input   69.76 | X-H torsion
[ 1801 1791 1792 1793 ] final   28.83 input  -10.55 | X-H torsion
[ 1839 1818 1819 1820 ] final   12.76 input   43.70 | X-H torsion
[ 2083 2067 2068 2069 ] final   -7.27 input   63.04 | X-H torsion
[ 2134 2117 2118 2119 ] final   69.96 input   55.90 | X-H torsion
[ 5632 5617 5618 5619 ] final   27.25 input   93.34 | X-H torsion
[ 7884 7874 7875 7876 ] final  -82.43 input   68.03 | X-H torsion
[ 7924 7916 7917 7918 ] final   45.57 input   66.66 | X-H torsion
[ 8483 8469 8467 8464 ] final -172.04 input   59.99 | X-H torsion
[ 15475 15466 15465 15463 ] final  -13.12 input   60.00 | X-H torsion
[ 7991 7973 7974 7975 ] final    0.33 input   84.71 | X-H torsion
[ 8477 8463 8464 8465 ] final -122.19 input   59.21 | X-H torsion
[ 8522 8507 8508 8509 ] final   33.58 input -104.23 | X-H torsion
[ 2822 2803 2804 2805 ] final   34.37 input  103.27 | X-H torsion
[ 2184 2168 2169 2170 ] final  123.50 input  106.62 | X-H torsion
[ 2724 2714 2715 2716 ] final  163.25 input   74.66 | X-H torsion
[ 2767 2750 2751 2752 ] final  -10.36 input   68.39 | X-H torsion
[ 5506 5481 5482 5483 ] final   28.30 input   57.83 | X-H torsion
[ 5596 5586 5587 5588 ] final  -70.68 input -104.43 | X-H torsion
[ 5454 5428 5429 5430 ] final  -94.93 input  113.20 | X-H torsion
[ 5462 5439 5438 5436 ] final   58.58 input   59.99 | X-H torsion
[ 5575 5565 5566 5567 ] final  -34.88 input  101.53 | X-H torsion
[ 5392 5377 5378 5379 ] final   62.84 input  130.34 | X-H torsion
[ 8046 8030 8031 8032 ] final -145.11 input   72.86 | X-H torsion
[ 2684 2665 2666 2667 ] final  -46.72 input   26.41 | X-H torsion
[ 5342 5324 5325 5326 ] final -135.71 input   62.58 | X-H torsion
[ 4530 4515 4516 4517 ] final -160.76 input  130.34 | X-H torsion
[ 4589 4567 4568 4569 ] final  -38.64 input  104.80 | X-H torsion
[ 5299 5274 5275 5276 ] final  125.95 input   71.10 | X-H torsion
[ 8569 8549 8550 8551 ] final  166.32 input   74.91 | X-H torsion
[ 1864 1854 1855 1856 ] final -143.60 input   57.50 | X-H torsion
[ 15411 15403 15404 15405 ] final   41.77 input  102.24 | X-H torsion
[ 2884 2867 2868 2869 ] final  -98.56 input   60.34 | X-H torsion
[ 16459 1745 1744 1743 ] final  -57.66 input    0.00 | X-H torsion
[ 16462 1794 1793 1792 ] final   57.66 input   -0.00 | X-H torsion
[ 16466 2070 2069 2068 ] final   92.81 input    0.00 | X-H torsion
[ 16474 7834 7833 7832 ] final  -54.84 input    0.00 | X-H torsion
[ 16477 7877 7876 7875 ] final   47.81 input    0.00 | X-H torsion
[ 16486 7919 7918 7917 ] final   92.81 input    0.00 | X-H torsion
[ 16490 8466 8465 8464 ] final -136.41 input    0.00 | X-H torsion
[ 16495 2717 2716 2715 ] final   78.75 input    0.00 | X-H torsion
[ 16498 5484 5483 5482 ] final -177.19 input    0.00 | X-H torsion
[ 16500 2120 2119 2118 ] final  178.59 input    0.00 | X-H torsion
[ 16505 2753 2752 2751 ] final  125.16 input    0.00 | X-H torsion
[ 16507 5380 5379 5378 ] final   97.03 input    0.00 | X-H torsion
[ 16510 1701 1700 1699 ] final  -19.69 input   -0.00 | X-H torsion
[ 16513 5589 5588 5587 ] final  -11.25 input    0.00 | X-H torsion
[ 16515 2668 2667 2666 ] final  -56.25 input    0.00 | X-H torsion
[ 16517 5327 5326 5325 ] final -115.31 input   -0.00 | X-H torsion
[ 16520 5431 5430 5429 ] final  142.03 input    0.00 | X-H torsion
[ 16525 5532 5531 5530 ] final  137.81 input   -0.00 | X-H torsion
[ 16530 8033 8032 8031 ] final  -85.78 input    0.00 | X-H torsion
[ 16534 8371 8370 8369 ] final  -32.34 input    0.00 | X-H torsion
[ 16536 4570 4569 4568 ] final  108.28 input    0.00 | X-H torsion
[ 16539 4518 4517 4516 ] final -133.59 input    0.00 | X-H torsion
[ 16542 5228 5227 5226 ] final   71.72 input    0.00 | X-H torsion
[ 16544 5277 5276 5275 ] final -161.72 input    0.00 | X-H torsion
[ 16548 8418 8417 8416 ] final   19.69 input    0.00 | X-H torsion
[ 16551 2006 2005 2004 ] final  143.44 input    0.00 | X-H torsion
[ 16556 1821 1820 1819 ] final   28.12 input    0.00 | X-H torsion

> <Gold.Protein.ActiveResidues>
 THR48   LEU49   GLY50   THR51   GLY52   ARG56   VAL57   MET58   LEU59   TYR69  
 ALA70   MET71   LYS72   ILE73   GLU91   LEU95   VAL104  LYS105  LEU106  MET118 
 VAL119  MET120  GLU121  TYR122  VAL123  PRO124  GLY125  GLY126  GLU127  GLU170 
 ASN171  LEU172  LEU173  ILE174  ASP175  GLN181  VAL182  THR183  ASP184  PHE185 
 ASN326  PHE327  ASP328  TYR330 

> <Gold.Protein.RotatedAtoms>
    2.7947  -15.6279   20.3928 H   0  0  0  0  0  0  0  0  0  0  0  0  # atno 1772 bound_to 1742
    1.1973  -15.0052   21.3792 H   0  0  0  0  0  0  0  0  0  0  0  0  # atno 1801 bound_to 1791
   -1.6987  -13.6018   24.3344 H   0  0  0  0  0  0  0  0  0  0  0  0  # atno 1839 bound_to 1818
   -2.7752  -15.2917   26.4994 H   0  0  0  0  0  0  0  0  0  0  0  0  # atno 1864 bound_to 1854
    1.2255  -18.1555   22.9819 H   0  0  0  0  0  0  0  0  0  0  0  0  # atno 2083 bound_to 2067
    2.5238  -20.2262   20.0617 H   0  0  0  0  0  0  0  0  0  0  0  0  # atno 2134 bound_to 2117
    4.8060  -17.1466   17.5949 H   0  0  0  0  0  0  0  0  0  0  0  0  # atno 2184 bound_to 2168
    4.9692  -20.8977   11.5553 H   0  0  0  0  0  0  0  0  0  0  0  0  # atno 2684 bound_to 2665
    1.8663  -20.9851   13.0271 H   0  0  0  0  0  0  0  0  0  0  0  0  # atno 2724 bound_to 2714
    1.4458  -21.3841   17.3967 H   0  0  0  0  0  0  0  0  0  0  0  0  # atno 2767 bound_to 2750
    0.3478  -24.2952   19.4863 H   0  0  0  0  0  0  0  0  0  0  0  0  # atno 2822 bound_to 2803
   -0.2335  -23.9715   22.4434 H   0  0  0  0  0  0  0  0  0  0  0  0  # atno 2884 bound_to 2867
   -9.1401  -21.6316   10.2735 H   0  0  0  0  0  0  0  0  0  0  0  0  # atno 4530 bound_to 4515
   -6.6339  -24.5555   10.6661 H   0  0  0  0  0  0  0  0  0  0  0  0  # atno 4589 bound_to 4567
    0.0277  -28.1032   17.2566 H   0  0  0  0  0  0  0  0  0  0  0  0  # atno 5299 bound_to 5274
   -0.6010  -25.8845   14.8669 H   0  0  0  0  0  0  0  0  0  0  0  0  # atno 5342 bound_to 5324
   -2.3299  -23.6933   11.5263 H   0  0  0  0  0  0  0  0  0  0  0  0  # atno 5392 bound_to 5377
   -0.2880  -21.4980   10.8795 H   0  0  0  0  0  0  0  0  0  0  0  0  # atno 5454 bound_to 5428
    3.9896  -13.7487   12.4660 H   0  0  0  0  0  0  0  0  0  0  0  0  # atno 5462 bound_to 5439
   -0.3293  -17.3382   11.1180 H   0  0  0  0  0  0  0  0  0  0  0  0  # atno 5506 bound_to 5481
   -0.5406  -12.4021    9.4773 H   0  0  0  0  0  0  0  0  0  0  0  0  # atno 5575 bound_to 5565
   -2.2766  -12.0228   10.7440 H   0  0  0  0  0  0  0  0  0  0  0  0  # atno 5596 bound_to 5586
   -4.2391   -9.2386   13.3684 H   0  0  0  0  0  0  0  0  0  0  0  0  # atno 5632 bound_to 5617
   -9.3978  -12.3817   17.3358 H   0  0  0  0  0  0  0  0  0  0  0  0  # atno 7884 bound_to 7874
   -9.8501  -12.7676   15.3188 H   0  0  0  0  0  0  0  0  0  0  0  0  # atno 7924 bound_to 7916
   -9.1878  -14.1818   11.6069 H   0  0  0  0  0  0  0  0  0  0  0  0  # atno 7991 bound_to 7973
   -7.3257  -12.7489   10.0567 H   0  0  0  0  0  0  0  0  0  0  0  0  # atno 8046 bound_to 8030
  -10.1511  -19.4750   13.5441 H   0  0  0  0  0  0  0  0  0  0  0  0  # atno 8477 bound_to 8463
   -6.8936  -17.4059   16.0104 H   0  0  0  0  0  0  0  0  0  0  0  0  # atno 8483 bound_to 8469
  -10.0507  -20.4085   16.9563 H   0  0  0  0  0  0  0  0  0  0  0  0  # atno 8522 bound_to 8507
  -10.6132  -22.4701   18.3117 H   0  0  0  0  0  0  0  0  0  0  0  0  # atno 8569 bound_to 8549
    1.4508   -8.9231   17.9741 H   0  0  0  0  0  0  0  0  0  0  0  0  # atno 15411 bound_to 15403
   -1.2857   -9.9907   20.6912 H   0  0  0  0  0  0  0  0  0  0  0  0  # atno 15475 bound_to 15466
    3.9343  -14.3164   20.1834 LP  0  0  0  0  0  0  0  0  0  0  0  0  # atno 16458 bound_to 1742
   -0.0836  -12.2011   19.1443 LP  0  0  0  0  0  0  0  0  0  0  0  0  # atno 16459 bound_to 1745
   -1.1121  -13.5528   19.4833 LP  0  0  0  0  0  0  0  0  0  0  0  0  # atno 16460 bound_to 1745
    0.9644  -13.4013   20.7173 LP  0  0  0  0  0  0  0  0  0  0  0  0  # atno 16461 bound_to 1791
    1.1886  -15.8688   23.1943 LP  0  0  0  0  0  0  0  0  0  0  0  0  # atno 16462 bound_to 1794
   -0.2309  -16.6950   23.7442 LP  0  0  0  0  0  0  0  0  0  0  0  0  # atno 16463 bound_to 1794
   -0.2012  -14.4116   23.9319 LP  0  0  0  0  0  0  0  0  0  0  0  0  # atno 16464 bound_to 1818
   -0.3911  -18.8307   23.0419 LP  0  0  0  0  0  0  0  0  0  0  0  0  # atno 16465 bound_to 2067
    2.6695  -16.9296   21.6187 LP  0  0  0  0  0  0  0  0  0  0  0  0  # atno 16466 bound_to 2070
    1.8103  -16.5124   20.1739 LP  0  0  0  0  0  0  0  0  0  0  0  0  # atno 16467 bound_to 2070
    2.0173  -18.5633   20.2663 LP  0  0  0  0  0  0  0  0  0  0  0  0  # atno 16468 bound_to 2117
   -4.0217  -10.9750   13.4432 LP  0  0  0  0  0  0  0  0  0  0  0  0  # atno 16469 bound_to 5617
   -7.2320  -12.4185   17.5130 LP  0  0  0  0  0  0  0  0  0  0  0  0  # atno 16474 bound_to 7834
   -7.9070  -13.6885   18.4780 LP  0  0  0  0  0  0  0  0  0  0  0  0  # atno 16475 bound_to 7834
  -11.0535  -12.6758   17.7985 LP  0  0  0  0  0  0  0  0  0  0  0  0  # atno 16476 bound_to 7874
  -11.0022  -16.4702   15.6707 LP  0  0  0  0  0  0  0  0  0  0  0  0  # atno 16477 bound_to 7877
   -9.8077  -16.1629   14.4547 LP  0  0  0  0  0  0  0  0  0  0  0  0  # atno 16478 bound_to 7877
  -10.5156  -14.3718   15.5033 LP  0  0  0  0  0  0  0  0  0  0  0  0  # atno 16479 bound_to 7916
   -8.2438  -17.6902   16.8734 LP  0  0  0  0  0  0  0  0  0  0  0  0  # atno 16480 bound_to 8469
   -8.3487  -17.3201   15.2864 LP  0  0  0  0  0  0  0  0  0  0  0  0  # atno 16481 bound_to 8469
   -1.8594   -9.2458   22.0192 LP  0  0  0  0  0  0  0  0  0  0  0  0  # atno 16484 bound_to 15466
   -2.0678  -10.8540   21.8273 LP  0  0  0  0  0  0  0  0  0  0  0  0  # atno 16485 bound_to 15466
   -8.0515  -11.8135   13.6086 LP  0  0  0  0  0  0  0  0  0  0  0  0  # atno 16486 bound_to 7919
   -9.0162  -11.4002   12.2307 LP  0  0  0  0  0  0  0  0  0  0  0  0  # atno 16487 bound_to 7919
   -8.3714  -14.3888   13.1350 LP  0  0  0  0  0  0  0  0  0  0  0  0  # atno 16488 bound_to 7973
  -10.0113  -18.0196   14.5080 LP  0  0  0  0  0  0  0  0  0  0  0  0  # atno 16489 bound_to 8463
  -10.8565  -18.2972   17.7148 LP  0  0  0  0  0  0  0  0  0  0  0  0  # atno 16490 bound_to 8466
  -11.4864  -18.7369   16.1624 LP  0  0  0  0  0  0  0  0  0  0  0  0  # atno 16491 bound_to 8466
   -8.3703  -20.4204   17.4739 LP  0  0  0  0  0  0  0  0  0  0  0  0  # atno 16492 bound_to 8507
    0.6267  -23.8115   15.1317 LP  0  0  0  0  0  0  0  0  0  0  0  0  # atno 16495 bound_to 2717
   -0.5248  -23.0743   16.1950 LP  0  0  0  0  0  0  0  0  0  0  0  0  # atno 16496 bound_to 2717
    0.2332  -22.5989   19.0584 LP  0  0  0  0  0  0  0  0  0  0  0  0  # atno 16497 bound_to 2803
   -0.6777  -13.7614   10.8871 LP  0  0  0  0  0  0  0  0  0  0  0  0  # atno 16498 bound_to 5484
   -1.5511  -15.1093   11.5354 LP  0  0  0  0  0  0  0  0  0  0  0  0  # atno 16499 bound_to 5484
    3.9174  -20.1928   16.3619 LP  0  0  0  0  0  0  0  0  0  0  0  0  # atno 16500 bound_to 2120
    3.2951  -20.7674   17.8728 LP  0  0  0  0  0  0  0  0  0  0  0  0  # atno 16501 bound_to 2120
    4.5992  -18.8600   17.8603 LP  0  0  0  0  0  0  0  0  0  0  0  0  # atno 16502 bound_to 2168
    2.2151  -22.5194   13.7875 LP  0  0  0  0  0  0  0  0  0  0  0  0  # atno 16503 bound_to 2714
    2.4770  -22.3048   16.3223 LP  0  0  0  0  0  0  0  0  0  0  0  0  # atno 16504 bound_to 2750
    1.5029  -21.2750   20.4376 LP  0  0  0  0  0  0  0  0  0  0  0  0  # atno 16505 bound_to 2753
    2.8313  -22.3862   20.4616 LP  0  0  0  0  0  0  0  0  0  0  0  0  # atno 16506 bound_to 2753
   -1.6239  -20.9389   12.2214 LP  0  0  0  0  0  0  0  0  0  0  0  0  # atno 16507 bound_to 5380
   -2.3993  -20.4761   10.7434 LP  0  0  0  0  0  0  0  0  0  0  0  0  # atno 16508 bound_to 5380
   -0.7400  -18.6049    9.9826 LP  0  0  0  0  0  0  0  0  0  0  0  0  # atno 16509 bound_to 5481
    5.1529  -12.5071   20.7612 LP  0  0  0  0  0  0  0  0  0  0  0  0  # atno 16510 bound_to 1701
    3.9627  -12.4673   19.5035 LP  0  0  0  0  0  0  0  0  0  0  0  0  # atno 16511 bound_to 1701
   -1.8367  -10.3923   10.2897 LP  0  0  0  0  0  0  0  0  0  0  0  0  # atno 16512 bound_to 5586
   -4.4682  -11.1374   10.5496 LP  0  0  0  0  0  0  0  0  0  0  0  0  # atno 16513 bound_to 5589
   -5.8241  -11.2050   11.6252 LP  0  0  0  0  0  0  0  0  0  0  0  0  # atno 16514 bound_to 5589
    4.8497  -21.3053   14.4285 LP  0  0  0  0  0  0  0  0  0  0  0  0  # atno 16515 bound_to 2668
    3.9144  -19.8653   14.2013 LP  0  0  0  0  0  0  0  0  0  0  0  0  # atno 16516 bound_to 2668
    0.4185  -22.4559   12.3810 LP  0  0  0  0  0  0  0  0  0  0  0  0  # atno 16517 bound_to 5327
    1.0694  -24.0479   12.5860 LP  0  0  0  0  0  0  0  0  0  0  0  0  # atno 16518 bound_to 5327
    0.9184  -21.4275    9.6181 LP  0  0  0  0  0  0  0  0  0  0  0  0  # atno 16519 bound_to 5428
   -1.2302  -18.8566    8.0771 LP  0  0  0  0  0  0  0  0  0  0  0  0  # atno 16520 bound_to 5431
    0.4198  -19.3799    8.0143 LP  0  0  0  0  0  0  0  0  0  0  0  0  # atno 16521 bound_to 5431
    2.7395  -13.2194   11.5691 LP  0  0  0  0  0  0  0  0  0  0  0  0  # atno 16522 bound_to 5439
    4.1998  -13.4593   10.8787 LP  0  0  0  0  0  0  0  0  0  0  0  0  # atno 16523 bound_to 5439
    0.8279  -10.4813    9.3567 LP  0  0  0  0  0  0  0  0  0  0  0  0  # atno 16525 bound_to 5532
    1.2935  -11.6187   10.5771 LP  0  0  0  0  0  0  0  0  0  0  0  0  # atno 16526 bound_to 5532
   -1.0735  -12.7446    7.8446 LP  0  0  0  0  0  0  0  0  0  0  0  0  # atno 16527 bound_to 5565
   -0.8740  -24.6463   11.3618 LP  0  0  0  0  0  0  0  0  0  0  0  0  # atno 16528 bound_to 5377
   -5.5767  -12.6796   10.0384 LP  0  0  0  0  0  0  0  0  0  0  0  0  # atno 16529 bound_to 8030
   -3.7727  -11.7036    7.3261 LP  0  0  0  0  0  0  0  0  0  0  0  0  # atno 16530 bound_to 8033
   -3.6605  -13.0331    8.4305 LP  0  0  0  0  0  0  0  0  0  0  0  0  # atno 16531 bound_to 8033
    5.5087  -22.5586   11.4470 LP  0  0  0  0  0  0  0  0  0  0  0  0  # atno 16532 bound_to 2665
    0.0109  -24.2566   14.7557 LP  0  0  0  0  0  0  0  0  0  0  0  0  # atno 16533 bound_to 5324
   -8.4767  -16.4557   11.5288 LP  0  0  0  0  0  0  0  0  0  0  0  0  # atno 16534 bound_to 8371
  -10.0324  -16.5483   12.2847 LP  0  0  0  0  0  0  0  0  0  0  0  0  # atno 16535 bound_to 8371
   -4.3349  -25.2305   12.2078 LP  0  0  0  0  0  0  0  0  0  0  0  0  # atno 16536 bound_to 4570
   -3.3452  -25.5353   10.8194 LP  0  0  0  0  0  0  0  0  0  0  0  0  # atno 16537 bound_to 4570
   -9.5788  -23.2242   10.8333 LP  0  0  0  0  0  0  0  0  0  0  0  0  # atno 16538 bound_to 4515
   -7.7144  -25.9250   11.8385 LP  0  0  0  0  0  0  0  0  0  0  0  0  # atno 16539 bound_to 4518
   -9.0800  -25.0008   11.3085 LP  0  0  0  0  0  0  0  0  0  0  0  0  # atno 16540 bound_to 4518
   -6.4670  -24.3973    8.9247 LP  0  0  0  0  0  0  0  0  0  0  0  0  # atno 16541 bound_to 4567
   -0.0054  -25.3092   19.0460 LP  0  0  0  0  0  0  0  0  0  0  0  0  # atno 16542 bound_to 5228
   -1.1268  -24.8010   17.8277 LP  0  0  0  0  0  0  0  0  0  0  0  0  # atno 16543 bound_to 5228
   -1.0746  -26.9978   13.1149 LP  0  0  0  0  0  0  0  0  0  0  0  0  # atno 16544 bound_to 5277
   -0.7994  -28.0815   14.4378 LP  0  0  0  0  0  0  0  0  0  0  0  0  # atno 16545 bound_to 5277
  -10.1952  -20.9720   11.9798 LP  0  0  0  0  0  0  0  0  0  0  0  0  # atno 16548 bound_to 8418
   -9.7665  -21.3662   13.6111 LP  0  0  0  0  0  0  0  0  0  0  0  0  # atno 16549 bound_to 8418
   -1.2399  -26.9055   17.1448 LP  0  0  0  0  0  0  0  0  0  0  0  0  # atno 16550 bound_to 5274
   -0.0494  -21.1330   22.6168 LP  0  0  0  0  0  0  0  0  0  0  0  0  # atno 16551 bound_to 2006
    0.9552  -21.2951   24.0184 LP  0  0  0  0  0  0  0  0  0  0  0  0  # atno 16552 bound_to 2006
  -10.4749  -22.2503   20.0357 LP  0  0  0  0  0  0  0  0  0  0  0  0  # atno 16555 bound_to 8549
   -2.9836  -13.2701   25.7422 LP  0  0  0  0  0  0  0  0  0  0  0  0  # atno 16556 bound_to 1821
   -3.6930  -13.6863   27.2665 LP  0  0  0  0  0  0  0  0  0  0  0  0  # atno 16557 bound_to 1821
   -2.0661  -16.7563   27.1569 LP  0  0  0  0  0  0  0  0  0  0  0  0  # atno 16558 bound_to 1854

> <Gold.Score>
     Fitness  S(hb_ext) S(vdw_ext)  S(hb_int)    S(int)      intcor
     26.90       5.89      15.97       0.00      -0.95      -0.76

> <Gold.Goldscore.Fitness>
26.8989

> <Gold.Goldscore.Internal.Vdw>
-1.0950

> <Gold.Goldscore.Internal.Torsion>
-0.6207

> <Gold.Goldscore.External.Vdw>
15.9698

> <Gold.Goldscore.Internal.HBond>
0.0000

> <Gold.Goldscore.External.HBond>
5.8911

> <Gold.Goldscore.Internal.Correction>
-0.7650

> <Gold.Goldscore.Hbonds>
donor molecule, donor type, donor heavy atom, donor atom, acceptor molecule, acceptor atom, score
      L1  H    10    23       P1  7881  0.98

> <Gold.Goldscore.Internal.Vdw.Weighted>
-1.0950

> <Gold.Goldscore.Internal.Torsion.Weighted>
-0.6207

> <Gold.Goldscore.External.Vdw.Weighted>
21.9585

> <Gold.Goldscore.Internal.HBond.Weighted>
0.0000

> <Gold.Goldscore.External.HBond.Weighted>
5.8911

> <Gold.Goldscore.Internal.Correction.Weighted>
-0.7650

> <Gold.Rescore>
     Score     S(PLP)   S(hbond)     S(cho)   S(metal)  DE(clash)   DE(tors)     intcor
     33.91     -33.71       0.90       0.00       0.00       2.00       0.24       ----

> <Gold.PLP.Fitness>
33.9100

> <Gold.PLP.PLP>
-33.7095

> <Gold.PLP.part.hbond>
-3.0000

> <Gold.PLP.part.metal>
0.0000

> <Gold.PLP.part.buried>
-5.0200

> <Gold.PLP.part.nonpolar>
-26.6758

> <Gold.PLP.part.repulsive>
0.5345

> <Gold.PLP.ligand.clash>
2.0026

> <Gold.PLP.ligand.torsion>
0.2425

> <Gold.PLP.Chemscore.Hbond>
0.8960

> <Gold.PLP.Chemscore.CHOScore>
0.0000

> <Gold.PLP.Chemscore.Metal>
0.0000

> <Gold.Chemscore.Hbonds>
donor molecule, donor type, donor heavy atom, donor atom, acceptor molecule, acceptor atom, score
      L1  H    10    23       P1  7881  1.00

> <Gold.PLP.Chemscore.Internal.Correction>
   9.000000E+99

