#       Name:                GA Fitting Points
#       Creating user name   hitesit
#       Creation time:       Sun Apr 16 22:50:42 2023


#       Fitting Points Used by GA Software.
#

@<TRIPOS>MOLECULE
GA Fitting Points
  4488    0    0
SMALL
NO_CHARGES


@<TRIPOS>ATOM
      1 ****       -10.7500 -19.7500  24.5000 Du        
      2 ****       -10.7500 -19.5000  24.2500 Du        
      3 ****       -10.7500 -19.5000  24.5000 Du        
      4 ****       -10.7500 -19.2500  24.2500 Du        
      5 ****       -10.7500 -19.2500  24.5000 Du        
      6 ****       -10.7500 -19.0000  24.5000 Du        
      7 ****       -10.7500 -18.7500  24.5000 Du        
      8 ****       -10.7500 -18.5000  24.5000 Du        
      9 ****       -10.7500 -17.0000  24.5000 Du        
     10 ****       -10.7500 -16.7500  24.5000 Du        
     11 ****       -10.7500 -16.5000  24.2500 Du        
     12 ****       -10.7500 -16.5000  24.5000 Du        
     13 ****       -10.7500 -16.2500  24.2500 Du        
     14 ****       -10.7500 -16.2500  24.5000 Du        
     15 ****       -10.7500 -16.0000  24.5000 Du        
     16 ****       -10.5000 -19.7500  24.5000 Du        
     17 ****       -10.5000 -19.5000  24.5000 Du        
     18 ****       -10.5000 -19.2500  24.5000 Du        
     19 ****       -10.5000 -19.0000  24.5000 Du        
     20 ****       -10.5000 -18.7500  24.5000 Du        
     21 ****       -10.5000 -17.0000  24.5000 Du        
     22 ****       -10.5000 -16.7500  24.5000 Du        
     23 ****       -10.5000 -16.5000  24.2500 Du        
     24 ****       -10.5000 -16.5000  24.5000 Du        
     25 ****       -10.5000 -16.2500  24.2500 Du        
     26 ****       -10.5000 -16.2500  24.5000 Du        
     27 ****       -10.2500 -20.0000  24.7500 Du        
     28 ****       -10.2500 -20.0000  25.0000 Du        
     29 ****       -10.2500 -19.7500  24.5000 Du        
     30 ****       -10.2500 -19.7500  24.7500 Du        
     31 ****       -10.2500 -19.7500  25.0000 Du        
     32 ****       -10.2500 -19.5000  24.5000 Du        
     33 ****       -10.2500 -19.5000  24.7500 Du        
     34 ****       -10.2500 -19.5000  25.0000 Du        
     35 ****       -10.2500 -19.2500  24.5000 Du        
     36 ****       -10.2500 -19.2500  24.7500 Du        
     37 ****       -10.2500 -19.2500  25.0000 Du        
     38 ****       -10.2500 -19.0000  24.5000 Du        
     39 ****       -10.2500 -19.0000  24.7500 Du        
     40 ****       -10.2500 -19.0000  25.0000 Du        
     41 ****       -10.2500 -18.7500  24.7500 Du        
     42 ****       -10.2500 -18.2500  24.7500 Du        
     43 ****       -10.2500 -17.2500  24.7500 Du        
     44 ****       -10.2500 -17.0000  24.5000 Du        
     45 ****       -10.2500 -17.0000  24.7500 Du        
     46 ****       -10.2500 -17.0000  25.0000 Du        
     47 ****       -10.2500 -16.7500  24.5000 Du        
     48 ****       -10.2500 -16.7500  24.7500 Du        
     49 ****       -10.2500 -16.7500  25.0000 Du        
     50 ****       -10.2500 -16.5000  24.5000 Du        
     51 ****       -10.2500 -16.5000  24.7500 Du        
     52 ****       -10.2500 -16.5000  25.0000 Du        
     53 ****       -10.2500 -16.2500  24.2500 Du        
     54 ****       -10.2500 -16.2500  24.5000 Du        
     55 ****       -10.2500 -16.2500  24.7500 Du        
     56 ****       -10.2500 -16.2500  25.0000 Du        
     57 ****       -10.2500 -16.0000  24.2500 Du        
     58 ****       -10.2500 -16.0000  24.7500 Du        
     59 ****       -10.2500 -16.0000  25.0000 Du        
     60 ****       -10.0000 -20.0000  24.7500 Du        
     61 ****       -10.0000 -20.0000  25.0000 Du        
     62 ****       -10.0000 -19.7500  24.7500 Du        
     63 ****       -10.0000 -19.7500  25.0000 Du        
     64 ****       -10.0000 -19.5000  24.7500 Du        
     65 ****       -10.0000 -19.2500  24.7500 Du        
     66 ****       -10.0000 -16.7500  24.7500 Du        
     67 ****       -10.0000 -16.5000  24.5000 Du        
     68 ****       -10.0000 -16.5000  24.7500 Du        
     69 ****       -10.0000 -16.2500  24.2500 Du        
     70 ****       -10.0000 -16.2500  24.5000 Du        
     71 ****       -10.0000 -16.2500  24.7500 Du        
     72 ****       -10.0000 -16.2500  25.0000 Du        
     73 ****       -10.0000 -16.0000  24.2500 Du        
     74 ****        -9.7500 -20.2500  25.0000 Du        
     75 ****        -9.7500 -20.0000  24.7500 Du        
     76 ****        -9.7500 -20.0000  25.0000 Du        
     77 ****        -9.7500 -19.7500  24.7500 Du        
     78 ****        -9.7500 -16.0000  24.2500 Du        
     79 ****        -8.7500 -22.0000  25.5000 Du        
     80 ****        -7.2500 -23.5000  18.5000 Du        
     81 ****        -7.2500 -23.2500  18.2500 Du        
     82 ****        -7.2500 -23.2500  18.5000 Du        
     83 ****        -7.2500 -23.2500  18.7500 Du        
     84 ****        -7.2500 -23.0000  18.2500 Du        
     85 ****        -7.2500 -23.0000  18.5000 Du        
     86 ****        -7.0000 -23.7500  18.7500 Du        
     87 ****        -7.0000 -23.5000  18.5000 Du        
     88 ****        -7.0000 -23.5000  18.7500 Du        
     89 ****        -7.0000 -23.2500  18.2500 Du        
     90 ****        -7.0000 -23.2500  18.5000 Du        
     91 ****        -7.0000 -23.2500  18.7500 Du        
     92 ****        -7.0000 -23.0000  18.0000 Du        
     93 ****        -7.0000 -23.0000  18.2500 Du        
     94 ****        -7.0000 -23.0000  18.5000 Du        
     95 ****        -7.0000 -23.0000  18.7500 Du        
     96 ****        -7.0000 -22.7500  18.2500 Du        
     97 ****        -7.0000 -22.7500  18.5000 Du        
     98 ****        -7.0000 -22.7500  18.7500 Du        
     99 ****        -7.0000 -16.7500  19.2500 Du        
    100 ****        -7.0000 -16.7500  19.5000 Du        
    101 ****        -7.0000 -16.7500  19.7500 Du        
    102 ****        -7.0000 -16.5000  19.0000 Du        
    103 ****        -7.0000 -16.5000  19.2500 Du        
    104 ****        -7.0000 -16.5000  19.5000 Du        
    105 ****        -7.0000 -16.5000  19.7500 Du        
    106 ****        -7.0000 -16.2500  19.0000 Du        
    107 ****        -7.0000 -16.2500  19.2500 Du        
    108 ****        -7.0000 -16.2500  19.5000 Du        
    109 ****        -7.0000 -16.2500  19.7500 Du        
    110 ****        -7.0000 -16.2500  20.0000 Du        
    111 ****        -7.0000 -16.0000  19.0000 Du        
    112 ****        -7.0000 -16.0000  19.2500 Du        
    113 ****        -6.7500 -23.7500  18.7500 Du        
    114 ****        -6.7500 -23.5000  18.5000 Du        
    115 ****        -6.7500 -23.5000  18.7500 Du        
    116 ****        -6.7500 -23.2500  18.2500 Du        
    117 ****        -6.7500 -23.2500  18.5000 Du        
    118 ****        -6.7500 -23.2500  18.7500 Du        
    119 ****        -6.7500 -23.2500  19.0000 Du        
    120 ****        -6.7500 -23.0000  18.2500 Du        
    121 ****        -6.7500 -23.0000  18.5000 Du        
    122 ****        -6.7500 -23.0000  18.7500 Du        
    123 ****        -6.7500 -23.0000  19.0000 Du        
    124 ****        -6.7500 -22.7500  18.2500 Du        
    125 ****        -6.7500 -22.7500  18.5000 Du        
    126 ****        -6.7500 -22.7500  18.7500 Du        
    127 ****        -6.7500 -22.7500  19.0000 Du        
    128 ****        -6.7500 -22.5000  18.2500 Du        
    129 ****        -6.7500 -22.5000  18.5000 Du        
    130 ****        -6.7500 -22.5000  18.7500 Du        
    131 ****        -6.7500 -22.5000  19.0000 Du        
    132 ****        -6.7500 -22.2500  18.7500 Du        
    133 ****        -6.7500 -22.2500  19.0000 Du        
    134 ****        -6.7500 -17.2500  19.2500 Du        
    135 ****        -6.7500 -17.2500  19.5000 Du        
    136 ****        -6.7500 -17.2500  19.7500 Du        
    137 ****        -6.7500 -17.0000  19.0000 Du        
    138 ****        -6.7500 -17.0000  19.2500 Du        
    139 ****        -6.7500 -17.0000  19.5000 Du        
    140 ****        -6.7500 -17.0000  19.7500 Du        
    141 ****        -6.7500 -17.0000  20.0000 Du        
    142 ****        -6.7500 -16.7500  19.0000 Du        
    143 ****        -6.7500 -16.7500  19.2500 Du        
    144 ****        -6.7500 -16.7500  19.5000 Du        
    145 ****        -6.7500 -16.7500  19.7500 Du        
    146 ****        -6.7500 -16.7500  20.0000 Du        
    147 ****        -6.7500 -16.7500  20.2500 Du        
    148 ****        -6.7500 -16.5000  18.7500 Du        
    149 ****        -6.7500 -16.5000  19.0000 Du        
    150 ****        -6.7500 -16.5000  19.2500 Du        
    151 ****        -6.7500 -16.5000  19.5000 Du        
    152 ****        -6.7500 -16.5000  19.7500 Du        
    153 ****        -6.7500 -16.5000  20.0000 Du        
    154 ****        -6.7500 -16.2500  18.5000 Du        
    155 ****        -6.7500 -16.2500  18.7500 Du        
    156 ****        -6.7500 -16.2500  19.0000 Du        
    157 ****        -6.7500 -16.2500  19.2500 Du        
    158 ****        -6.7500 -16.2500  19.5000 Du        
    159 ****        -6.7500 -16.2500  19.7500 Du        
    160 ****        -6.7500 -16.2500  20.0000 Du        
    161 ****        -6.7500 -16.2500  20.2500 Du        
    162 ****        -6.7500 -16.0000  18.5000 Du        
    163 ****        -6.7500 -16.0000  18.7500 Du        
    164 ****        -6.7500 -16.0000  19.0000 Du        
    165 ****        -6.7500 -16.0000  19.2500 Du        
    166 ****        -6.7500 -16.0000  19.5000 Du        
    167 ****        -6.7500 -16.0000  19.7500 Du        
    168 ****        -6.7500 -16.0000  20.0000 Du        
    169 ****        -6.7500 -16.0000  20.2500 Du        
    170 ****        -6.7500 -15.7500  18.7500 Du        
    171 ****        -6.7500 -15.7500  19.0000 Du        
    172 ****        -6.7500 -15.7500  19.2500 Du        
    173 ****        -6.7500 -15.7500  19.5000 Du        
    174 ****        -6.7500 -15.7500  19.7500 Du        
    175 ****        -6.7500 -15.7500  20.0000 Du        
    176 ****        -6.7500 -15.7500  20.2500 Du        
    177 ****        -6.7500 -15.5000  19.0000 Du        
    178 ****        -6.7500 -15.5000  19.2500 Du        
    179 ****        -6.5000 -23.7500  18.7500 Du        
    180 ****        -6.5000 -23.5000  18.7500 Du        
    181 ****        -6.5000 -23.2500  18.5000 Du        
    182 ****        -6.5000 -23.2500  18.7500 Du        
    183 ****        -6.5000 -23.0000  18.5000 Du        
    184 ****        -6.5000 -23.0000  18.7500 Du        
    185 ****        -6.5000 -23.0000  19.0000 Du        
    186 ****        -6.5000 -22.7500  18.5000 Du        
    187 ****        -6.5000 -22.7500  18.7500 Du        
    188 ****        -6.5000 -22.7500  19.0000 Du        
    189 ****        -6.5000 -22.5000  18.5000 Du        
    190 ****        -6.5000 -22.5000  18.7500 Du        
    191 ****        -6.5000 -22.5000  19.0000 Du        
    192 ****        -6.5000 -22.2500  18.5000 Du        
    193 ****        -6.5000 -22.2500  18.7500 Du        
    194 ****        -6.5000 -22.2500  19.0000 Du        
    195 ****        -6.5000 -22.0000  18.7500 Du        
    196 ****        -6.5000 -22.0000  19.0000 Du        
    197 ****        -6.5000 -21.7500  19.0000 Du        
    198 ****        -6.5000 -19.5000  19.2500 Du        
    199 ****        -6.5000 -19.5000  19.5000 Du        
    200 ****        -6.5000 -19.2500  19.2500 Du        
    201 ****        -6.5000 -19.2500  19.5000 Du        
    202 ****        -6.5000 -19.2500  19.7500 Du        
    203 ****        -6.5000 -19.0000  19.2500 Du        
    204 ****        -6.5000 -19.0000  19.5000 Du        
    205 ****        -6.5000 -19.0000  19.7500 Du        
    206 ****        -6.5000 -18.7500  19.2500 Du        
    207 ****        -6.5000 -18.7500  19.5000 Du        
    208 ****        -6.5000 -18.7500  19.7500 Du        
    209 ****        -6.5000 -18.5000  19.2500 Du        
    210 ****        -6.5000 -18.5000  19.5000 Du        
    211 ****        -6.5000 -18.5000  19.7500 Du        
    212 ****        -6.5000 -18.2500  19.0000 Du        
    213 ****        -6.5000 -18.2500  19.2500 Du        
    214 ****        -6.5000 -18.2500  19.5000 Du        
    215 ****        -6.5000 -18.2500  19.7500 Du        
    216 ****        -6.5000 -18.2500  20.0000 Du        
    217 ****        -6.5000 -18.0000  19.0000 Du        
    218 ****        -6.5000 -18.0000  19.2500 Du        
    219 ****        -6.5000 -18.0000  19.5000 Du        
    220 ****        -6.5000 -18.0000  19.7500 Du        
    221 ****        -6.5000 -18.0000  20.0000 Du        
    222 ****        -6.5000 -17.7500  19.0000 Du        
    223 ****        -6.5000 -17.7500  19.2500 Du        
    224 ****        -6.5000 -17.7500  19.5000 Du        
    225 ****        -6.5000 -17.7500  19.7500 Du        
    226 ****        -6.5000 -17.7500  20.0000 Du        
    227 ****        -6.5000 -17.7500  20.2500 Du        
    228 ****        -6.5000 -17.5000  19.0000 Du        
    229 ****        -6.5000 -17.5000  19.2500 Du        
    230 ****        -6.5000 -17.5000  19.5000 Du        
    231 ****        -6.5000 -17.5000  19.7500 Du        
    232 ****        -6.5000 -17.5000  20.0000 Du        
    233 ****        -6.5000 -17.2500  19.0000 Du        
    234 ****        -6.5000 -17.2500  19.2500 Du        
    235 ****        -6.5000 -17.2500  19.5000 Du        
    236 ****        -6.5000 -17.2500  19.7500 Du        
    237 ****        -6.5000 -17.2500  20.0000 Du        
    238 ****        -6.5000 -17.2500  20.2500 Du        
    239 ****        -6.5000 -17.0000  18.7500 Du        
    240 ****        -6.5000 -17.0000  19.0000 Du        
    241 ****        -6.5000 -17.0000  19.2500 Du        
    242 ****        -6.5000 -17.0000  19.5000 Du        
    243 ****        -6.5000 -17.0000  19.7500 Du        
    244 ****        -6.5000 -17.0000  20.0000 Du        
    245 ****        -6.5000 -17.0000  20.2500 Du        
    246 ****        -6.5000 -16.7500  18.7500 Du        
    247 ****        -6.5000 -16.7500  19.0000 Du        
    248 ****        -6.5000 -16.7500  19.2500 Du        
    249 ****        -6.5000 -16.7500  19.5000 Du        
    250 ****        -6.5000 -16.7500  19.7500 Du        
    251 ****        -6.5000 -16.7500  20.0000 Du        
    252 ****        -6.5000 -16.7500  20.2500 Du        
    253 ****        -6.5000 -16.5000  18.5000 Du        
    254 ****        -6.5000 -16.5000  18.7500 Du        
    255 ****        -6.5000 -16.5000  19.0000 Du        
    256 ****        -6.5000 -16.5000  19.2500 Du        
    257 ****        -6.5000 -16.5000  19.5000 Du        
    258 ****        -6.5000 -16.5000  19.7500 Du        
    259 ****        -6.5000 -16.5000  20.0000 Du        
    260 ****        -6.5000 -16.5000  20.2500 Du        
    261 ****        -6.5000 -16.2500  18.2500 Du        
    262 ****        -6.5000 -16.2500  18.5000 Du        
    263 ****        -6.5000 -16.2500  18.7500 Du        
    264 ****        -6.5000 -16.2500  19.0000 Du        
    265 ****        -6.5000 -16.2500  19.2500 Du        
    266 ****        -6.5000 -16.2500  19.5000 Du        
    267 ****        -6.5000 -16.2500  19.7500 Du        
    268 ****        -6.5000 -16.2500  20.0000 Du        
    269 ****        -6.5000 -16.2500  20.2500 Du        
    270 ****        -6.5000 -16.0000  18.2500 Du        
    271 ****        -6.5000 -16.0000  18.5000 Du        
    272 ****        -6.5000 -16.0000  18.7500 Du        
    273 ****        -6.5000 -16.0000  19.0000 Du        
    274 ****        -6.5000 -16.0000  19.2500 Du        
    275 ****        -6.5000 -16.0000  19.5000 Du        
    276 ****        -6.5000 -16.0000  19.7500 Du        
    277 ****        -6.5000 -16.0000  20.0000 Du        
    278 ****        -6.5000 -16.0000  20.2500 Du        
    279 ****        -6.5000 -15.7500  18.0000 Du        
    280 ****        -6.5000 -15.7500  18.2500 Du        
    281 ****        -6.5000 -15.7500  18.5000 Du        
    282 ****        -6.5000 -15.7500  18.7500 Du        
    283 ****        -6.5000 -15.7500  19.0000 Du        
    284 ****        -6.5000 -15.7500  19.2500 Du        
    285 ****        -6.5000 -15.7500  19.5000 Du        
    286 ****        -6.5000 -15.7500  19.7500 Du        
    287 ****        -6.5000 -15.7500  20.0000 Du        
    288 ****        -6.5000 -15.7500  20.2500 Du        
    289 ****        -6.5000 -15.5000  18.2500 Du        
    290 ****        -6.5000 -15.5000  18.5000 Du        
    291 ****        -6.5000 -15.5000  18.7500 Du        
    292 ****        -6.5000 -15.5000  19.0000 Du        
    293 ****        -6.5000 -15.5000  19.2500 Du        
    294 ****        -6.5000 -15.5000  19.5000 Du        
    295 ****        -6.5000 -15.5000  19.7500 Du        
    296 ****        -6.5000 -15.2500  19.2500 Du        
    297 ****        -6.5000 -15.2500  19.7500 Du        
    298 ****        -6.2500 -22.7500  18.7500 Du        
    299 ****        -6.2500 -22.5000  18.7500 Du        
    300 ****        -6.2500 -22.2500  18.5000 Du        
    301 ****        -6.2500 -22.2500  18.7500 Du        
    302 ****        -6.2500 -22.2500  19.0000 Du        
    303 ****        -6.2500 -22.0000  18.5000 Du        
    304 ****        -6.2500 -22.0000  18.7500 Du        
    305 ****        -6.2500 -22.0000  19.0000 Du        
    306 ****        -6.2500 -21.7500  18.5000 Du        
    307 ****        -6.2500 -21.7500  18.7500 Du        
    308 ****        -6.2500 -21.7500  19.0000 Du        
    309 ****        -6.2500 -21.5000  18.7500 Du        
    310 ****        -6.2500 -21.5000  19.0000 Du        
    311 ****        -6.2500 -21.2500  18.7500 Du        
    312 ****        -6.2500 -21.2500  19.0000 Du        
    313 ****        -6.2500 -21.2500  19.2500 Du        
    314 ****        -6.2500 -21.0000  18.7500 Du        
    315 ****        -6.2500 -21.0000  19.0000 Du        
    316 ****        -6.2500 -21.0000  19.2500 Du        
    317 ****        -6.2500 -20.7500  19.0000 Du        
    318 ****        -6.2500 -20.7500  19.2500 Du        
    319 ****        -6.2500 -20.5000  19.0000 Du        
    320 ****        -6.2500 -20.5000  19.2500 Du        
    321 ****        -6.2500 -20.2500  19.0000 Du        
    322 ****        -6.2500 -20.2500  19.2500 Du        
    323 ****        -6.2500 -20.2500  19.5000 Du        
    324 ****        -6.2500 -20.0000  19.0000 Du        
    325 ****        -6.2500 -20.0000  19.2500 Du        
    326 ****        -6.2500 -20.0000  19.5000 Du        
    327 ****        -6.2500 -19.7500  19.0000 Du        
    328 ****        -6.2500 -19.7500  19.2500 Du        
    329 ****        -6.2500 -19.7500  19.5000 Du        
    330 ****        -6.2500 -19.7500  19.7500 Du        
    331 ****        -6.2500 -19.5000  19.0000 Du        
    332 ****        -6.2500 -19.5000  19.2500 Du        
    333 ****        -6.2500 -19.5000  19.5000 Du        
    334 ****        -6.2500 -19.5000  19.7500 Du        
    335 ****        -6.2500 -19.2500  19.0000 Du        
    336 ****        -6.2500 -19.2500  19.2500 Du        
    337 ****        -6.2500 -19.2500  19.5000 Du        
    338 ****        -6.2500 -19.2500  19.7500 Du        
    339 ****        -6.2500 -19.2500  20.0000 Du        
    340 ****        -6.2500 -19.0000  19.0000 Du        
    341 ****        -6.2500 -19.0000  19.2500 Du        
    342 ****        -6.2500 -19.0000  19.5000 Du        
    343 ****        -6.2500 -19.0000  19.7500 Du        
    344 ****        -6.2500 -19.0000  20.0000 Du        
    345 ****        -6.2500 -19.0000  20.2500 Du        
    346 ****        -6.2500 -18.7500  19.0000 Du        
    347 ****        -6.2500 -18.7500  19.2500 Du        
    348 ****        -6.2500 -18.7500  19.5000 Du        
    349 ****        -6.2500 -18.7500  19.7500 Du        
    350 ****        -6.2500 -18.7500  20.0000 Du        
    351 ****        -6.2500 -18.7500  20.2500 Du        
    352 ****        -6.2500 -18.5000  18.7500 Du        
    353 ****        -6.2500 -18.5000  19.0000 Du        
    354 ****        -6.2500 -18.5000  19.2500 Du        
    355 ****        -6.2500 -18.5000  19.5000 Du        
    356 ****        -6.2500 -18.5000  19.7500 Du        
    357 ****        -6.2500 -18.5000  20.0000 Du        
    358 ****        -6.2500 -18.5000  20.2500 Du        
    359 ****        -6.2500 -18.2500  18.7500 Du        
    360 ****        -6.2500 -18.2500  19.0000 Du        
    361 ****        -6.2500 -18.2500  19.2500 Du        
    362 ****        -6.2500 -18.2500  19.5000 Du        
    363 ****        -6.2500 -18.2500  19.7500 Du        
    364 ****        -6.2500 -18.2500  20.0000 Du        
    365 ****        -6.2500 -18.2500  20.2500 Du        
    366 ****        -6.2500 -18.2500  23.2500 Du        
    367 ****        -6.2500 -18.0000  18.7500 Du        
    368 ****        -6.2500 -18.0000  19.0000 Du        
    369 ****        -6.2500 -18.0000  19.2500 Du        
    370 ****        -6.2500 -18.0000  19.5000 Du        
    371 ****        -6.2500 -18.0000  19.7500 Du        
    372 ****        -6.2500 -18.0000  20.0000 Du        
    373 ****        -6.2500 -18.0000  20.2500 Du        
    374 ****        -6.2500 -18.0000  23.0000 Du        
    375 ****        -6.2500 -18.0000  23.2500 Du        
    376 ****        -6.2500 -17.7500  18.7500 Du        
    377 ****        -6.2500 -17.7500  19.0000 Du        
    378 ****        -6.2500 -17.7500  19.2500 Du        
    379 ****        -6.2500 -17.7500  19.5000 Du        
    380 ****        -6.2500 -17.7500  19.7500 Du        
    381 ****        -6.2500 -17.7500  20.0000 Du        
    382 ****        -6.2500 -17.7500  20.2500 Du        
    383 ****        -6.2500 -17.5000  18.7500 Du        
    384 ****        -6.2500 -17.5000  19.0000 Du        
    385 ****        -6.2500 -17.5000  19.2500 Du        
    386 ****        -6.2500 -17.5000  19.5000 Du        
    387 ****        -6.2500 -17.5000  19.7500 Du        
    388 ****        -6.2500 -17.5000  20.0000 Du        
    389 ****        -6.2500 -17.5000  20.2500 Du        
    390 ****        -6.2500 -17.5000  20.5000 Du        
    391 ****        -6.2500 -17.2500  18.7500 Du        
    392 ****        -6.2500 -17.2500  19.0000 Du        
    393 ****        -6.2500 -17.2500  19.2500 Du        
    394 ****        -6.2500 -17.2500  19.5000 Du        
    395 ****        -6.2500 -17.2500  19.7500 Du        
    396 ****        -6.2500 -17.2500  20.0000 Du        
    397 ****        -6.2500 -17.2500  20.2500 Du        
    398 ****        -6.2500 -17.2500  20.5000 Du        
    399 ****        -6.2500 -17.0000  18.5000 Du        
    400 ****        -6.2500 -17.0000  18.7500 Du        
    401 ****        -6.2500 -17.0000  19.0000 Du        
    402 ****        -6.2500 -17.0000  19.2500 Du        
    403 ****        -6.2500 -17.0000  19.5000 Du        
    404 ****        -6.2500 -17.0000  19.7500 Du        
    405 ****        -6.2500 -17.0000  20.0000 Du        
    406 ****        -6.2500 -17.0000  20.2500 Du        
    407 ****        -6.2500 -17.0000  20.5000 Du        
    408 ****        -6.2500 -16.7500  18.5000 Du        
    409 ****        -6.2500 -16.7500  18.7500 Du        
    410 ****        -6.2500 -16.7500  19.0000 Du        
    411 ****        -6.2500 -16.7500  19.2500 Du        
    412 ****        -6.2500 -16.7500  19.5000 Du        
    413 ****        -6.2500 -16.7500  19.7500 Du        
    414 ****        -6.2500 -16.7500  20.0000 Du        
    415 ****        -6.2500 -16.7500  20.2500 Du        
    416 ****        -6.2500 -16.5000  18.2500 Du        
    417 ****        -6.2500 -16.5000  18.5000 Du        
    418 ****        -6.2500 -16.5000  18.7500 Du        
    419 ****        -6.2500 -16.5000  19.0000 Du        
    420 ****        -6.2500 -16.5000  19.2500 Du        
    421 ****        -6.2500 -16.5000  19.5000 Du        
    422 ****        -6.2500 -16.5000  19.7500 Du        
    423 ****        -6.2500 -16.5000  20.0000 Du        
    424 ****        -6.2500 -16.5000  20.2500 Du        
    425 ****        -6.2500 -16.2500  18.0000 Du        
    426 ****        -6.2500 -16.2500  18.2500 Du        
    427 ****        -6.2500 -16.2500  18.5000 Du        
    428 ****        -6.2500 -16.2500  18.7500 Du        
    429 ****        -6.2500 -16.2500  19.0000 Du        
    430 ****        -6.2500 -16.2500  19.2500 Du        
    431 ****        -6.2500 -16.2500  19.5000 Du        
    432 ****        -6.2500 -16.2500  19.7500 Du        
    433 ****        -6.2500 -16.2500  20.0000 Du        
    434 ****        -6.2500 -16.2500  20.2500 Du        
    435 ****        -6.2500 -16.0000  17.7500 Du        
    436 ****        -6.2500 -16.0000  18.0000 Du        
    437 ****        -6.2500 -16.0000  18.2500 Du        
    438 ****        -6.2500 -16.0000  18.5000 Du        
    439 ****        -6.2500 -16.0000  18.7500 Du        
    440 ****        -6.2500 -16.0000  19.0000 Du        
    441 ****        -6.2500 -16.0000  19.2500 Du        
    442 ****        -6.2500 -16.0000  19.5000 Du        
    443 ****        -6.2500 -16.0000  19.7500 Du        
    444 ****        -6.2500 -16.0000  20.0000 Du        
    445 ****        -6.2500 -16.0000  20.2500 Du        
    446 ****        -6.2500 -15.7500  17.2500 Du        
    447 ****        -6.2500 -15.7500  17.5000 Du        
    448 ****        -6.2500 -15.7500  17.7500 Du        
    449 ****        -6.2500 -15.7500  18.0000 Du        
    450 ****        -6.2500 -15.7500  18.2500 Du        
    451 ****        -6.2500 -15.7500  18.5000 Du        
    452 ****        -6.2500 -15.7500  18.7500 Du        
    453 ****        -6.2500 -15.7500  19.0000 Du        
    454 ****        -6.2500 -15.7500  19.2500 Du        
    455 ****        -6.2500 -15.7500  19.5000 Du        
    456 ****        -6.2500 -15.7500  19.7500 Du        
    457 ****        -6.2500 -15.7500  20.0000 Du        
    458 ****        -6.2500 -15.7500  20.2500 Du        
    459 ****        -6.2500 -15.5000  17.2500 Du        
    460 ****        -6.2500 -15.5000  17.5000 Du        
    461 ****        -6.2500 -15.5000  17.7500 Du        
    462 ****        -6.2500 -15.5000  18.0000 Du        
    463 ****        -6.2500 -15.5000  18.2500 Du        
    464 ****        -6.2500 -15.5000  18.5000 Du        
    465 ****        -6.2500 -15.5000  18.7500 Du        
    466 ****        -6.2500 -15.5000  19.0000 Du        
    467 ****        -6.2500 -15.5000  19.2500 Du        
    468 ****        -6.2500 -15.5000  19.5000 Du        
    469 ****        -6.2500 -15.5000  19.7500 Du        
    470 ****        -6.2500 -15.2500  17.2500 Du        
    471 ****        -6.2500 -15.2500  17.5000 Du        
    472 ****        -6.2500 -15.2500  17.7500 Du        
    473 ****        -6.2500 -15.2500  18.0000 Du        
    474 ****        -6.2500 -15.2500  18.2500 Du        
    475 ****        -6.2500 -15.2500  18.5000 Du        
    476 ****        -6.2500 -15.2500  18.7500 Du        
    477 ****        -6.2500 -15.2500  19.0000 Du        
    478 ****        -6.2500 -15.2500  19.2500 Du        
    479 ****        -6.2500 -15.2500  19.5000 Du        
    480 ****        -6.2500 -15.2500  19.7500 Du        
    481 ****        -6.2500 -15.2500  20.0000 Du        
    482 ****        -6.2500 -15.2500  20.2500 Du        
    483 ****        -6.2500 -15.0000  19.0000 Du        
    484 ****        -6.2500 -15.0000  19.2500 Du        
    485 ****        -6.2500 -15.0000  19.7500 Du        
    486 ****        -6.2500 -15.0000  20.0000 Du        
    487 ****        -6.0000 -21.7500  18.7500 Du        
    488 ****        -6.0000 -21.7500  19.0000 Du        
    489 ****        -6.0000 -21.5000  18.7500 Du        
    490 ****        -6.0000 -21.5000  19.0000 Du        
    491 ****        -6.0000 -21.2500  18.5000 Du        
    492 ****        -6.0000 -21.2500  18.7500 Du        
    493 ****        -6.0000 -21.2500  19.0000 Du        
    494 ****        -6.0000 -21.2500  19.2500 Du        
    495 ****        -6.0000 -21.0000  18.5000 Du        
    496 ****        -6.0000 -21.0000  18.7500 Du        
    497 ****        -6.0000 -21.0000  19.0000 Du        
    498 ****        -6.0000 -21.0000  19.2500 Du        
    499 ****        -6.0000 -20.7500  18.7500 Du        
    500 ****        -6.0000 -20.7500  19.0000 Du        
    501 ****        -6.0000 -20.7500  19.2500 Du        
    502 ****        -6.0000 -20.5000  18.7500 Du        
    503 ****        -6.0000 -20.5000  19.0000 Du        
    504 ****        -6.0000 -20.5000  19.2500 Du        
    505 ****        -6.0000 -20.2500  18.7500 Du        
    506 ****        -6.0000 -20.2500  19.0000 Du        
    507 ****        -6.0000 -20.2500  19.2500 Du        
    508 ****        -6.0000 -20.2500  19.5000 Du        
    509 ****        -6.0000 -20.0000  18.7500 Du        
    510 ****        -6.0000 -20.0000  19.0000 Du        
    511 ****        -6.0000 -20.0000  19.2500 Du        
    512 ****        -6.0000 -20.0000  19.5000 Du        
    513 ****        -6.0000 -19.7500  18.7500 Du        
    514 ****        -6.0000 -19.7500  19.0000 Du        
    515 ****        -6.0000 -19.7500  19.2500 Du        
    516 ****        -6.0000 -19.7500  19.5000 Du        
    517 ****        -6.0000 -19.7500  19.7500 Du        
    518 ****        -6.0000 -19.5000  18.7500 Du        
    519 ****        -6.0000 -19.5000  19.0000 Du        
    520 ****        -6.0000 -19.5000  19.2500 Du        
    521 ****        -6.0000 -19.5000  19.5000 Du        
    522 ****        -6.0000 -19.5000  19.7500 Du        
    523 ****        -6.0000 -19.2500  18.7500 Du        
    524 ****        -6.0000 -19.2500  19.0000 Du        
    525 ****        -6.0000 -19.2500  19.2500 Du        
    526 ****        -6.0000 -19.2500  19.5000 Du        
    527 ****        -6.0000 -19.2500  19.7500 Du        
    528 ****        -6.0000 -19.2500  20.0000 Du        
    529 ****        -6.0000 -19.0000  18.7500 Du        
    530 ****        -6.0000 -19.0000  19.0000 Du        
    531 ****        -6.0000 -19.0000  19.2500 Du        
    532 ****        -6.0000 -19.0000  19.5000 Du        
    533 ****        -6.0000 -19.0000  19.7500 Du        
    534 ****        -6.0000 -19.0000  20.0000 Du        
    535 ****        -6.0000 -19.0000  20.2500 Du        
    536 ****        -6.0000 -18.7500  18.7500 Du        
    537 ****        -6.0000 -18.7500  19.0000 Du        
    538 ****        -6.0000 -18.7500  19.2500 Du        
    539 ****        -6.0000 -18.7500  19.5000 Du        
    540 ****        -6.0000 -18.7500  19.7500 Du        
    541 ****        -6.0000 -18.7500  20.0000 Du        
    542 ****        -6.0000 -18.7500  20.2500 Du        
    543 ****        -6.0000 -18.5000  18.7500 Du        
    544 ****        -6.0000 -18.5000  19.0000 Du        
    545 ****        -6.0000 -18.5000  19.2500 Du        
    546 ****        -6.0000 -18.5000  19.5000 Du        
    547 ****        -6.0000 -18.5000  19.7500 Du        
    548 ****        -6.0000 -18.5000  20.0000 Du        
    549 ****        -6.0000 -18.5000  20.2500 Du        
    550 ****        -6.0000 -18.2500  18.5000 Du        
    551 ****        -6.0000 -18.2500  18.7500 Du        
    552 ****        -6.0000 -18.2500  19.0000 Du        
    553 ****        -6.0000 -18.2500  19.2500 Du        
    554 ****        -6.0000 -18.2500  19.5000 Du        
    555 ****        -6.0000 -18.2500  19.7500 Du        
    556 ****        -6.0000 -18.2500  20.0000 Du        
    557 ****        -6.0000 -18.2500  20.2500 Du        
    558 ****        -6.0000 -18.2500  20.5000 Du        
    559 ****        -6.0000 -18.2500  23.0000 Du        
    560 ****        -6.0000 -18.2500  23.2500 Du        
    561 ****        -6.0000 -18.2500  23.5000 Du        
    562 ****        -6.0000 -18.0000  18.5000 Du        
    563 ****        -6.0000 -18.0000  18.7500 Du        
    564 ****        -6.0000 -18.0000  19.0000 Du        
    565 ****        -6.0000 -18.0000  19.2500 Du        
    566 ****        -6.0000 -18.0000  19.5000 Du        
    567 ****        -6.0000 -18.0000  19.7500 Du        
    568 ****        -6.0000 -18.0000  20.0000 Du        
    569 ****        -6.0000 -18.0000  20.2500 Du        
    570 ****        -6.0000 -18.0000  20.5000 Du        
    571 ****        -6.0000 -18.0000  20.7500 Du        
    572 ****        -6.0000 -18.0000  22.7500 Du        
    573 ****        -6.0000 -18.0000  23.0000 Du        
    574 ****        -6.0000 -18.0000  23.2500 Du        
    575 ****        -6.0000 -18.0000  23.5000 Du        
    576 ****        -6.0000 -17.7500  18.5000 Du        
    577 ****        -6.0000 -17.7500  18.7500 Du        
    578 ****        -6.0000 -17.7500  19.0000 Du        
    579 ****        -6.0000 -17.7500  19.2500 Du        
    580 ****        -6.0000 -17.7500  19.5000 Du        
    581 ****        -6.0000 -17.7500  19.7500 Du        
    582 ****        -6.0000 -17.7500  20.0000 Du        
    583 ****        -6.0000 -17.7500  20.2500 Du        
    584 ****        -6.0000 -17.7500  20.5000 Du        
    585 ****        -6.0000 -17.7500  20.7500 Du        
    586 ****        -6.0000 -17.7500  22.7500 Du        
    587 ****        -6.0000 -17.7500  23.0000 Du        
    588 ****        -6.0000 -17.7500  23.2500 Du        
    589 ****        -6.0000 -17.7500  23.5000 Du        
    590 ****        -6.0000 -17.5000  18.5000 Du        
    591 ****        -6.0000 -17.5000  18.7500 Du        
    592 ****        -6.0000 -17.5000  19.0000 Du        
    593 ****        -6.0000 -17.5000  19.2500 Du        
    594 ****        -6.0000 -17.5000  19.5000 Du        
    595 ****        -6.0000 -17.5000  19.7500 Du        
    596 ****        -6.0000 -17.5000  20.0000 Du        
    597 ****        -6.0000 -17.5000  20.2500 Du        
    598 ****        -6.0000 -17.5000  20.5000 Du        
    599 ****        -6.0000 -17.5000  20.7500 Du        
    600 ****        -6.0000 -17.5000  23.0000 Du        
    601 ****        -6.0000 -17.5000  23.2500 Du        
    602 ****        -6.0000 -17.5000  23.5000 Du        
    603 ****        -6.0000 -17.2500  18.5000 Du        
    604 ****        -6.0000 -17.2500  18.7500 Du        
    605 ****        -6.0000 -17.2500  19.0000 Du        
    606 ****        -6.0000 -17.2500  19.2500 Du        
    607 ****        -6.0000 -17.2500  19.5000 Du        
    608 ****        -6.0000 -17.2500  19.7500 Du        
    609 ****        -6.0000 -17.2500  20.0000 Du        
    610 ****        -6.0000 -17.2500  20.2500 Du        
    611 ****        -6.0000 -17.2500  20.5000 Du        
    612 ****        -6.0000 -17.2500  20.7500 Du        
    613 ****        -6.0000 -17.2500  23.0000 Du        
    614 ****        -6.0000 -17.2500  23.2500 Du        
    615 ****        -6.0000 -17.2500  23.5000 Du        
    616 ****        -6.0000 -17.0000  18.2500 Du        
    617 ****        -6.0000 -17.0000  18.5000 Du        
    618 ****        -6.0000 -17.0000  18.7500 Du        
    619 ****        -6.0000 -17.0000  19.0000 Du        
    620 ****        -6.0000 -17.0000  19.2500 Du        
    621 ****        -6.0000 -17.0000  19.5000 Du        
    622 ****        -6.0000 -17.0000  19.7500 Du        
    623 ****        -6.0000 -17.0000  20.0000 Du        
    624 ****        -6.0000 -17.0000  20.2500 Du        
    625 ****        -6.0000 -17.0000  20.5000 Du        
    626 ****        -6.0000 -17.0000  20.7500 Du        
    627 ****        -6.0000 -17.0000  23.0000 Du        
    628 ****        -6.0000 -17.0000  23.7500 Du        
    629 ****        -6.0000 -16.7500  18.0000 Du        
    630 ****        -6.0000 -16.7500  18.2500 Du        
    631 ****        -6.0000 -16.7500  18.5000 Du        
    632 ****        -6.0000 -16.7500  18.7500 Du        
    633 ****        -6.0000 -16.7500  19.0000 Du        
    634 ****        -6.0000 -16.7500  19.2500 Du        
    635 ****        -6.0000 -16.7500  19.5000 Du        
    636 ****        -6.0000 -16.7500  19.7500 Du        
    637 ****        -6.0000 -16.7500  20.0000 Du        
    638 ****        -6.0000 -16.7500  20.2500 Du        
    639 ****        -6.0000 -16.7500  20.5000 Du        
    640 ****        -6.0000 -16.5000  18.0000 Du        
    641 ****        -6.0000 -16.5000  18.2500 Du        
    642 ****        -6.0000 -16.5000  18.5000 Du        
    643 ****        -6.0000 -16.5000  18.7500 Du        
    644 ****        -6.0000 -16.5000  19.0000 Du        
    645 ****        -6.0000 -16.5000  19.2500 Du        
    646 ****        -6.0000 -16.5000  19.5000 Du        
    647 ****        -6.0000 -16.5000  19.7500 Du        
    648 ****        -6.0000 -16.5000  20.0000 Du        
    649 ****        -6.0000 -16.5000  20.2500 Du        
    650 ****        -6.0000 -16.2500  17.7500 Du        
    651 ****        -6.0000 -16.2500  18.0000 Du        
    652 ****        -6.0000 -16.2500  18.2500 Du        
    653 ****        -6.0000 -16.2500  18.5000 Du        
    654 ****        -6.0000 -16.2500  18.7500 Du        
    655 ****        -6.0000 -16.2500  19.0000 Du        
    656 ****        -6.0000 -16.2500  19.2500 Du        
    657 ****        -6.0000 -16.2500  19.5000 Du        
    658 ****        -6.0000 -16.2500  19.7500 Du        
    659 ****        -6.0000 -16.2500  20.0000 Du        
    660 ****        -6.0000 -16.2500  20.2500 Du        
    661 ****        -6.0000 -16.0000  17.2500 Du        
    662 ****        -6.0000 -16.0000  17.5000 Du        
    663 ****        -6.0000 -16.0000  17.7500 Du        
    664 ****        -6.0000 -16.0000  18.0000 Du        
    665 ****        -6.0000 -16.0000  18.2500 Du        
    666 ****        -6.0000 -16.0000  18.5000 Du        
    667 ****        -6.0000 -16.0000  18.7500 Du        
    668 ****        -6.0000 -16.0000  19.0000 Du        
    669 ****        -6.0000 -16.0000  19.2500 Du        
    670 ****        -6.0000 -16.0000  19.5000 Du        
    671 ****        -6.0000 -16.0000  19.7500 Du        
    672 ****        -6.0000 -16.0000  20.0000 Du        
    673 ****        -6.0000 -15.7500  17.2500 Du        
    674 ****        -6.0000 -15.7500  17.5000 Du        
    675 ****        -6.0000 -15.7500  17.7500 Du        
    676 ****        -6.0000 -15.7500  18.0000 Du        
    677 ****        -6.0000 -15.7500  18.2500 Du        
    678 ****        -6.0000 -15.7500  18.5000 Du        
    679 ****        -6.0000 -15.7500  18.7500 Du        
    680 ****        -6.0000 -15.7500  19.0000 Du        
    681 ****        -6.0000 -15.7500  19.2500 Du        
    682 ****        -6.0000 -15.7500  19.5000 Du        
    683 ****        -6.0000 -15.7500  19.7500 Du        
    684 ****        -6.0000 -15.7500  20.0000 Du        
    685 ****        -6.0000 -15.7500  20.2500 Du        
    686 ****        -6.0000 -15.5000  17.2500 Du        
    687 ****        -6.0000 -15.5000  17.5000 Du        
    688 ****        -6.0000 -15.5000  17.7500 Du        
    689 ****        -6.0000 -15.5000  18.0000 Du        
    690 ****        -6.0000 -15.5000  18.2500 Du        
    691 ****        -6.0000 -15.5000  18.5000 Du        
    692 ****        -6.0000 -15.5000  18.7500 Du        
    693 ****        -6.0000 -15.5000  19.0000 Du        
    694 ****        -6.0000 -15.5000  19.2500 Du        
    695 ****        -6.0000 -15.5000  19.5000 Du        
    696 ****        -6.0000 -15.5000  19.7500 Du        
    697 ****        -6.0000 -15.2500  17.2500 Du        
    698 ****        -6.0000 -15.2500  17.5000 Du        
    699 ****        -6.0000 -15.2500  17.7500 Du        
    700 ****        -6.0000 -15.2500  18.0000 Du        
    701 ****        -6.0000 -15.2500  18.2500 Du        
    702 ****        -6.0000 -15.2500  18.5000 Du        
    703 ****        -6.0000 -15.2500  18.7500 Du        
    704 ****        -6.0000 -15.2500  19.0000 Du        
    705 ****        -6.0000 -15.2500  19.2500 Du        
    706 ****        -6.0000 -15.2500  19.5000 Du        
    707 ****        -6.0000 -15.2500  19.7500 Du        
    708 ****        -6.0000 -15.2500  20.0000 Du        
    709 ****        -6.0000 -15.0000  17.5000 Du        
    710 ****        -6.0000 -15.0000  17.7500 Du        
    711 ****        -6.0000 -15.0000  18.0000 Du        
    712 ****        -6.0000 -15.0000  18.2500 Du        
    713 ****        -6.0000 -15.0000  18.5000 Du        
    714 ****        -6.0000 -15.0000  18.7500 Du        
    715 ****        -6.0000 -15.0000  19.0000 Du        
    716 ****        -6.0000 -15.0000  19.2500 Du        
    717 ****        -6.0000 -15.0000  19.5000 Du        
    718 ****        -6.0000 -15.0000  19.7500 Du        
    719 ****        -6.0000 -15.0000  20.0000 Du        
    720 ****        -5.7500 -21.2500  18.7500 Du        
    721 ****        -5.7500 -21.2500  19.0000 Du        
    722 ****        -5.7500 -21.0000  18.5000 Du        
    723 ****        -5.7500 -21.0000  18.7500 Du        
    724 ****        -5.7500 -21.0000  19.0000 Du        
    725 ****        -5.7500 -21.0000  19.2500 Du        
    726 ****        -5.7500 -20.7500  18.5000 Du        
    727 ****        -5.7500 -20.7500  18.7500 Du        
    728 ****        -5.7500 -20.7500  19.0000 Du        
    729 ****        -5.7500 -20.7500  19.2500 Du        
    730 ****        -5.7500 -20.5000  18.5000 Du        
    731 ****        -5.7500 -20.5000  18.7500 Du        
    732 ****        -5.7500 -20.5000  19.0000 Du        
    733 ****        -5.7500 -20.5000  19.2500 Du        
    734 ****        -5.7500 -20.2500  18.5000 Du        
    735 ****        -5.7500 -20.2500  18.7500 Du        
    736 ****        -5.7500 -20.2500  19.0000 Du        
    737 ****        -5.7500 -20.2500  19.2500 Du        
    738 ****        -5.7500 -20.2500  19.5000 Du        
    739 ****        -5.7500 -20.0000  18.5000 Du        
    740 ****        -5.7500 -20.0000  18.7500 Du        
    741 ****        -5.7500 -20.0000  19.0000 Du        
    742 ****        -5.7500 -20.0000  19.2500 Du        
    743 ****        -5.7500 -20.0000  19.5000 Du        
    744 ****        -5.7500 -19.7500  18.7500 Du        
    745 ****        -5.7500 -19.7500  19.0000 Du        
    746 ****        -5.7500 -19.7500  19.2500 Du        
    747 ****        -5.7500 -19.7500  19.5000 Du        
    748 ****        -5.7500 -19.5000  18.7500 Du        
    749 ****        -5.7500 -19.5000  19.0000 Du        
    750 ****        -5.7500 -19.5000  19.2500 Du        
    751 ****        -5.7500 -19.5000  19.5000 Du        
    752 ****        -5.7500 -19.5000  19.7500 Du        
    753 ****        -5.7500 -19.2500  18.7500 Du        
    754 ****        -5.7500 -19.2500  19.0000 Du        
    755 ****        -5.7500 -19.2500  19.2500 Du        
    756 ****        -5.7500 -19.2500  19.5000 Du        
    757 ****        -5.7500 -19.2500  19.7500 Du        
    758 ****        -5.7500 -19.2500  20.0000 Du        
    759 ****        -5.7500 -19.0000  18.5000 Du        
    760 ****        -5.7500 -19.0000  18.7500 Du        
    761 ****        -5.7500 -19.0000  19.0000 Du        
    762 ****        -5.7500 -19.0000  19.2500 Du        
    763 ****        -5.7500 -19.0000  19.5000 Du        
    764 ****        -5.7500 -19.0000  19.7500 Du        
    765 ****        -5.7500 -19.0000  20.0000 Du        
    766 ****        -5.7500 -18.7500  18.5000 Du        
    767 ****        -5.7500 -18.7500  18.7500 Du        
    768 ****        -5.7500 -18.7500  19.0000 Du        
    769 ****        -5.7500 -18.7500  19.2500 Du        
    770 ****        -5.7500 -18.7500  19.5000 Du        
    771 ****        -5.7500 -18.7500  19.7500 Du        
    772 ****        -5.7500 -18.7500  20.0000 Du        
    773 ****        -5.7500 -18.7500  20.2500 Du        
    774 ****        -5.7500 -18.5000  18.5000 Du        
    775 ****        -5.7500 -18.5000  18.7500 Du        
    776 ****        -5.7500 -18.5000  19.0000 Du        
    777 ****        -5.7500 -18.5000  19.2500 Du        
    778 ****        -5.7500 -18.5000  19.5000 Du        
    779 ****        -5.7500 -18.5000  19.7500 Du        
    780 ****        -5.7500 -18.5000  20.0000 Du        
    781 ****        -5.7500 -18.5000  20.2500 Du        
    782 ****        -5.7500 -18.5000  23.5000 Du        
    783 ****        -5.7500 -18.2500  18.5000 Du        
    784 ****        -5.7500 -18.2500  18.7500 Du        
    785 ****        -5.7500 -18.2500  19.0000 Du        
    786 ****        -5.7500 -18.2500  19.2500 Du        
    787 ****        -5.7500 -18.2500  19.5000 Du        
    788 ****        -5.7500 -18.2500  19.7500 Du        
    789 ****        -5.7500 -18.2500  20.0000 Du        
    790 ****        -5.7500 -18.2500  20.2500 Du        
    791 ****        -5.7500 -18.2500  23.0000 Du        
    792 ****        -5.7500 -18.2500  23.2500 Du        
    793 ****        -5.7500 -18.2500  23.5000 Du        
    794 ****        -5.7500 -18.2500  23.7500 Du        
    795 ****        -5.7500 -18.0000  18.2500 Du        
    796 ****        -5.7500 -18.0000  18.5000 Du        
    797 ****        -5.7500 -18.0000  18.7500 Du        
    798 ****        -5.7500 -18.0000  19.0000 Du        
    799 ****        -5.7500 -18.0000  19.2500 Du        
    800 ****        -5.7500 -18.0000  19.5000 Du        
    801 ****        -5.7500 -18.0000  19.7500 Du        
    802 ****        -5.7500 -18.0000  20.0000 Du        
    803 ****        -5.7500 -18.0000  20.2500 Du        
    804 ****        -5.7500 -18.0000  20.5000 Du        
    805 ****        -5.7500 -18.0000  22.7500 Du        
    806 ****        -5.7500 -18.0000  23.0000 Du        
    807 ****        -5.7500 -18.0000  23.2500 Du        
    808 ****        -5.7500 -18.0000  23.5000 Du        
    809 ****        -5.7500 -18.0000  23.7500 Du        
    810 ****        -5.7500 -17.7500  18.2500 Du        
    811 ****        -5.7500 -17.7500  18.5000 Du        
    812 ****        -5.7500 -17.7500  18.7500 Du        
    813 ****        -5.7500 -17.7500  19.0000 Du        
    814 ****        -5.7500 -17.7500  19.2500 Du        
    815 ****        -5.7500 -17.7500  19.5000 Du        
    816 ****        -5.7500 -17.7500  19.7500 Du        
    817 ****        -5.7500 -17.7500  20.0000 Du        
    818 ****        -5.7500 -17.7500  20.2500 Du        
    819 ****        -5.7500 -17.7500  20.5000 Du        
    820 ****        -5.7500 -17.7500  22.5000 Du        
    821 ****        -5.7500 -17.7500  22.7500 Du        
    822 ****        -5.7500 -17.7500  23.0000 Du        
    823 ****        -5.7500 -17.7500  23.2500 Du        
    824 ****        -5.7500 -17.7500  23.5000 Du        
    825 ****        -5.7500 -17.7500  23.7500 Du        
    826 ****        -5.7500 -17.5000  18.2500 Du        
    827 ****        -5.7500 -17.5000  18.5000 Du        
    828 ****        -5.7500 -17.5000  18.7500 Du        
    829 ****        -5.7500 -17.5000  19.0000 Du        
    830 ****        -5.7500 -17.5000  19.2500 Du        
    831 ****        -5.7500 -17.5000  19.5000 Du        
    832 ****        -5.7500 -17.5000  19.7500 Du        
    833 ****        -5.7500 -17.5000  20.0000 Du        
    834 ****        -5.7500 -17.5000  20.2500 Du        
    835 ****        -5.7500 -17.5000  22.7500 Du        
    836 ****        -5.7500 -17.5000  23.0000 Du        
    837 ****        -5.7500 -17.5000  23.2500 Du        
    838 ****        -5.7500 -17.5000  23.5000 Du        
    839 ****        -5.7500 -17.5000  23.7500 Du        
    840 ****        -5.7500 -17.2500  18.2500 Du        
    841 ****        -5.7500 -17.2500  18.5000 Du        
    842 ****        -5.7500 -17.2500  18.7500 Du        
    843 ****        -5.7500 -17.2500  19.0000 Du        
    844 ****        -5.7500 -17.2500  19.2500 Du        
    845 ****        -5.7500 -17.2500  19.5000 Du        
    846 ****        -5.7500 -17.2500  19.7500 Du        
    847 ****        -5.7500 -17.2500  20.0000 Du        
    848 ****        -5.7500 -17.2500  20.2500 Du        
    849 ****        -5.7500 -17.2500  22.5000 Du        
    850 ****        -5.7500 -17.2500  22.7500 Du        
    851 ****        -5.7500 -17.2500  23.0000 Du        
    852 ****        -5.7500 -17.2500  23.2500 Du        
    853 ****        -5.7500 -17.2500  23.5000 Du        
    854 ****        -5.7500 -17.2500  23.7500 Du        
    855 ****        -5.7500 -17.0000  18.0000 Du        
    856 ****        -5.7500 -17.0000  18.2500 Du        
    857 ****        -5.7500 -17.0000  18.5000 Du        
    858 ****        -5.7500 -17.0000  18.7500 Du        
    859 ****        -5.7500 -17.0000  19.0000 Du        
    860 ****        -5.7500 -17.0000  19.2500 Du        
    861 ****        -5.7500 -17.0000  19.5000 Du        
    862 ****        -5.7500 -17.0000  19.7500 Du        
    863 ****        -5.7500 -17.0000  20.0000 Du        
    864 ****        -5.7500 -17.0000  20.2500 Du        
    865 ****        -5.7500 -17.0000  22.5000 Du        
    866 ****        -5.7500 -17.0000  22.7500 Du        
    867 ****        -5.7500 -17.0000  23.0000 Du        
    868 ****        -5.7500 -17.0000  23.2500 Du        
    869 ****        -5.7500 -17.0000  23.5000 Du        
    870 ****        -5.7500 -17.0000  23.7500 Du        
    871 ****        -5.7500 -16.7500  17.7500 Du        
    872 ****        -5.7500 -16.7500  18.0000 Du        
    873 ****        -5.7500 -16.7500  18.2500 Du        
    874 ****        -5.7500 -16.7500  18.5000 Du        
    875 ****        -5.7500 -16.7500  18.7500 Du        
    876 ****        -5.7500 -16.7500  19.0000 Du        
    877 ****        -5.7500 -16.7500  19.2500 Du        
    878 ****        -5.7500 -16.7500  19.5000 Du        
    879 ****        -5.7500 -16.7500  19.7500 Du        
    880 ****        -5.7500 -16.7500  20.0000 Du        
    881 ****        -5.7500 -16.7500  22.7500 Du        
    882 ****        -5.7500 -16.7500  23.0000 Du        
    883 ****        -5.7500 -16.7500  23.2500 Du        
    884 ****        -5.7500 -16.7500  23.5000 Du        
    885 ****        -5.7500 -16.5000  17.7500 Du        
    886 ****        -5.7500 -16.5000  18.0000 Du        
    887 ****        -5.7500 -16.5000  18.2500 Du        
    888 ****        -5.7500 -16.5000  18.5000 Du        
    889 ****        -5.7500 -16.5000  18.7500 Du        
    890 ****        -5.7500 -16.5000  19.0000 Du        
    891 ****        -5.7500 -16.5000  19.2500 Du        
    892 ****        -5.7500 -16.5000  19.5000 Du        
    893 ****        -5.7500 -16.5000  19.7500 Du        
    894 ****        -5.7500 -16.5000  20.0000 Du        
    895 ****        -5.7500 -16.2500  17.5000 Du        
    896 ****        -5.7500 -16.2500  17.7500 Du        
    897 ****        -5.7500 -16.2500  18.0000 Du        
    898 ****        -5.7500 -16.2500  18.2500 Du        
    899 ****        -5.7500 -16.2500  18.5000 Du        
    900 ****        -5.7500 -16.2500  18.7500 Du        
    901 ****        -5.7500 -16.2500  19.0000 Du        
    902 ****        -5.7500 -16.2500  19.2500 Du        
    903 ****        -5.7500 -16.2500  19.5000 Du        
    904 ****        -5.7500 -16.2500  19.7500 Du        
    905 ****        -5.7500 -16.2500  20.0000 Du        
    906 ****        -5.7500 -16.0000  17.2500 Du        
    907 ****        -5.7500 -16.0000  17.5000 Du        
    908 ****        -5.7500 -16.0000  17.7500 Du        
    909 ****        -5.7500 -16.0000  18.0000 Du        
    910 ****        -5.7500 -16.0000  18.2500 Du        
    911 ****        -5.7500 -16.0000  18.5000 Du        
    912 ****        -5.7500 -16.0000  18.7500 Du        
    913 ****        -5.7500 -16.0000  19.0000 Du        
    914 ****        -5.7500 -16.0000  19.2500 Du        
    915 ****        -5.7500 -16.0000  19.5000 Du        
    916 ****        -5.7500 -16.0000  19.7500 Du        
    917 ****        -5.7500 -15.7500  17.2500 Du        
    918 ****        -5.7500 -15.7500  17.5000 Du        
    919 ****        -5.7500 -15.7500  17.7500 Du        
    920 ****        -5.7500 -15.7500  18.0000 Du        
    921 ****        -5.7500 -15.7500  18.2500 Du        
    922 ****        -5.7500 -15.7500  18.5000 Du        
    923 ****        -5.7500 -15.7500  18.7500 Du        
    924 ****        -5.7500 -15.7500  19.0000 Du        
    925 ****        -5.7500 -15.7500  19.2500 Du        
    926 ****        -5.7500 -15.7500  19.5000 Du        
    927 ****        -5.7500 -15.7500  19.7500 Du        
    928 ****        -5.7500 -15.7500  20.0000 Du        
    929 ****        -5.7500 -15.5000  17.2500 Du        
    930 ****        -5.7500 -15.5000  17.5000 Du        
    931 ****        -5.7500 -15.5000  17.7500 Du        
    932 ****        -5.7500 -15.5000  18.0000 Du        
    933 ****        -5.7500 -15.5000  18.2500 Du        
    934 ****        -5.7500 -15.5000  18.5000 Du        
    935 ****        -5.7500 -15.5000  18.7500 Du        
    936 ****        -5.7500 -15.5000  19.0000 Du        
    937 ****        -5.7500 -15.5000  19.2500 Du        
    938 ****        -5.7500 -15.5000  19.5000 Du        
    939 ****        -5.7500 -15.2500  17.5000 Du        
    940 ****        -5.7500 -15.2500  17.7500 Du        
    941 ****        -5.7500 -15.2500  18.0000 Du        
    942 ****        -5.7500 -15.2500  18.2500 Du        
    943 ****        -5.7500 -15.2500  18.5000 Du        
    944 ****        -5.7500 -15.2500  18.7500 Du        
    945 ****        -5.7500 -15.2500  19.0000 Du        
    946 ****        -5.7500 -15.2500  19.2500 Du        
    947 ****        -5.7500 -15.2500  19.5000 Du        
    948 ****        -5.7500 -15.2500  19.7500 Du        
    949 ****        -5.7500 -15.0000  17.5000 Du        
    950 ****        -5.7500 -15.0000  17.7500 Du        
    951 ****        -5.7500 -15.0000  18.0000 Du        
    952 ****        -5.7500 -15.0000  18.2500 Du        
    953 ****        -5.7500 -15.0000  18.5000 Du        
    954 ****        -5.7500 -15.0000  18.7500 Du        
    955 ****        -5.7500 -15.0000  19.0000 Du        
    956 ****        -5.7500 -15.0000  19.2500 Du        
    957 ****        -5.7500 -15.0000  19.5000 Du        
    958 ****        -5.7500 -15.0000  19.7500 Du        
    959 ****        -5.5000 -21.0000  19.0000 Du        
    960 ****        -5.5000 -20.7500  18.5000 Du        
    961 ****        -5.5000 -20.7500  18.7500 Du        
    962 ****        -5.5000 -20.7500  19.0000 Du        
    963 ****        -5.5000 -20.7500  19.2500 Du        
    964 ****        -5.5000 -20.5000  18.2500 Du        
    965 ****        -5.5000 -20.5000  18.5000 Du        
    966 ****        -5.5000 -20.5000  18.7500 Du        
    967 ****        -5.5000 -20.5000  19.0000 Du        
    968 ****        -5.5000 -20.5000  19.2500 Du        
    969 ****        -5.5000 -20.2500  18.2500 Du        
    970 ****        -5.5000 -20.2500  18.5000 Du        
    971 ****        -5.5000 -20.2500  18.7500 Du        
    972 ****        -5.5000 -20.2500  19.0000 Du        
    973 ****        -5.5000 -20.2500  19.2500 Du        
    974 ****        -5.5000 -20.0000  18.5000 Du        
    975 ****        -5.5000 -20.0000  18.7500 Du        
    976 ****        -5.5000 -20.0000  19.0000 Du        
    977 ****        -5.5000 -20.0000  19.2500 Du        
    978 ****        -5.5000 -20.0000  19.5000 Du        
    979 ****        -5.5000 -19.7500  18.5000 Du        
    980 ****        -5.5000 -19.7500  18.7500 Du        
    981 ****        -5.5000 -19.7500  19.0000 Du        
    982 ****        -5.5000 -19.7500  19.2500 Du        
    983 ****        -5.5000 -19.7500  19.5000 Du        
    984 ****        -5.5000 -19.5000  18.5000 Du        
    985 ****        -5.5000 -19.5000  18.7500 Du        
    986 ****        -5.5000 -19.5000  19.0000 Du        
    987 ****        -5.5000 -19.5000  19.2500 Du        
    988 ****        -5.5000 -19.5000  19.5000 Du        
    989 ****        -5.5000 -19.5000  19.7500 Du        
    990 ****        -5.5000 -19.2500  18.5000 Du        
    991 ****        -5.5000 -19.2500  18.7500 Du        
    992 ****        -5.5000 -19.2500  19.0000 Du        
    993 ****        -5.5000 -19.2500  19.2500 Du        
    994 ****        -5.5000 -19.2500  19.5000 Du        
    995 ****        -5.5000 -19.2500  19.7500 Du        
    996 ****        -5.5000 -19.0000  18.5000 Du        
    997 ****        -5.5000 -19.0000  18.7500 Du        
    998 ****        -5.5000 -19.0000  19.0000 Du        
    999 ****        -5.5000 -19.0000  19.2500 Du        
   1000 ****        -5.5000 -19.0000  19.5000 Du        
   1001 ****        -5.5000 -19.0000  19.7500 Du        
   1002 ****        -5.5000 -18.7500  18.2500 Du        
   1003 ****        -5.5000 -18.7500  18.5000 Du        
   1004 ****        -5.5000 -18.7500  18.7500 Du        
   1005 ****        -5.5000 -18.7500  19.0000 Du        
   1006 ****        -5.5000 -18.7500  19.2500 Du        
   1007 ****        -5.5000 -18.7500  19.5000 Du        
   1008 ****        -5.5000 -18.7500  19.7500 Du        
   1009 ****        -5.5000 -18.7500  20.0000 Du        
   1010 ****        -5.5000 -18.5000  18.2500 Du        
   1011 ****        -5.5000 -18.5000  18.5000 Du        
   1012 ****        -5.5000 -18.5000  18.7500 Du        
   1013 ****        -5.5000 -18.5000  19.0000 Du        
   1014 ****        -5.5000 -18.5000  19.2500 Du        
   1015 ****        -5.5000 -18.5000  19.5000 Du        
   1016 ****        -5.5000 -18.5000  19.7500 Du        
   1017 ****        -5.5000 -18.5000  23.2500 Du        
   1018 ****        -5.5000 -18.5000  23.5000 Du        
   1019 ****        -5.5000 -18.5000  23.7500 Du        
   1020 ****        -5.5000 -18.2500  18.2500 Du        
   1021 ****        -5.5000 -18.2500  18.5000 Du        
   1022 ****        -5.5000 -18.2500  18.7500 Du        
   1023 ****        -5.5000 -18.2500  19.0000 Du        
   1024 ****        -5.5000 -18.2500  19.2500 Du        
   1025 ****        -5.5000 -18.2500  19.5000 Du        
   1026 ****        -5.5000 -18.2500  19.7500 Du        
   1027 ****        -5.5000 -18.2500  22.7500 Du        
   1028 ****        -5.5000 -18.2500  23.0000 Du        
   1029 ****        -5.5000 -18.2500  23.2500 Du        
   1030 ****        -5.5000 -18.2500  23.5000 Du        
   1031 ****        -5.5000 -18.2500  23.7500 Du        
   1032 ****        -5.5000 -18.0000  18.2500 Du        
   1033 ****        -5.5000 -18.0000  18.5000 Du        
   1034 ****        -5.5000 -18.0000  18.7500 Du        
   1035 ****        -5.5000 -18.0000  19.0000 Du        
   1036 ****        -5.5000 -18.0000  19.2500 Du        
   1037 ****        -5.5000 -18.0000  19.5000 Du        
   1038 ****        -5.5000 -18.0000  22.2500 Du        
   1039 ****        -5.5000 -18.0000  22.5000 Du        
   1040 ****        -5.5000 -18.0000  22.7500 Du        
   1041 ****        -5.5000 -18.0000  23.0000 Du        
   1042 ****        -5.5000 -18.0000  23.2500 Du        
   1043 ****        -5.5000 -18.0000  23.5000 Du        
   1044 ****        -5.5000 -18.0000  23.7500 Du        
   1045 ****        -5.5000 -17.7500  18.2500 Du        
   1046 ****        -5.5000 -17.7500  18.5000 Du        
   1047 ****        -5.5000 -17.7500  18.7500 Du        
   1048 ****        -5.5000 -17.7500  19.0000 Du        
   1049 ****        -5.5000 -17.7500  19.2500 Du        
   1050 ****        -5.5000 -17.7500  19.5000 Du        
   1051 ****        -5.5000 -17.7500  22.0000 Du        
   1052 ****        -5.5000 -17.7500  22.2500 Du        
   1053 ****        -5.5000 -17.7500  22.5000 Du        
   1054 ****        -5.5000 -17.7500  22.7500 Du        
   1055 ****        -5.5000 -17.7500  23.0000 Du        
   1056 ****        -5.5000 -17.7500  23.2500 Du        
   1057 ****        -5.5000 -17.7500  23.5000 Du        
   1058 ****        -5.5000 -17.7500  23.7500 Du        
   1059 ****        -5.5000 -17.5000  18.0000 Du        
   1060 ****        -5.5000 -17.5000  18.2500 Du        
   1061 ****        -5.5000 -17.5000  18.5000 Du        
   1062 ****        -5.5000 -17.5000  18.7500 Du        
   1063 ****        -5.5000 -17.5000  19.0000 Du        
   1064 ****        -5.5000 -17.5000  19.2500 Du        
   1065 ****        -5.5000 -17.5000  19.5000 Du        
   1066 ****        -5.5000 -17.5000  22.2500 Du        
   1067 ****        -5.5000 -17.5000  22.5000 Du        
   1068 ****        -5.5000 -17.5000  22.7500 Du        
   1069 ****        -5.5000 -17.5000  23.0000 Du        
   1070 ****        -5.5000 -17.5000  23.2500 Du        
   1071 ****        -5.5000 -17.5000  23.5000 Du        
   1072 ****        -5.5000 -17.5000  23.7500 Du        
   1073 ****        -5.5000 -17.2500  18.0000 Du        
   1074 ****        -5.5000 -17.2500  18.2500 Du        
   1075 ****        -5.5000 -17.2500  18.5000 Du        
   1076 ****        -5.5000 -17.2500  18.7500 Du        
   1077 ****        -5.5000 -17.2500  19.0000 Du        
   1078 ****        -5.5000 -17.2500  19.2500 Du        
   1079 ****        -5.5000 -17.2500  22.2500 Du        
   1080 ****        -5.5000 -17.2500  22.5000 Du        
   1081 ****        -5.5000 -17.2500  22.7500 Du        
   1082 ****        -5.5000 -17.2500  23.0000 Du        
   1083 ****        -5.5000 -17.2500  23.2500 Du        
   1084 ****        -5.5000 -17.2500  23.5000 Du        
   1085 ****        -5.5000 -17.2500  23.7500 Du        
   1086 ****        -5.5000 -17.2500  24.0000 Du        
   1087 ****        -5.5000 -17.0000  17.7500 Du        
   1088 ****        -5.5000 -17.0000  18.0000 Du        
   1089 ****        -5.5000 -17.0000  18.2500 Du        
   1090 ****        -5.5000 -17.0000  18.5000 Du        
   1091 ****        -5.5000 -17.0000  18.7500 Du        
   1092 ****        -5.5000 -17.0000  19.0000 Du        
   1093 ****        -5.5000 -17.0000  19.2500 Du        
   1094 ****        -5.5000 -17.0000  22.2500 Du        
   1095 ****        -5.5000 -17.0000  22.5000 Du        
   1096 ****        -5.5000 -17.0000  22.7500 Du        
   1097 ****        -5.5000 -17.0000  23.0000 Du        
   1098 ****        -5.5000 -17.0000  23.2500 Du        
   1099 ****        -5.5000 -17.0000  23.5000 Du        
   1100 ****        -5.5000 -17.0000  23.7500 Du        
   1101 ****        -5.5000 -17.0000  24.0000 Du        
   1102 ****        -5.5000 -16.7500  17.5000 Du        
   1103 ****        -5.5000 -16.7500  17.7500 Du        
   1104 ****        -5.5000 -16.7500  18.0000 Du        
   1105 ****        -5.5000 -16.7500  18.2500 Du        
   1106 ****        -5.5000 -16.7500  18.5000 Du        
   1107 ****        -5.5000 -16.7500  18.7500 Du        
   1108 ****        -5.5000 -16.7500  19.0000 Du        
   1109 ****        -5.5000 -16.7500  19.2500 Du        
   1110 ****        -5.5000 -16.7500  22.7500 Du        
   1111 ****        -5.5000 -16.7500  23.0000 Du        
   1112 ****        -5.5000 -16.7500  23.2500 Du        
   1113 ****        -5.5000 -16.7500  23.5000 Du        
   1114 ****        -5.5000 -16.7500  23.7500 Du        
   1115 ****        -5.5000 -16.7500  24.0000 Du        
   1116 ****        -5.5000 -16.5000  17.5000 Du        
   1117 ****        -5.5000 -16.5000  17.7500 Du        
   1118 ****        -5.5000 -16.5000  18.0000 Du        
   1119 ****        -5.5000 -16.5000  18.2500 Du        
   1120 ****        -5.5000 -16.5000  18.5000 Du        
   1121 ****        -5.5000 -16.5000  18.7500 Du        
   1122 ****        -5.5000 -16.5000  19.0000 Du        
   1123 ****        -5.5000 -16.5000  19.2500 Du        
   1124 ****        -5.5000 -16.2500  17.5000 Du        
   1125 ****        -5.5000 -16.2500  17.7500 Du        
   1126 ****        -5.5000 -16.2500  18.0000 Du        
   1127 ****        -5.5000 -16.2500  18.2500 Du        
   1128 ****        -5.5000 -16.2500  18.5000 Du        
   1129 ****        -5.5000 -16.2500  18.7500 Du        
   1130 ****        -5.5000 -16.2500  19.0000 Du        
   1131 ****        -5.5000 -16.2500  19.2500 Du        
   1132 ****        -5.5000 -16.0000  17.5000 Du        
   1133 ****        -5.5000 -16.0000  17.7500 Du        
   1134 ****        -5.5000 -16.0000  18.0000 Du        
   1135 ****        -5.5000 -16.0000  18.2500 Du        
   1136 ****        -5.5000 -16.0000  18.5000 Du        
   1137 ****        -5.5000 -16.0000  18.7500 Du        
   1138 ****        -5.5000 -16.0000  19.0000 Du        
   1139 ****        -5.5000 -16.0000  19.2500 Du        
   1140 ****        -5.5000 -15.7500  17.5000 Du        
   1141 ****        -5.5000 -15.7500  17.7500 Du        
   1142 ****        -5.5000 -15.7500  18.0000 Du        
   1143 ****        -5.5000 -15.7500  18.2500 Du        
   1144 ****        -5.5000 -15.7500  18.5000 Du        
   1145 ****        -5.5000 -15.7500  18.7500 Du        
   1146 ****        -5.5000 -15.7500  19.0000 Du        
   1147 ****        -5.5000 -15.7500  19.2500 Du        
   1148 ****        -5.5000 -15.5000  17.5000 Du        
   1149 ****        -5.5000 -15.5000  17.7500 Du        
   1150 ****        -5.5000 -15.5000  18.0000 Du        
   1151 ****        -5.5000 -15.5000  18.2500 Du        
   1152 ****        -5.5000 -15.5000  18.5000 Du        
   1153 ****        -5.5000 -15.5000  18.7500 Du        
   1154 ****        -5.5000 -15.5000  19.0000 Du        
   1155 ****        -5.5000 -15.5000  19.2500 Du        
   1156 ****        -5.5000 -15.2500  17.7500 Du        
   1157 ****        -5.5000 -15.2500  18.0000 Du        
   1158 ****        -5.5000 -15.2500  18.2500 Du        
   1159 ****        -5.5000 -15.2500  18.5000 Du        
   1160 ****        -5.5000 -15.2500  18.7500 Du        
   1161 ****        -5.5000 -15.2500  19.0000 Du        
   1162 ****        -5.5000 -15.2500  19.2500 Du        
   1163 ****        -5.5000 -15.0000  17.7500 Du        
   1164 ****        -5.5000 -15.0000  18.0000 Du        
   1165 ****        -5.5000 -15.0000  18.2500 Du        
   1166 ****        -5.5000 -15.0000  18.5000 Du        
   1167 ****        -5.5000 -15.0000  18.7500 Du        
   1168 ****        -5.5000 -15.0000  19.0000 Du        
   1169 ****        -5.5000 -15.0000  19.2500 Du        
   1170 ****        -5.2500 -20.7500  19.0000 Du        
   1171 ****        -5.2500 -20.5000  18.2500 Du        
   1172 ****        -5.2500 -20.5000  18.5000 Du        
   1173 ****        -5.2500 -20.5000  18.7500 Du        
   1174 ****        -5.2500 -20.5000  19.0000 Du        
   1175 ****        -5.2500 -20.5000  19.2500 Du        
   1176 ****        -5.2500 -20.2500  18.0000 Du        
   1177 ****        -5.2500 -20.2500  18.2500 Du        
   1178 ****        -5.2500 -20.2500  18.5000 Du        
   1179 ****        -5.2500 -20.2500  18.7500 Du        
   1180 ****        -5.2500 -20.2500  19.0000 Du        
   1181 ****        -5.2500 -20.2500  19.2500 Du        
   1182 ****        -5.2500 -20.0000  18.0000 Du        
   1183 ****        -5.2500 -20.0000  18.2500 Du        
   1184 ****        -5.2500 -20.0000  18.5000 Du        
   1185 ****        -5.2500 -20.0000  18.7500 Du        
   1186 ****        -5.2500 -20.0000  19.0000 Du        
   1187 ****        -5.2500 -20.0000  19.2500 Du        
   1188 ****        -5.2500 -19.7500  18.2500 Du        
   1189 ****        -5.2500 -19.7500  18.5000 Du        
   1190 ****        -5.2500 -19.7500  18.7500 Du        
   1191 ****        -5.2500 -19.7500  19.0000 Du        
   1192 ****        -5.2500 -19.7500  19.2500 Du        
   1193 ****        -5.2500 -19.7500  19.5000 Du        
   1194 ****        -5.2500 -19.5000  18.2500 Du        
   1195 ****        -5.2500 -19.5000  18.5000 Du        
   1196 ****        -5.2500 -19.5000  18.7500 Du        
   1197 ****        -5.2500 -19.5000  19.0000 Du        
   1198 ****        -5.2500 -19.5000  19.2500 Du        
   1199 ****        -5.2500 -19.5000  19.5000 Du        
   1200 ****        -5.2500 -19.2500  18.2500 Du        
   1201 ****        -5.2500 -19.2500  18.5000 Du        
   1202 ****        -5.2500 -19.2500  18.7500 Du        
   1203 ****        -5.2500 -19.2500  19.0000 Du        
   1204 ****        -5.2500 -19.2500  19.2500 Du        
   1205 ****        -5.2500 -19.2500  19.5000 Du        
   1206 ****        -5.2500 -19.0000  18.2500 Du        
   1207 ****        -5.2500 -19.0000  18.5000 Du        
   1208 ****        -5.2500 -19.0000  18.7500 Du        
   1209 ****        -5.2500 -19.0000  19.0000 Du        
   1210 ****        -5.2500 -19.0000  19.2500 Du        
   1211 ****        -5.2500 -19.0000  19.5000 Du        
   1212 ****        -5.2500 -18.7500  18.0000 Du        
   1213 ****        -5.2500 -18.7500  18.2500 Du        
   1214 ****        -5.2500 -18.7500  18.5000 Du        
   1215 ****        -5.2500 -18.7500  18.7500 Du        
   1216 ****        -5.2500 -18.7500  19.0000 Du        
   1217 ****        -5.2500 -18.7500  19.2500 Du        
   1218 ****        -5.2500 -18.7500  23.5000 Du        
   1219 ****        -5.2500 -18.7500  23.7500 Du        
   1220 ****        -5.2500 -18.7500  24.0000 Du        
   1221 ****        -5.2500 -18.5000  18.0000 Du        
   1222 ****        -5.2500 -18.5000  18.2500 Du        
   1223 ****        -5.2500 -18.5000  18.5000 Du        
   1224 ****        -5.2500 -18.5000  18.7500 Du        
   1225 ****        -5.2500 -18.5000  19.0000 Du        
   1226 ****        -5.2500 -18.5000  19.2500 Du        
   1227 ****        -5.2500 -18.5000  23.0000 Du        
   1228 ****        -5.2500 -18.5000  23.2500 Du        
   1229 ****        -5.2500 -18.5000  23.5000 Du        
   1230 ****        -5.2500 -18.5000  23.7500 Du        
   1231 ****        -5.2500 -18.5000  24.0000 Du        
   1232 ****        -5.2500 -18.2500  18.0000 Du        
   1233 ****        -5.2500 -18.2500  18.2500 Du        
   1234 ****        -5.2500 -18.2500  18.5000 Du        
   1235 ****        -5.2500 -18.2500  18.7500 Du        
   1236 ****        -5.2500 -18.2500  19.0000 Du        
   1237 ****        -5.2500 -18.2500  19.2500 Du        
   1238 ****        -5.2500 -18.2500  22.7500 Du        
   1239 ****        -5.2500 -18.2500  23.0000 Du        
   1240 ****        -5.2500 -18.2500  23.2500 Du        
   1241 ****        -5.2500 -18.2500  23.5000 Du        
   1242 ****        -5.2500 -18.2500  23.7500 Du        
   1243 ****        -5.2500 -18.2500  24.0000 Du        
   1244 ****        -5.2500 -18.0000  18.0000 Du        
   1245 ****        -5.2500 -18.0000  18.2500 Du        
   1246 ****        -5.2500 -18.0000  18.5000 Du        
   1247 ****        -5.2500 -18.0000  18.7500 Du        
   1248 ****        -5.2500 -18.0000  19.0000 Du        
   1249 ****        -5.2500 -18.0000  22.2500 Du        
   1250 ****        -5.2500 -18.0000  22.5000 Du        
   1251 ****        -5.2500 -18.0000  22.7500 Du        
   1252 ****        -5.2500 -18.0000  23.0000 Du        
   1253 ****        -5.2500 -18.0000  23.2500 Du        
   1254 ****        -5.2500 -18.0000  23.5000 Du        
   1255 ****        -5.2500 -18.0000  23.7500 Du        
   1256 ****        -5.2500 -18.0000  24.0000 Du        
   1257 ****        -5.2500 -17.7500  17.7500 Du        
   1258 ****        -5.2500 -17.7500  18.0000 Du        
   1259 ****        -5.2500 -17.7500  18.2500 Du        
   1260 ****        -5.2500 -17.7500  18.5000 Du        
   1261 ****        -5.2500 -17.7500  18.7500 Du        
   1262 ****        -5.2500 -17.7500  19.0000 Du        
   1263 ****        -5.2500 -17.7500  22.0000 Du        
   1264 ****        -5.2500 -17.7500  22.2500 Du        
   1265 ****        -5.2500 -17.7500  22.5000 Du        
   1266 ****        -5.2500 -17.7500  22.7500 Du        
   1267 ****        -5.2500 -17.7500  23.0000 Du        
   1268 ****        -5.2500 -17.7500  23.2500 Du        
   1269 ****        -5.2500 -17.7500  23.5000 Du        
   1270 ****        -5.2500 -17.7500  23.7500 Du        
   1271 ****        -5.2500 -17.7500  24.0000 Du        
   1272 ****        -5.2500 -17.5000  17.7500 Du        
   1273 ****        -5.2500 -17.5000  18.0000 Du        
   1274 ****        -5.2500 -17.5000  18.2500 Du        
   1275 ****        -5.2500 -17.5000  18.5000 Du        
   1276 ****        -5.2500 -17.5000  18.7500 Du        
   1277 ****        -5.2500 -17.5000  19.0000 Du        
   1278 ****        -5.2500 -17.5000  22.2500 Du        
   1279 ****        -5.2500 -17.5000  22.5000 Du        
   1280 ****        -5.2500 -17.5000  22.7500 Du        
   1281 ****        -5.2500 -17.5000  23.0000 Du        
   1282 ****        -5.2500 -17.5000  23.2500 Du        
   1283 ****        -5.2500 -17.5000  23.5000 Du        
   1284 ****        -5.2500 -17.5000  23.7500 Du        
   1285 ****        -5.2500 -17.5000  24.0000 Du        
   1286 ****        -5.2500 -17.2500  17.5000 Du        
   1287 ****        -5.2500 -17.2500  17.7500 Du        
   1288 ****        -5.2500 -17.2500  18.0000 Du        
   1289 ****        -5.2500 -17.2500  18.2500 Du        
   1290 ****        -5.2500 -17.2500  18.5000 Du        
   1291 ****        -5.2500 -17.2500  18.7500 Du        
   1292 ****        -5.2500 -17.2500  19.0000 Du        
   1293 ****        -5.2500 -17.2500  22.0000 Du        
   1294 ****        -5.2500 -17.2500  22.2500 Du        
   1295 ****        -5.2500 -17.2500  22.5000 Du        
   1296 ****        -5.2500 -17.2500  22.7500 Du        
   1297 ****        -5.2500 -17.2500  23.0000 Du        
   1298 ****        -5.2500 -17.2500  23.2500 Du        
   1299 ****        -5.2500 -17.2500  23.5000 Du        
   1300 ****        -5.2500 -17.2500  23.7500 Du        
   1301 ****        -5.2500 -17.2500  24.0000 Du        
   1302 ****        -5.2500 -17.0000  17.2500 Du        
   1303 ****        -5.2500 -17.0000  17.5000 Du        
   1304 ****        -5.2500 -17.0000  17.7500 Du        
   1305 ****        -5.2500 -17.0000  18.0000 Du        
   1306 ****        -5.2500 -17.0000  18.2500 Du        
   1307 ****        -5.2500 -17.0000  18.5000 Du        
   1308 ****        -5.2500 -17.0000  18.7500 Du        
   1309 ****        -5.2500 -17.0000  19.0000 Du        
   1310 ****        -5.2500 -17.0000  19.2500 Du        
   1311 ****        -5.2500 -17.0000  22.0000 Du        
   1312 ****        -5.2500 -17.0000  22.2500 Du        
   1313 ****        -5.2500 -17.0000  22.5000 Du        
   1314 ****        -5.2500 -17.0000  22.7500 Du        
   1315 ****        -5.2500 -17.0000  23.0000 Du        
   1316 ****        -5.2500 -17.0000  23.2500 Du        
   1317 ****        -5.2500 -17.0000  23.5000 Du        
   1318 ****        -5.2500 -17.0000  23.7500 Du        
   1319 ****        -5.2500 -17.0000  24.0000 Du        
   1320 ****        -5.2500 -16.7500  17.2500 Du        
   1321 ****        -5.2500 -16.7500  17.5000 Du        
   1322 ****        -5.2500 -16.7500  17.7500 Du        
   1323 ****        -5.2500 -16.7500  18.0000 Du        
   1324 ****        -5.2500 -16.7500  18.2500 Du        
   1325 ****        -5.2500 -16.7500  18.5000 Du        
   1326 ****        -5.2500 -16.7500  18.7500 Du        
   1327 ****        -5.2500 -16.7500  19.0000 Du        
   1328 ****        -5.2500 -16.7500  19.2500 Du        
   1329 ****        -5.2500 -16.7500  22.2500 Du        
   1330 ****        -5.2500 -16.7500  22.5000 Du        
   1331 ****        -5.2500 -16.7500  22.7500 Du        
   1332 ****        -5.2500 -16.7500  23.0000 Du        
   1333 ****        -5.2500 -16.7500  23.2500 Du        
   1334 ****        -5.2500 -16.7500  23.5000 Du        
   1335 ****        -5.2500 -16.7500  23.7500 Du        
   1336 ****        -5.2500 -16.7500  24.0000 Du        
   1337 ****        -5.2500 -16.5000  17.2500 Du        
   1338 ****        -5.2500 -16.5000  17.5000 Du        
   1339 ****        -5.2500 -16.5000  17.7500 Du        
   1340 ****        -5.2500 -16.5000  18.0000 Du        
   1341 ****        -5.2500 -16.5000  18.2500 Du        
   1342 ****        -5.2500 -16.5000  18.5000 Du        
   1343 ****        -5.2500 -16.5000  18.7500 Du        
   1344 ****        -5.2500 -16.5000  19.0000 Du        
   1345 ****        -5.2500 -16.5000  23.0000 Du        
   1346 ****        -5.2500 -16.5000  23.2500 Du        
   1347 ****        -5.2500 -16.5000  23.5000 Du        
   1348 ****        -5.2500 -16.5000  23.7500 Du        
   1349 ****        -5.2500 -16.5000  24.0000 Du        
   1350 ****        -5.2500 -16.2500  17.2500 Du        
   1351 ****        -5.2500 -16.2500  17.5000 Du        
   1352 ****        -5.2500 -16.2500  17.7500 Du        
   1353 ****        -5.2500 -16.2500  18.0000 Du        
   1354 ****        -5.2500 -16.2500  18.2500 Du        
   1355 ****        -5.2500 -16.2500  18.5000 Du        
   1356 ****        -5.2500 -16.2500  18.7500 Du        
   1357 ****        -5.2500 -16.2500  19.0000 Du        
   1358 ****        -5.2500 -16.2500  23.0000 Du        
   1359 ****        -5.2500 -16.2500  23.2500 Du        
   1360 ****        -5.2500 -16.2500  23.5000 Du        
   1361 ****        -5.2500 -16.2500  23.7500 Du        
   1362 ****        -5.2500 -16.2500  24.0000 Du        
   1363 ****        -5.2500 -16.2500  24.2500 Du        
   1364 ****        -5.2500 -16.0000  17.5000 Du        
   1365 ****        -5.2500 -16.0000  17.7500 Du        
   1366 ****        -5.2500 -16.0000  18.0000 Du        
   1367 ****        -5.2500 -16.0000  18.2500 Du        
   1368 ****        -5.2500 -16.0000  18.5000 Du        
   1369 ****        -5.2500 -16.0000  18.7500 Du        
   1370 ****        -5.2500 -16.0000  19.0000 Du        
   1371 ****        -5.2500 -16.0000  19.2500 Du        
   1372 ****        -5.2500 -16.0000  23.2500 Du        
   1373 ****        -5.2500 -16.0000  23.5000 Du        
   1374 ****        -5.2500 -16.0000  23.7500 Du        
   1375 ****        -5.2500 -16.0000  24.0000 Du        
   1376 ****        -5.2500 -16.0000  24.2500 Du        
   1377 ****        -5.2500 -15.7500  17.5000 Du        
   1378 ****        -5.2500 -15.7500  17.7500 Du        
   1379 ****        -5.2500 -15.7500  18.0000 Du        
   1380 ****        -5.2500 -15.7500  18.2500 Du        
   1381 ****        -5.2500 -15.7500  18.5000 Du        
   1382 ****        -5.2500 -15.7500  18.7500 Du        
   1383 ****        -5.2500 -15.7500  19.0000 Du        
   1384 ****        -5.2500 -15.7500  19.2500 Du        
   1385 ****        -5.2500 -15.7500  23.5000 Du        
   1386 ****        -5.2500 -15.7500  23.7500 Du        
   1387 ****        -5.2500 -15.7500  24.0000 Du        
   1388 ****        -5.2500 -15.5000  17.5000 Du        
   1389 ****        -5.2500 -15.5000  17.7500 Du        
   1390 ****        -5.2500 -15.5000  18.0000 Du        
   1391 ****        -5.2500 -15.5000  18.2500 Du        
   1392 ****        -5.2500 -15.5000  18.5000 Du        
   1393 ****        -5.2500 -15.5000  18.7500 Du        
   1394 ****        -5.2500 -15.5000  19.0000 Du        
   1395 ****        -5.2500 -15.5000  19.2500 Du        
   1396 ****        -5.2500 -15.2500  17.7500 Du        
   1397 ****        -5.2500 -15.2500  18.0000 Du        
   1398 ****        -5.2500 -15.2500  18.2500 Du        
   1399 ****        -5.2500 -15.2500  18.5000 Du        
   1400 ****        -5.2500 -15.2500  18.7500 Du        
   1401 ****        -5.2500 -15.2500  19.0000 Du        
   1402 ****        -5.2500 -15.2500  19.2500 Du        
   1403 ****        -5.2500 -15.0000  17.7500 Du        
   1404 ****        -5.2500 -15.0000  18.0000 Du        
   1405 ****        -5.2500 -15.0000  18.2500 Du        
   1406 ****        -5.2500 -15.0000  18.5000 Du        
   1407 ****        -5.2500 -15.0000  18.7500 Du        
   1408 ****        -5.2500 -15.0000  19.0000 Du        
   1409 ****        -5.2500 -15.0000  19.2500 Du        
   1410 ****        -5.2500  -9.5000  21.2500 Du        
   1411 ****        -5.2500  -9.2500  21.2500 Du        
   1412 ****        -5.2500  -9.0000  21.2500 Du        
   1413 ****        -5.2500  -8.7500  21.0000 Du        
   1414 ****        -5.2500  -8.7500  21.2500 Du        
   1415 ****        -5.2500  -8.7500  21.5000 Du        
   1416 ****        -5.2500  -8.5000  21.0000 Du        
   1417 ****        -5.2500  -8.5000  21.2500 Du        
   1418 ****        -5.2500  -8.2500  20.7500 Du        
   1419 ****        -5.2500  -8.2500  21.0000 Du        
   1420 ****        -5.2500  -8.2500  21.2500 Du        
   1421 ****        -5.0000 -20.5000  18.7500 Du        
   1422 ****        -5.0000 -20.5000  19.0000 Du        
   1423 ****        -5.0000 -20.2500  18.0000 Du        
   1424 ****        -5.0000 -20.2500  18.2500 Du        
   1425 ****        -5.0000 -20.2500  18.5000 Du        
   1426 ****        -5.0000 -20.2500  18.7500 Du        
   1427 ****        -5.0000 -20.2500  19.0000 Du        
   1428 ****        -5.0000 -20.2500  19.2500 Du        
   1429 ****        -5.0000 -20.0000  17.7500 Du        
   1430 ****        -5.0000 -20.0000  18.0000 Du        
   1431 ****        -5.0000 -20.0000  18.2500 Du        
   1432 ****        -5.0000 -20.0000  18.5000 Du        
   1433 ****        -5.0000 -20.0000  18.7500 Du        
   1434 ****        -5.0000 -20.0000  19.0000 Du        
   1435 ****        -5.0000 -20.0000  19.2500 Du        
   1436 ****        -5.0000 -19.7500  17.7500 Du        
   1437 ****        -5.0000 -19.7500  18.0000 Du        
   1438 ****        -5.0000 -19.7500  18.2500 Du        
   1439 ****        -5.0000 -19.7500  18.5000 Du        
   1440 ****        -5.0000 -19.7500  18.7500 Du        
   1441 ****        -5.0000 -19.7500  19.0000 Du        
   1442 ****        -5.0000 -19.7500  19.2500 Du        
   1443 ****        -5.0000 -19.5000  17.7500 Du        
   1444 ****        -5.0000 -19.5000  18.0000 Du        
   1445 ****        -5.0000 -19.5000  18.2500 Du        
   1446 ****        -5.0000 -19.5000  18.5000 Du        
   1447 ****        -5.0000 -19.5000  18.7500 Du        
   1448 ****        -5.0000 -19.5000  19.0000 Du        
   1449 ****        -5.0000 -19.5000  19.2500 Du        
   1450 ****        -5.0000 -19.2500  17.7500 Du        
   1451 ****        -5.0000 -19.2500  18.0000 Du        
   1452 ****        -5.0000 -19.2500  18.2500 Du        
   1453 ****        -5.0000 -19.2500  18.5000 Du        
   1454 ****        -5.0000 -19.2500  18.7500 Du        
   1455 ****        -5.0000 -19.2500  19.0000 Du        
   1456 ****        -5.0000 -19.2500  19.2500 Du        
   1457 ****        -5.0000 -19.0000  17.7500 Du        
   1458 ****        -5.0000 -19.0000  18.0000 Du        
   1459 ****        -5.0000 -19.0000  18.2500 Du        
   1460 ****        -5.0000 -19.0000  18.5000 Du        
   1461 ****        -5.0000 -19.0000  18.7500 Du        
   1462 ****        -5.0000 -19.0000  19.0000 Du        
   1463 ****        -5.0000 -19.0000  24.0000 Du        
   1464 ****        -5.0000 -18.7500  17.7500 Du        
   1465 ****        -5.0000 -18.7500  18.0000 Du        
   1466 ****        -5.0000 -18.7500  18.2500 Du        
   1467 ****        -5.0000 -18.7500  18.5000 Du        
   1468 ****        -5.0000 -18.7500  18.7500 Du        
   1469 ****        -5.0000 -18.7500  19.0000 Du        
   1470 ****        -5.0000 -18.7500  23.5000 Du        
   1471 ****        -5.0000 -18.7500  23.7500 Du        
   1472 ****        -5.0000 -18.7500  24.0000 Du        
   1473 ****        -5.0000 -18.5000  17.7500 Du        
   1474 ****        -5.0000 -18.5000  18.0000 Du        
   1475 ****        -5.0000 -18.5000  18.2500 Du        
   1476 ****        -5.0000 -18.5000  18.5000 Du        
   1477 ****        -5.0000 -18.5000  18.7500 Du        
   1478 ****        -5.0000 -18.5000  23.0000 Du        
   1479 ****        -5.0000 -18.5000  23.2500 Du        
   1480 ****        -5.0000 -18.5000  23.5000 Du        
   1481 ****        -5.0000 -18.5000  23.7500 Du        
   1482 ****        -5.0000 -18.5000  24.0000 Du        
   1483 ****        -5.0000 -18.2500  17.7500 Du        
   1484 ****        -5.0000 -18.2500  18.0000 Du        
   1485 ****        -5.0000 -18.2500  18.2500 Du        
   1486 ****        -5.0000 -18.2500  18.5000 Du        
   1487 ****        -5.0000 -18.2500  18.7500 Du        
   1488 ****        -5.0000 -18.2500  22.7500 Du        
   1489 ****        -5.0000 -18.2500  23.0000 Du        
   1490 ****        -5.0000 -18.2500  23.2500 Du        
   1491 ****        -5.0000 -18.2500  23.5000 Du        
   1492 ****        -5.0000 -18.2500  23.7500 Du        
   1493 ****        -5.0000 -18.2500  24.0000 Du        
   1494 ****        -5.0000 -18.0000  17.7500 Du        
   1495 ****        -5.0000 -18.0000  18.0000 Du        
   1496 ****        -5.0000 -18.0000  18.2500 Du        
   1497 ****        -5.0000 -18.0000  18.5000 Du        
   1498 ****        -5.0000 -18.0000  18.7500 Du        
   1499 ****        -5.0000 -18.0000  22.5000 Du        
   1500 ****        -5.0000 -18.0000  22.7500 Du        
   1501 ****        -5.0000 -18.0000  23.0000 Du        
   1502 ****        -5.0000 -18.0000  23.2500 Du        
   1503 ****        -5.0000 -18.0000  23.5000 Du        
   1504 ****        -5.0000 -18.0000  23.7500 Du        
   1505 ****        -5.0000 -18.0000  24.0000 Du        
   1506 ****        -5.0000 -17.7500  17.5000 Du        
   1507 ****        -5.0000 -17.7500  17.7500 Du        
   1508 ****        -5.0000 -17.7500  18.0000 Du        
   1509 ****        -5.0000 -17.7500  18.2500 Du        
   1510 ****        -5.0000 -17.7500  18.5000 Du        
   1511 ****        -5.0000 -17.7500  22.2500 Du        
   1512 ****        -5.0000 -17.7500  22.5000 Du        
   1513 ****        -5.0000 -17.7500  22.7500 Du        
   1514 ****        -5.0000 -17.7500  23.0000 Du        
   1515 ****        -5.0000 -17.7500  23.2500 Du        
   1516 ****        -5.0000 -17.7500  23.5000 Du        
   1517 ****        -5.0000 -17.7500  23.7500 Du        
   1518 ****        -5.0000 -17.7500  24.0000 Du        
   1519 ****        -5.0000 -17.5000  17.5000 Du        
   1520 ****        -5.0000 -17.5000  17.7500 Du        
   1521 ****        -5.0000 -17.5000  18.0000 Du        
   1522 ****        -5.0000 -17.5000  18.2500 Du        
   1523 ****        -5.0000 -17.5000  18.5000 Du        
   1524 ****        -5.0000 -17.5000  18.7500 Du        
   1525 ****        -5.0000 -17.5000  22.2500 Du        
   1526 ****        -5.0000 -17.5000  22.5000 Du        
   1527 ****        -5.0000 -17.5000  22.7500 Du        
   1528 ****        -5.0000 -17.5000  23.0000 Du        
   1529 ****        -5.0000 -17.5000  23.2500 Du        
   1530 ****        -5.0000 -17.5000  23.5000 Du        
   1531 ****        -5.0000 -17.5000  23.7500 Du        
   1532 ****        -5.0000 -17.5000  24.0000 Du        
   1533 ****        -5.0000 -17.2500  17.2500 Du        
   1534 ****        -5.0000 -17.2500  17.5000 Du        
   1535 ****        -5.0000 -17.2500  17.7500 Du        
   1536 ****        -5.0000 -17.2500  18.0000 Du        
   1537 ****        -5.0000 -17.2500  18.2500 Du        
   1538 ****        -5.0000 -17.2500  18.5000 Du        
   1539 ****        -5.0000 -17.2500  18.7500 Du        
   1540 ****        -5.0000 -17.2500  22.2500 Du        
   1541 ****        -5.0000 -17.2500  22.5000 Du        
   1542 ****        -5.0000 -17.2500  22.7500 Du        
   1543 ****        -5.0000 -17.2500  23.0000 Du        
   1544 ****        -5.0000 -17.2500  23.2500 Du        
   1545 ****        -5.0000 -17.2500  23.5000 Du        
   1546 ****        -5.0000 -17.2500  23.7500 Du        
   1547 ****        -5.0000 -17.2500  24.0000 Du        
   1548 ****        -5.0000 -17.2500  24.2500 Du        
   1549 ****        -5.0000 -17.0000  17.2500 Du        
   1550 ****        -5.0000 -17.0000  17.5000 Du        
   1551 ****        -5.0000 -17.0000  17.7500 Du        
   1552 ****        -5.0000 -17.0000  18.0000 Du        
   1553 ****        -5.0000 -17.0000  18.2500 Du        
   1554 ****        -5.0000 -17.0000  18.5000 Du        
   1555 ****        -5.0000 -17.0000  18.7500 Du        
   1556 ****        -5.0000 -17.0000  22.0000 Du        
   1557 ****        -5.0000 -17.0000  22.2500 Du        
   1558 ****        -5.0000 -17.0000  22.5000 Du        
   1559 ****        -5.0000 -17.0000  22.7500 Du        
   1560 ****        -5.0000 -17.0000  23.0000 Du        
   1561 ****        -5.0000 -17.0000  23.2500 Du        
   1562 ****        -5.0000 -17.0000  23.5000 Du        
   1563 ****        -5.0000 -17.0000  23.7500 Du        
   1564 ****        -5.0000 -17.0000  24.0000 Du        
   1565 ****        -5.0000 -17.0000  24.2500 Du        
   1566 ****        -5.0000 -16.7500  17.2500 Du        
   1567 ****        -5.0000 -16.7500  17.5000 Du        
   1568 ****        -5.0000 -16.7500  17.7500 Du        
   1569 ****        -5.0000 -16.7500  18.0000 Du        
   1570 ****        -5.0000 -16.7500  18.2500 Du        
   1571 ****        -5.0000 -16.7500  18.5000 Du        
   1572 ****        -5.0000 -16.7500  18.7500 Du        
   1573 ****        -5.0000 -16.7500  19.0000 Du        
   1574 ****        -5.0000 -16.7500  22.0000 Du        
   1575 ****        -5.0000 -16.7500  22.2500 Du        
   1576 ****        -5.0000 -16.7500  22.5000 Du        
   1577 ****        -5.0000 -16.7500  22.7500 Du        
   1578 ****        -5.0000 -16.7500  23.0000 Du        
   1579 ****        -5.0000 -16.7500  23.2500 Du        
   1580 ****        -5.0000 -16.7500  23.5000 Du        
   1581 ****        -5.0000 -16.7500  23.7500 Du        
   1582 ****        -5.0000 -16.7500  24.0000 Du        
   1583 ****        -5.0000 -16.7500  24.2500 Du        
   1584 ****        -5.0000 -16.5000  17.2500 Du        
   1585 ****        -5.0000 -16.5000  17.5000 Du        
   1586 ****        -5.0000 -16.5000  17.7500 Du        
   1587 ****        -5.0000 -16.5000  18.0000 Du        
   1588 ****        -5.0000 -16.5000  18.2500 Du        
   1589 ****        -5.0000 -16.5000  18.5000 Du        
   1590 ****        -5.0000 -16.5000  18.7500 Du        
   1591 ****        -5.0000 -16.5000  19.0000 Du        
   1592 ****        -5.0000 -16.5000  22.7500 Du        
   1593 ****        -5.0000 -16.5000  23.0000 Du        
   1594 ****        -5.0000 -16.5000  23.2500 Du        
   1595 ****        -5.0000 -16.5000  23.5000 Du        
   1596 ****        -5.0000 -16.5000  23.7500 Du        
   1597 ****        -5.0000 -16.5000  24.0000 Du        
   1598 ****        -5.0000 -16.5000  24.2500 Du        
   1599 ****        -5.0000 -16.2500  17.5000 Du        
   1600 ****        -5.0000 -16.2500  17.7500 Du        
   1601 ****        -5.0000 -16.2500  18.0000 Du        
   1602 ****        -5.0000 -16.2500  18.2500 Du        
   1603 ****        -5.0000 -16.2500  18.5000 Du        
   1604 ****        -5.0000 -16.2500  18.7500 Du        
   1605 ****        -5.0000 -16.2500  19.0000 Du        
   1606 ****        -5.0000 -16.2500  22.7500 Du        
   1607 ****        -5.0000 -16.2500  23.0000 Du        
   1608 ****        -5.0000 -16.2500  23.2500 Du        
   1609 ****        -5.0000 -16.2500  23.5000 Du        
   1610 ****        -5.0000 -16.2500  23.7500 Du        
   1611 ****        -5.0000 -16.2500  24.0000 Du        
   1612 ****        -5.0000 -16.2500  24.2500 Du        
   1613 ****        -5.0000 -16.0000  17.5000 Du        
   1614 ****        -5.0000 -16.0000  17.7500 Du        
   1615 ****        -5.0000 -16.0000  18.0000 Du        
   1616 ****        -5.0000 -16.0000  18.2500 Du        
   1617 ****        -5.0000 -16.0000  18.5000 Du        
   1618 ****        -5.0000 -16.0000  18.7500 Du        
   1619 ****        -5.0000 -16.0000  19.0000 Du        
   1620 ****        -5.0000 -16.0000  19.2500 Du        
   1621 ****        -5.0000 -16.0000  23.0000 Du        
   1622 ****        -5.0000 -16.0000  23.2500 Du        
   1623 ****        -5.0000 -16.0000  23.5000 Du        
   1624 ****        -5.0000 -16.0000  23.7500 Du        
   1625 ****        -5.0000 -16.0000  24.0000 Du        
   1626 ****        -5.0000 -16.0000  24.2500 Du        
   1627 ****        -5.0000 -15.7500  17.5000 Du        
   1628 ****        -5.0000 -15.7500  17.7500 Du        
   1629 ****        -5.0000 -15.7500  18.0000 Du        
   1630 ****        -5.0000 -15.7500  18.2500 Du        
   1631 ****        -5.0000 -15.7500  18.5000 Du        
   1632 ****        -5.0000 -15.7500  18.7500 Du        
   1633 ****        -5.0000 -15.7500  19.0000 Du        
   1634 ****        -5.0000 -15.7500  19.2500 Du        
   1635 ****        -5.0000 -15.7500  23.2500 Du        
   1636 ****        -5.0000 -15.7500  23.5000 Du        
   1637 ****        -5.0000 -15.7500  23.7500 Du        
   1638 ****        -5.0000 -15.7500  24.0000 Du        
   1639 ****        -5.0000 -15.5000  17.7500 Du        
   1640 ****        -5.0000 -15.5000  18.0000 Du        
   1641 ****        -5.0000 -15.5000  18.2500 Du        
   1642 ****        -5.0000 -15.5000  18.5000 Du        
   1643 ****        -5.0000 -15.5000  18.7500 Du        
   1644 ****        -5.0000 -15.5000  19.0000 Du        
   1645 ****        -5.0000 -15.5000  19.2500 Du        
   1646 ****        -5.0000 -15.2500  17.7500 Du        
   1647 ****        -5.0000 -15.2500  18.0000 Du        
   1648 ****        -5.0000 -15.2500  18.2500 Du        
   1649 ****        -5.0000 -15.2500  18.5000 Du        
   1650 ****        -5.0000 -15.2500  18.7500 Du        
   1651 ****        -5.0000 -15.2500  19.0000 Du        
   1652 ****        -5.0000 -15.2500  19.2500 Du        
   1653 ****        -5.0000 -15.2500  19.5000 Du        
   1654 ****        -5.0000 -15.0000  17.7500 Du        
   1655 ****        -5.0000 -15.0000  18.0000 Du        
   1656 ****        -5.0000 -15.0000  18.2500 Du        
   1657 ****        -5.0000 -15.0000  18.5000 Du        
   1658 ****        -5.0000 -15.0000  18.7500 Du        
   1659 ****        -5.0000 -15.0000  19.0000 Du        
   1660 ****        -5.0000 -15.0000  19.2500 Du        
   1661 ****        -5.0000  -9.2500  21.2500 Du        
   1662 ****        -5.0000  -9.0000  21.0000 Du        
   1663 ****        -5.0000  -9.0000  21.2500 Du        
   1664 ****        -5.0000  -9.0000  21.5000 Du        
   1665 ****        -5.0000  -8.7500  21.0000 Du        
   1666 ****        -5.0000  -8.7500  21.2500 Du        
   1667 ****        -5.0000  -8.7500  21.5000 Du        
   1668 ****        -5.0000  -8.5000  21.0000 Du        
   1669 ****        -5.0000  -8.5000  21.2500 Du        
   1670 ****        -5.0000  -8.2500  20.7500 Du        
   1671 ****        -5.0000  -8.2500  21.0000 Du        
   1672 ****        -5.0000  -8.2500  21.2500 Du        
   1673 ****        -5.0000  -8.2500  21.5000 Du        
   1674 ****        -4.7500 -20.2500  18.0000 Du        
   1675 ****        -4.7500 -20.2500  18.2500 Du        
   1676 ****        -4.7500 -20.2500  18.5000 Du        
   1677 ****        -4.7500 -20.2500  18.7500 Du        
   1678 ****        -4.7500 -20.2500  19.0000 Du        
   1679 ****        -4.7500 -20.0000  17.5000 Du        
   1680 ****        -4.7500 -20.0000  17.7500 Du        
   1681 ****        -4.7500 -20.0000  18.0000 Du        
   1682 ****        -4.7500 -20.0000  18.2500 Du        
   1683 ****        -4.7500 -20.0000  18.5000 Du        
   1684 ****        -4.7500 -20.0000  18.7500 Du        
   1685 ****        -4.7500 -20.0000  19.0000 Du        
   1686 ****        -4.7500 -20.0000  19.2500 Du        
   1687 ****        -4.7500 -19.7500  17.5000 Du        
   1688 ****        -4.7500 -19.7500  17.7500 Du        
   1689 ****        -4.7500 -19.7500  18.0000 Du        
   1690 ****        -4.7500 -19.7500  18.2500 Du        
   1691 ****        -4.7500 -19.7500  18.5000 Du        
   1692 ****        -4.7500 -19.7500  18.7500 Du        
   1693 ****        -4.7500 -19.7500  19.0000 Du        
   1694 ****        -4.7500 -19.5000  17.5000 Du        
   1695 ****        -4.7500 -19.5000  17.7500 Du        
   1696 ****        -4.7500 -19.5000  18.0000 Du        
   1697 ****        -4.7500 -19.5000  18.2500 Du        
   1698 ****        -4.7500 -19.5000  18.5000 Du        
   1699 ****        -4.7500 -19.5000  18.7500 Du        
   1700 ****        -4.7500 -19.5000  19.0000 Du        
   1701 ****        -4.7500 -19.2500  17.5000 Du        
   1702 ****        -4.7500 -19.2500  17.7500 Du        
   1703 ****        -4.7500 -19.2500  18.0000 Du        
   1704 ****        -4.7500 -19.2500  18.2500 Du        
   1705 ****        -4.7500 -19.2500  18.5000 Du        
   1706 ****        -4.7500 -19.2500  18.7500 Du        
   1707 ****        -4.7500 -19.0000  17.5000 Du        
   1708 ****        -4.7500 -19.0000  17.7500 Du        
   1709 ****        -4.7500 -19.0000  18.0000 Du        
   1710 ****        -4.7500 -19.0000  18.2500 Du        
   1711 ****        -4.7500 -19.0000  18.5000 Du        
   1712 ****        -4.7500 -19.0000  18.7500 Du        
   1713 ****        -4.7500 -19.0000  23.7500 Du        
   1714 ****        -4.7500 -19.0000  24.0000 Du        
   1715 ****        -4.7500 -19.0000  24.2500 Du        
   1716 ****        -4.7500 -18.7500  17.5000 Du        
   1717 ****        -4.7500 -18.7500  17.7500 Du        
   1718 ****        -4.7500 -18.7500  18.0000 Du        
   1719 ****        -4.7500 -18.7500  18.2500 Du        
   1720 ****        -4.7500 -18.7500  18.5000 Du        
   1721 ****        -4.7500 -18.7500  23.5000 Du        
   1722 ****        -4.7500 -18.7500  23.7500 Du        
   1723 ****        -4.7500 -18.7500  24.0000 Du        
   1724 ****        -4.7500 -18.7500  24.2500 Du        
   1725 ****        -4.7500 -18.5000  17.5000 Du        
   1726 ****        -4.7500 -18.5000  17.7500 Du        
   1727 ****        -4.7500 -18.5000  18.0000 Du        
   1728 ****        -4.7500 -18.5000  18.2500 Du        
   1729 ****        -4.7500 -18.5000  18.5000 Du        
   1730 ****        -4.7500 -18.5000  23.0000 Du        
   1731 ****        -4.7500 -18.5000  23.2500 Du        
   1732 ****        -4.7500 -18.5000  23.5000 Du        
   1733 ****        -4.7500 -18.5000  23.7500 Du        
   1734 ****        -4.7500 -18.5000  24.0000 Du        
   1735 ****        -4.7500 -18.5000  24.2500 Du        
   1736 ****        -4.7500 -18.2500  17.5000 Du        
   1737 ****        -4.7500 -18.2500  17.7500 Du        
   1738 ****        -4.7500 -18.2500  18.0000 Du        
   1739 ****        -4.7500 -18.2500  18.2500 Du        
   1740 ****        -4.7500 -18.2500  22.7500 Du        
   1741 ****        -4.7500 -18.2500  23.0000 Du        
   1742 ****        -4.7500 -18.2500  23.2500 Du        
   1743 ****        -4.7500 -18.2500  23.5000 Du        
   1744 ****        -4.7500 -18.2500  23.7500 Du        
   1745 ****        -4.7500 -18.2500  24.0000 Du        
   1746 ****        -4.7500 -18.2500  24.2500 Du        
   1747 ****        -4.7500 -18.0000  17.2500 Du        
   1748 ****        -4.7500 -18.0000  17.5000 Du        
   1749 ****        -4.7500 -18.0000  17.7500 Du        
   1750 ****        -4.7500 -18.0000  18.0000 Du        
   1751 ****        -4.7500 -18.0000  18.2500 Du        
   1752 ****        -4.7500 -18.0000  22.7500 Du        
   1753 ****        -4.7500 -18.0000  23.0000 Du        
   1754 ****        -4.7500 -18.0000  23.2500 Du        
   1755 ****        -4.7500 -18.0000  23.5000 Du        
   1756 ****        -4.7500 -18.0000  23.7500 Du        
   1757 ****        -4.7500 -18.0000  24.0000 Du        
   1758 ****        -4.7500 -18.0000  24.2500 Du        
   1759 ****        -4.7500 -17.7500  17.2500 Du        
   1760 ****        -4.7500 -17.7500  17.5000 Du        
   1761 ****        -4.7500 -17.7500  17.7500 Du        
   1762 ****        -4.7500 -17.7500  18.0000 Du        
   1763 ****        -4.7500 -17.7500  18.2500 Du        
   1764 ****        -4.7500 -17.7500  22.5000 Du        
   1765 ****        -4.7500 -17.7500  22.7500 Du        
   1766 ****        -4.7500 -17.7500  23.0000 Du        
   1767 ****        -4.7500 -17.7500  23.2500 Du        
   1768 ****        -4.7500 -17.7500  23.5000 Du        
   1769 ****        -4.7500 -17.7500  23.7500 Du        
   1770 ****        -4.7500 -17.7500  24.0000 Du        
   1771 ****        -4.7500 -17.7500  24.2500 Du        
   1772 ****        -4.7500 -17.5000  17.2500 Du        
   1773 ****        -4.7500 -17.5000  17.5000 Du        
   1774 ****        -4.7500 -17.5000  17.7500 Du        
   1775 ****        -4.7500 -17.5000  18.0000 Du        
   1776 ****        -4.7500 -17.5000  18.2500 Du        
   1777 ****        -4.7500 -17.5000  22.5000 Du        
   1778 ****        -4.7500 -17.5000  22.7500 Du        
   1779 ****        -4.7500 -17.5000  23.0000 Du        
   1780 ****        -4.7500 -17.5000  23.2500 Du        
   1781 ****        -4.7500 -17.5000  23.5000 Du        
   1782 ****        -4.7500 -17.5000  23.7500 Du        
   1783 ****        -4.7500 -17.5000  24.0000 Du        
   1784 ****        -4.7500 -17.5000  24.2500 Du        
   1785 ****        -4.7500 -17.2500  17.0000 Du        
   1786 ****        -4.7500 -17.2500  17.2500 Du        
   1787 ****        -4.7500 -17.2500  17.5000 Du        
   1788 ****        -4.7500 -17.2500  17.7500 Du        
   1789 ****        -4.7500 -17.2500  18.0000 Du        
   1790 ****        -4.7500 -17.2500  18.2500 Du        
   1791 ****        -4.7500 -17.2500  22.5000 Du        
   1792 ****        -4.7500 -17.2500  22.7500 Du        
   1793 ****        -4.7500 -17.2500  23.0000 Du        
   1794 ****        -4.7500 -17.2500  23.2500 Du        
   1795 ****        -4.7500 -17.2500  23.5000 Du        
   1796 ****        -4.7500 -17.2500  23.7500 Du        
   1797 ****        -4.7500 -17.2500  24.0000 Du        
   1798 ****        -4.7500 -17.2500  24.2500 Du        
   1799 ****        -4.7500 -17.0000  17.0000 Du        
   1800 ****        -4.7500 -17.0000  17.2500 Du        
   1801 ****        -4.7500 -17.0000  17.5000 Du        
   1802 ****        -4.7500 -17.0000  17.7500 Du        
   1803 ****        -4.7500 -17.0000  18.0000 Du        
   1804 ****        -4.7500 -17.0000  18.2500 Du        
   1805 ****        -4.7500 -17.0000  18.5000 Du        
   1806 ****        -4.7500 -17.0000  22.2500 Du        
   1807 ****        -4.7500 -17.0000  22.5000 Du        
   1808 ****        -4.7500 -17.0000  22.7500 Du        
   1809 ****        -4.7500 -17.0000  23.0000 Du        
   1810 ****        -4.7500 -17.0000  23.2500 Du        
   1811 ****        -4.7500 -17.0000  23.5000 Du        
   1812 ****        -4.7500 -17.0000  23.7500 Du        
   1813 ****        -4.7500 -17.0000  24.0000 Du        
   1814 ****        -4.7500 -17.0000  24.2500 Du        
   1815 ****        -4.7500 -16.7500  17.2500 Du        
   1816 ****        -4.7500 -16.7500  17.5000 Du        
   1817 ****        -4.7500 -16.7500  17.7500 Du        
   1818 ****        -4.7500 -16.7500  18.0000 Du        
   1819 ****        -4.7500 -16.7500  18.2500 Du        
   1820 ****        -4.7500 -16.7500  18.5000 Du        
   1821 ****        -4.7500 -16.7500  18.7500 Du        
   1822 ****        -4.7500 -16.7500  22.2500 Du        
   1823 ****        -4.7500 -16.7500  22.5000 Du        
   1824 ****        -4.7500 -16.7500  22.7500 Du        
   1825 ****        -4.7500 -16.7500  23.0000 Du        
   1826 ****        -4.7500 -16.7500  23.2500 Du        
   1827 ****        -4.7500 -16.7500  23.5000 Du        
   1828 ****        -4.7500 -16.7500  23.7500 Du        
   1829 ****        -4.7500 -16.7500  24.0000 Du        
   1830 ****        -4.7500 -16.7500  24.2500 Du        
   1831 ****        -4.7500 -16.5000  17.2500 Du        
   1832 ****        -4.7500 -16.5000  17.5000 Du        
   1833 ****        -4.7500 -16.5000  17.7500 Du        
   1834 ****        -4.7500 -16.5000  18.0000 Du        
   1835 ****        -4.7500 -16.5000  18.2500 Du        
   1836 ****        -4.7500 -16.5000  18.5000 Du        
   1837 ****        -4.7500 -16.5000  18.7500 Du        
   1838 ****        -4.7500 -16.5000  22.7500 Du        
   1839 ****        -4.7500 -16.5000  23.0000 Du        
   1840 ****        -4.7500 -16.5000  23.2500 Du        
   1841 ****        -4.7500 -16.5000  23.5000 Du        
   1842 ****        -4.7500 -16.5000  23.7500 Du        
   1843 ****        -4.7500 -16.5000  24.0000 Du        
   1844 ****        -4.7500 -16.5000  24.2500 Du        
   1845 ****        -4.7500 -16.2500  17.5000 Du        
   1846 ****        -4.7500 -16.2500  17.7500 Du        
   1847 ****        -4.7500 -16.2500  18.0000 Du        
   1848 ****        -4.7500 -16.2500  18.2500 Du        
   1849 ****        -4.7500 -16.2500  18.5000 Du        
   1850 ****        -4.7500 -16.2500  18.7500 Du        
   1851 ****        -4.7500 -16.2500  19.0000 Du        
   1852 ****        -4.7500 -16.2500  22.7500 Du        
   1853 ****        -4.7500 -16.2500  23.0000 Du        
   1854 ****        -4.7500 -16.2500  23.2500 Du        
   1855 ****        -4.7500 -16.2500  23.5000 Du        
   1856 ****        -4.7500 -16.2500  23.7500 Du        
   1857 ****        -4.7500 -16.2500  24.0000 Du        
   1858 ****        -4.7500 -16.2500  24.2500 Du        
   1859 ****        -4.7500 -16.0000  17.5000 Du        
   1860 ****        -4.7500 -16.0000  17.7500 Du        
   1861 ****        -4.7500 -16.0000  18.0000 Du        
   1862 ****        -4.7500 -16.0000  18.2500 Du        
   1863 ****        -4.7500 -16.0000  18.5000 Du        
   1864 ****        -4.7500 -16.0000  18.7500 Du        
   1865 ****        -4.7500 -16.0000  19.0000 Du        
   1866 ****        -4.7500 -16.0000  22.7500 Du        
   1867 ****        -4.7500 -16.0000  23.0000 Du        
   1868 ****        -4.7500 -16.0000  23.2500 Du        
   1869 ****        -4.7500 -16.0000  23.5000 Du        
   1870 ****        -4.7500 -16.0000  23.7500 Du        
   1871 ****        -4.7500 -16.0000  24.0000 Du        
   1872 ****        -4.7500 -16.0000  24.2500 Du        
   1873 ****        -4.7500 -15.7500  17.7500 Du        
   1874 ****        -4.7500 -15.7500  18.0000 Du        
   1875 ****        -4.7500 -15.7500  18.2500 Du        
   1876 ****        -4.7500 -15.7500  18.5000 Du        
   1877 ****        -4.7500 -15.7500  18.7500 Du        
   1878 ****        -4.7500 -15.7500  19.0000 Du        
   1879 ****        -4.7500 -15.7500  22.7500 Du        
   1880 ****        -4.7500 -15.7500  23.0000 Du        
   1881 ****        -4.7500 -15.7500  23.2500 Du        
   1882 ****        -4.7500 -15.7500  23.5000 Du        
   1883 ****        -4.7500 -15.7500  23.7500 Du        
   1884 ****        -4.7500 -15.7500  24.0000 Du        
   1885 ****        -4.7500 -15.5000  17.7500 Du        
   1886 ****        -4.7500 -15.5000  18.0000 Du        
   1887 ****        -4.7500 -15.5000  18.2500 Du        
   1888 ****        -4.7500 -15.5000  18.5000 Du        
   1889 ****        -4.7500 -15.5000  18.7500 Du        
   1890 ****        -4.7500 -15.5000  19.0000 Du        
   1891 ****        -4.7500 -15.2500  17.7500 Du        
   1892 ****        -4.7500 -15.2500  18.0000 Du        
   1893 ****        -4.7500 -15.2500  18.2500 Du        
   1894 ****        -4.7500 -15.2500  18.5000 Du        
   1895 ****        -4.7500 -15.2500  18.7500 Du        
   1896 ****        -4.7500 -15.2500  19.0000 Du        
   1897 ****        -4.7500 -15.0000  17.7500 Du        
   1898 ****        -4.7500 -15.0000  18.0000 Du        
   1899 ****        -4.7500 -15.0000  18.2500 Du        
   1900 ****        -4.7500 -15.0000  18.5000 Du        
   1901 ****        -4.7500 -15.0000  18.7500 Du        
   1902 ****        -4.7500 -15.0000  19.0000 Du        
   1903 ****        -4.7500  -9.0000  21.2500 Du        
   1904 ****        -4.7500  -8.7500  21.0000 Du        
   1905 ****        -4.7500  -8.7500  21.2500 Du        
   1906 ****        -4.7500  -8.5000  21.0000 Du        
   1907 ****        -4.7500  -8.5000  21.2500 Du        
   1908 ****        -4.7500  -8.2500  20.7500 Du        
   1909 ****        -4.7500  -8.2500  21.0000 Du        
   1910 ****        -4.7500  -8.2500  21.2500 Du        
   1911 ****        -4.5000 -20.0000  17.2500 Du        
   1912 ****        -4.5000 -20.0000  17.5000 Du        
   1913 ****        -4.5000 -20.0000  17.7500 Du        
   1914 ****        -4.5000 -20.0000  18.0000 Du        
   1915 ****        -4.5000 -20.0000  18.2500 Du        
   1916 ****        -4.5000 -20.0000  18.5000 Du        
   1917 ****        -4.5000 -20.0000  18.7500 Du        
   1918 ****        -4.5000 -19.7500  17.0000 Du        
   1919 ****        -4.5000 -19.7500  17.2500 Du        
   1920 ****        -4.5000 -19.7500  17.5000 Du        
   1921 ****        -4.5000 -19.7500  17.7500 Du        
   1922 ****        -4.5000 -19.7500  18.0000 Du        
   1923 ****        -4.5000 -19.7500  18.2500 Du        
   1924 ****        -4.5000 -19.7500  18.5000 Du        
   1925 ****        -4.5000 -19.7500  18.7500 Du        
   1926 ****        -4.5000 -19.5000  17.2500 Du        
   1927 ****        -4.5000 -19.5000  17.5000 Du        
   1928 ****        -4.5000 -19.5000  17.7500 Du        
   1929 ****        -4.5000 -19.5000  18.0000 Du        
   1930 ****        -4.5000 -19.5000  18.2500 Du        
   1931 ****        -4.5000 -19.5000  18.5000 Du        
   1932 ****        -4.5000 -19.2500  17.2500 Du        
   1933 ****        -4.5000 -19.2500  17.5000 Du        
   1934 ****        -4.5000 -19.2500  17.7500 Du        
   1935 ****        -4.5000 -19.2500  18.0000 Du        
   1936 ****        -4.5000 -19.2500  18.2500 Du        
   1937 ****        -4.5000 -19.2500  18.5000 Du        
   1938 ****        -4.5000 -19.2500  24.2500 Du        
   1939 ****        -4.5000 -19.2500  24.5000 Du        
   1940 ****        -4.5000 -19.0000  17.2500 Du        
   1941 ****        -4.5000 -19.0000  17.5000 Du        
   1942 ****        -4.5000 -19.0000  17.7500 Du        
   1943 ****        -4.5000 -19.0000  18.0000 Du        
   1944 ****        -4.5000 -19.0000  18.2500 Du        
   1945 ****        -4.5000 -19.0000  23.7500 Du        
   1946 ****        -4.5000 -19.0000  24.0000 Du        
   1947 ****        -4.5000 -19.0000  24.2500 Du        
   1948 ****        -4.5000 -19.0000  24.5000 Du        
   1949 ****        -4.5000 -18.7500  17.2500 Du        
   1950 ****        -4.5000 -18.7500  17.5000 Du        
   1951 ****        -4.5000 -18.7500  17.7500 Du        
   1952 ****        -4.5000 -18.7500  18.0000 Du        
   1953 ****        -4.5000 -18.7500  18.2500 Du        
   1954 ****        -4.5000 -18.7500  23.2500 Du        
   1955 ****        -4.5000 -18.7500  23.5000 Du        
   1956 ****        -4.5000 -18.7500  23.7500 Du        
   1957 ****        -4.5000 -18.7500  24.0000 Du        
   1958 ****        -4.5000 -18.7500  24.2500 Du        
   1959 ****        -4.5000 -18.7500  24.5000 Du        
   1960 ****        -4.5000 -18.5000  17.2500 Du        
   1961 ****        -4.5000 -18.5000  17.5000 Du        
   1962 ****        -4.5000 -18.5000  17.7500 Du        
   1963 ****        -4.5000 -18.5000  18.0000 Du        
   1964 ****        -4.5000 -18.5000  23.2500 Du        
   1965 ****        -4.5000 -18.5000  23.5000 Du        
   1966 ****        -4.5000 -18.5000  23.7500 Du        
   1967 ****        -4.5000 -18.5000  24.0000 Du        
   1968 ****        -4.5000 -18.5000  24.2500 Du        
   1969 ****        -4.5000 -18.5000  24.5000 Du        
   1970 ****        -4.5000 -18.2500  17.2500 Du        
   1971 ****        -4.5000 -18.2500  17.5000 Du        
   1972 ****        -4.5000 -18.2500  17.7500 Du        
   1973 ****        -4.5000 -18.2500  18.0000 Du        
   1974 ****        -4.5000 -18.2500  23.0000 Du        
   1975 ****        -4.5000 -18.2500  23.2500 Du        
   1976 ****        -4.5000 -18.2500  23.5000 Du        
   1977 ****        -4.5000 -18.2500  23.7500 Du        
   1978 ****        -4.5000 -18.2500  24.0000 Du        
   1979 ****        -4.5000 -18.2500  24.2500 Du        
   1980 ****        -4.5000 -18.2500  24.5000 Du        
   1981 ****        -4.5000 -18.0000  17.2500 Du        
   1982 ****        -4.5000 -18.0000  17.5000 Du        
   1983 ****        -4.5000 -18.0000  17.7500 Du        
   1984 ****        -4.5000 -18.0000  18.0000 Du        
   1985 ****        -4.5000 -18.0000  23.0000 Du        
   1986 ****        -4.5000 -18.0000  23.2500 Du        
   1987 ****        -4.5000 -18.0000  23.5000 Du        
   1988 ****        -4.5000 -18.0000  23.7500 Du        
   1989 ****        -4.5000 -18.0000  24.0000 Du        
   1990 ****        -4.5000 -18.0000  24.2500 Du        
   1991 ****        -4.5000 -18.0000  24.5000 Du        
   1992 ****        -4.5000 -17.7500  17.0000 Du        
   1993 ****        -4.5000 -17.7500  17.2500 Du        
   1994 ****        -4.5000 -17.7500  17.5000 Du        
   1995 ****        -4.5000 -17.7500  17.7500 Du        
   1996 ****        -4.5000 -17.7500  18.0000 Du        
   1997 ****        -4.5000 -17.7500  23.0000 Du        
   1998 ****        -4.5000 -17.7500  23.2500 Du        
   1999 ****        -4.5000 -17.7500  23.5000 Du        
   2000 ****        -4.5000 -17.7500  23.7500 Du        
   2001 ****        -4.5000 -17.7500  24.0000 Du        
   2002 ****        -4.5000 -17.7500  24.2500 Du        
   2003 ****        -4.5000 -17.7500  24.5000 Du        
   2004 ****        -4.5000 -17.5000  17.2500 Du        
   2005 ****        -4.5000 -17.5000  17.5000 Du        
   2006 ****        -4.5000 -17.5000  17.7500 Du        
   2007 ****        -4.5000 -17.5000  22.7500 Du        
   2008 ****        -4.5000 -17.5000  23.0000 Du        
   2009 ****        -4.5000 -17.5000  23.2500 Du        
   2010 ****        -4.5000 -17.5000  23.5000 Du        
   2011 ****        -4.5000 -17.5000  23.7500 Du        
   2012 ****        -4.5000 -17.5000  24.0000 Du        
   2013 ****        -4.5000 -17.5000  24.2500 Du        
   2014 ****        -4.5000 -17.2500  17.0000 Du        
   2015 ****        -4.5000 -17.2500  17.2500 Du        
   2016 ****        -4.5000 -17.2500  17.5000 Du        
   2017 ****        -4.5000 -17.2500  17.7500 Du        
   2018 ****        -4.5000 -17.2500  22.7500 Du        
   2019 ****        -4.5000 -17.2500  23.0000 Du        
   2020 ****        -4.5000 -17.2500  23.2500 Du        
   2021 ****        -4.5000 -17.2500  23.5000 Du        
   2022 ****        -4.5000 -17.2500  23.7500 Du        
   2023 ****        -4.5000 -17.2500  24.0000 Du        
   2024 ****        -4.5000 -17.2500  24.2500 Du        
   2025 ****        -4.5000 -17.0000  17.0000 Du        
   2026 ****        -4.5000 -17.0000  17.2500 Du        
   2027 ****        -4.5000 -17.0000  17.5000 Du        
   2028 ****        -4.5000 -17.0000  17.7500 Du        
   2029 ****        -4.5000 -17.0000  18.0000 Du        
   2030 ****        -4.5000 -17.0000  22.5000 Du        
   2031 ****        -4.5000 -17.0000  22.7500 Du        
   2032 ****        -4.5000 -17.0000  23.0000 Du        
   2033 ****        -4.5000 -17.0000  23.2500 Du        
   2034 ****        -4.5000 -17.0000  23.5000 Du        
   2035 ****        -4.5000 -17.0000  23.7500 Du        
   2036 ****        -4.5000 -17.0000  24.0000 Du        
   2037 ****        -4.5000 -17.0000  24.2500 Du        
   2038 ****        -4.5000 -16.7500  17.2500 Du        
   2039 ****        -4.5000 -16.7500  17.5000 Du        
   2040 ****        -4.5000 -16.7500  17.7500 Du        
   2041 ****        -4.5000 -16.7500  18.0000 Du        
   2042 ****        -4.5000 -16.7500  18.2500 Du        
   2043 ****        -4.5000 -16.7500  22.5000 Du        
   2044 ****        -4.5000 -16.7500  22.7500 Du        
   2045 ****        -4.5000 -16.7500  23.0000 Du        
   2046 ****        -4.5000 -16.7500  23.2500 Du        
   2047 ****        -4.5000 -16.7500  23.5000 Du        
   2048 ****        -4.5000 -16.7500  23.7500 Du        
   2049 ****        -4.5000 -16.7500  24.0000 Du        
   2050 ****        -4.5000 -16.7500  24.2500 Du        
   2051 ****        -4.5000 -16.7500  24.5000 Du        
   2052 ****        -4.5000 -16.5000  17.5000 Du        
   2053 ****        -4.5000 -16.5000  17.7500 Du        
   2054 ****        -4.5000 -16.5000  18.0000 Du        
   2055 ****        -4.5000 -16.5000  18.2500 Du        
   2056 ****        -4.5000 -16.5000  22.5000 Du        
   2057 ****        -4.5000 -16.5000  22.7500 Du        
   2058 ****        -4.5000 -16.5000  23.0000 Du        
   2059 ****        -4.5000 -16.5000  23.2500 Du        
   2060 ****        -4.5000 -16.5000  23.5000 Du        
   2061 ****        -4.5000 -16.5000  23.7500 Du        
   2062 ****        -4.5000 -16.5000  24.0000 Du        
   2063 ****        -4.5000 -16.5000  24.2500 Du        
   2064 ****        -4.5000 -16.2500  17.5000 Du        
   2065 ****        -4.5000 -16.2500  17.7500 Du        
   2066 ****        -4.5000 -16.2500  18.0000 Du        
   2067 ****        -4.5000 -16.2500  18.2500 Du        
   2068 ****        -4.5000 -16.2500  18.5000 Du        
   2069 ****        -4.5000 -16.2500  22.0000 Du        
   2070 ****        -4.5000 -16.2500  22.2500 Du        
   2071 ****        -4.5000 -16.2500  22.5000 Du        
   2072 ****        -4.5000 -16.2500  22.7500 Du        
   2073 ****        -4.5000 -16.2500  23.0000 Du        
   2074 ****        -4.5000 -16.2500  23.2500 Du        
   2075 ****        -4.5000 -16.2500  23.5000 Du        
   2076 ****        -4.5000 -16.2500  23.7500 Du        
   2077 ****        -4.5000 -16.2500  24.0000 Du        
   2078 ****        -4.5000 -16.2500  24.2500 Du        
   2079 ****        -4.5000 -16.0000  17.7500 Du        
   2080 ****        -4.5000 -16.0000  18.0000 Du        
   2081 ****        -4.5000 -16.0000  18.2500 Du        
   2082 ****        -4.5000 -16.0000  18.5000 Du        
   2083 ****        -4.5000 -16.0000  22.0000 Du        
   2084 ****        -4.5000 -16.0000  22.2500 Du        
   2085 ****        -4.5000 -16.0000  22.5000 Du        
   2086 ****        -4.5000 -16.0000  22.7500 Du        
   2087 ****        -4.5000 -16.0000  23.0000 Du        
   2088 ****        -4.5000 -16.0000  23.2500 Du        
   2089 ****        -4.5000 -16.0000  23.5000 Du        
   2090 ****        -4.5000 -16.0000  23.7500 Du        
   2091 ****        -4.5000 -16.0000  24.0000 Du        
   2092 ****        -4.5000 -16.0000  24.2500 Du        
   2093 ****        -4.5000 -15.7500  17.7500 Du        
   2094 ****        -4.5000 -15.7500  18.0000 Du        
   2095 ****        -4.5000 -15.7500  18.2500 Du        
   2096 ****        -4.5000 -15.7500  18.5000 Du        
   2097 ****        -4.5000 -15.7500  18.7500 Du        
   2098 ****        -4.5000 -15.7500  22.2500 Du        
   2099 ****        -4.5000 -15.7500  22.5000 Du        
   2100 ****        -4.5000 -15.7500  22.7500 Du        
   2101 ****        -4.5000 -15.7500  23.0000 Du        
   2102 ****        -4.5000 -15.7500  23.2500 Du        
   2103 ****        -4.5000 -15.7500  23.5000 Du        
   2104 ****        -4.5000 -15.7500  23.7500 Du        
   2105 ****        -4.5000 -15.7500  24.0000 Du        
   2106 ****        -4.5000 -15.5000  17.7500 Du        
   2107 ****        -4.5000 -15.5000  18.0000 Du        
   2108 ****        -4.5000 -15.5000  18.2500 Du        
   2109 ****        -4.5000 -15.5000  18.5000 Du        
   2110 ****        -4.5000 -15.5000  18.7500 Du        
   2111 ****        -4.5000 -15.5000  19.0000 Du        
   2112 ****        -4.5000 -15.5000  23.0000 Du        
   2113 ****        -4.5000 -15.5000  23.2500 Du        
   2114 ****        -4.5000 -15.5000  23.5000 Du        
   2115 ****        -4.5000 -15.5000  23.7500 Du        
   2116 ****        -4.5000 -15.2500  17.7500 Du        
   2117 ****        -4.5000 -15.2500  18.0000 Du        
   2118 ****        -4.5000 -15.2500  18.2500 Du        
   2119 ****        -4.5000 -15.2500  18.5000 Du        
   2120 ****        -4.5000 -15.2500  18.7500 Du        
   2121 ****        -4.5000 -15.2500  19.0000 Du        
   2122 ****        -4.5000 -15.2500  23.0000 Du        
   2123 ****        -4.5000 -15.2500  23.5000 Du        
   2124 ****        -4.5000 -15.0000  17.7500 Du        
   2125 ****        -4.5000 -15.0000  18.0000 Du        
   2126 ****        -4.5000 -15.0000  18.2500 Du        
   2127 ****        -4.5000 -15.0000  18.7500 Du        
   2128 ****        -4.5000  -8.5000  21.0000 Du        
   2129 ****        -4.5000  -8.5000  21.2500 Du        
   2130 ****        -4.5000  -8.2500  20.7500 Du        
   2131 ****        -4.5000  -8.2500  21.0000 Du        
   2132 ****        -4.5000  -8.2500  21.2500 Du        
   2133 ****        -4.2500 -20.0000  16.7500 Du        
   2134 ****        -4.2500 -20.0000  17.0000 Du        
   2135 ****        -4.2500 -20.0000  17.2500 Du        
   2136 ****        -4.2500 -20.0000  17.5000 Du        
   2137 ****        -4.2500 -20.0000  17.7500 Du        
   2138 ****        -4.2500 -20.0000  18.0000 Du        
   2139 ****        -4.2500 -20.0000  18.2500 Du        
   2140 ****        -4.2500 -19.7500  16.7500 Du        
   2141 ****        -4.2500 -19.7500  17.0000 Du        
   2142 ****        -4.2500 -19.7500  17.2500 Du        
   2143 ****        -4.2500 -19.7500  17.5000 Du        
   2144 ****        -4.2500 -19.7500  17.7500 Du        
   2145 ****        -4.2500 -19.7500  18.0000 Du        
   2146 ****        -4.2500 -19.7500  18.2500 Du        
   2147 ****        -4.2500 -19.7500  18.5000 Du        
   2148 ****        -4.2500 -19.5000  16.7500 Du        
   2149 ****        -4.2500 -19.5000  17.0000 Du        
   2150 ****        -4.2500 -19.5000  17.2500 Du        
   2151 ****        -4.2500 -19.5000  17.5000 Du        
   2152 ****        -4.2500 -19.5000  17.7500 Du        
   2153 ****        -4.2500 -19.5000  18.0000 Du        
   2154 ****        -4.2500 -19.5000  18.2500 Du        
   2155 ****        -4.2500 -19.5000  24.5000 Du        
   2156 ****        -4.2500 -19.5000  24.7500 Du        
   2157 ****        -4.2500 -19.2500  16.7500 Du        
   2158 ****        -4.2500 -19.2500  17.0000 Du        
   2159 ****        -4.2500 -19.2500  17.2500 Du        
   2160 ****        -4.2500 -19.2500  17.5000 Du        
   2161 ****        -4.2500 -19.2500  17.7500 Du        
   2162 ****        -4.2500 -19.2500  18.0000 Du        
   2163 ****        -4.2500 -19.2500  24.0000 Du        
   2164 ****        -4.2500 -19.2500  24.2500 Du        
   2165 ****        -4.2500 -19.2500  24.5000 Du        
   2166 ****        -4.2500 -19.2500  24.7500 Du        
   2167 ****        -4.2500 -19.0000  17.0000 Du        
   2168 ****        -4.2500 -19.0000  17.2500 Du        
   2169 ****        -4.2500 -19.0000  17.5000 Du        
   2170 ****        -4.2500 -19.0000  17.7500 Du        
   2171 ****        -4.2500 -19.0000  18.0000 Du        
   2172 ****        -4.2500 -19.0000  23.7500 Du        
   2173 ****        -4.2500 -19.0000  24.0000 Du        
   2174 ****        -4.2500 -19.0000  24.2500 Du        
   2175 ****        -4.2500 -19.0000  24.5000 Du        
   2176 ****        -4.2500 -19.0000  24.7500 Du        
   2177 ****        -4.2500 -18.7500  17.0000 Du        
   2178 ****        -4.2500 -18.7500  17.2500 Du        
   2179 ****        -4.2500 -18.7500  17.5000 Du        
   2180 ****        -4.2500 -18.7500  17.7500 Du        
   2181 ****        -4.2500 -18.7500  18.0000 Du        
   2182 ****        -4.2500 -18.7500  23.5000 Du        
   2183 ****        -4.2500 -18.7500  23.7500 Du        
   2184 ****        -4.2500 -18.7500  24.0000 Du        
   2185 ****        -4.2500 -18.7500  24.2500 Du        
   2186 ****        -4.2500 -18.7500  24.5000 Du        
   2187 ****        -4.2500 -18.7500  24.7500 Du        
   2188 ****        -4.2500 -18.5000  17.0000 Du        
   2189 ****        -4.2500 -18.5000  17.2500 Du        
   2190 ****        -4.2500 -18.5000  17.5000 Du        
   2191 ****        -4.2500 -18.5000  17.7500 Du        
   2192 ****        -4.2500 -18.5000  23.5000 Du        
   2193 ****        -4.2500 -18.5000  23.7500 Du        
   2194 ****        -4.2500 -18.5000  24.0000 Du        
   2195 ****        -4.2500 -18.5000  24.2500 Du        
   2196 ****        -4.2500 -18.5000  24.5000 Du        
   2197 ****        -4.2500 -18.5000  24.7500 Du        
   2198 ****        -4.2500 -18.2500  17.0000 Du        
   2199 ****        -4.2500 -18.2500  17.2500 Du        
   2200 ****        -4.2500 -18.2500  17.5000 Du        
   2201 ****        -4.2500 -18.2500  17.7500 Du        
   2202 ****        -4.2500 -18.2500  23.2500 Du        
   2203 ****        -4.2500 -18.2500  23.5000 Du        
   2204 ****        -4.2500 -18.2500  23.7500 Du        
   2205 ****        -4.2500 -18.2500  24.0000 Du        
   2206 ****        -4.2500 -18.2500  24.2500 Du        
   2207 ****        -4.2500 -18.2500  24.5000 Du        
   2208 ****        -4.2500 -18.0000  17.0000 Du        
   2209 ****        -4.2500 -18.0000  17.2500 Du        
   2210 ****        -4.2500 -18.0000  17.5000 Du        
   2211 ****        -4.2500 -18.0000  17.7500 Du        
   2212 ****        -4.2500 -18.0000  23.2500 Du        
   2213 ****        -4.2500 -18.0000  23.5000 Du        
   2214 ****        -4.2500 -18.0000  23.7500 Du        
   2215 ****        -4.2500 -18.0000  24.0000 Du        
   2216 ****        -4.2500 -18.0000  24.2500 Du        
   2217 ****        -4.2500 -18.0000  24.5000 Du        
   2218 ****        -4.2500 -17.7500  16.7500 Du        
   2219 ****        -4.2500 -17.7500  17.0000 Du        
   2220 ****        -4.2500 -17.7500  17.2500 Du        
   2221 ****        -4.2500 -17.7500  17.5000 Du        
   2222 ****        -4.2500 -17.7500  17.7500 Du        
   2223 ****        -4.2500 -17.7500  23.2500 Du        
   2224 ****        -4.2500 -17.7500  23.5000 Du        
   2225 ****        -4.2500 -17.7500  23.7500 Du        
   2226 ****        -4.2500 -17.7500  24.0000 Du        
   2227 ****        -4.2500 -17.7500  24.2500 Du        
   2228 ****        -4.2500 -17.7500  24.5000 Du        
   2229 ****        -4.2500 -17.5000  17.0000 Du        
   2230 ****        -4.2500 -17.5000  17.2500 Du        
   2231 ****        -4.2500 -17.5000  17.5000 Du        
   2232 ****        -4.2500 -17.5000  23.2500 Du        
   2233 ****        -4.2500 -17.5000  23.5000 Du        
   2234 ****        -4.2500 -17.5000  23.7500 Du        
   2235 ****        -4.2500 -17.5000  24.0000 Du        
   2236 ****        -4.2500 -17.5000  24.2500 Du        
   2237 ****        -4.2500 -17.5000  24.5000 Du        
   2238 ****        -4.2500 -17.2500  16.7500 Du        
   2239 ****        -4.2500 -17.2500  17.0000 Du        
   2240 ****        -4.2500 -17.2500  17.2500 Du        
   2241 ****        -4.2500 -17.2500  17.5000 Du        
   2242 ****        -4.2500 -17.2500  17.7500 Du        
   2243 ****        -4.2500 -17.2500  23.0000 Du        
   2244 ****        -4.2500 -17.2500  23.2500 Du        
   2245 ****        -4.2500 -17.2500  23.5000 Du        
   2246 ****        -4.2500 -17.2500  23.7500 Du        
   2247 ****        -4.2500 -17.2500  24.0000 Du        
   2248 ****        -4.2500 -17.2500  24.2500 Du        
   2249 ****        -4.2500 -17.2500  24.5000 Du        
   2250 ****        -4.2500 -17.0000  17.0000 Du        
   2251 ****        -4.2500 -17.0000  17.2500 Du        
   2252 ****        -4.2500 -17.0000  17.5000 Du        
   2253 ****        -4.2500 -17.0000  17.7500 Du        
   2254 ****        -4.2500 -17.0000  18.0000 Du        
   2255 ****        -4.2500 -17.0000  22.7500 Du        
   2256 ****        -4.2500 -17.0000  23.0000 Du        
   2257 ****        -4.2500 -17.0000  23.2500 Du        
   2258 ****        -4.2500 -17.0000  23.5000 Du        
   2259 ****        -4.2500 -17.0000  23.7500 Du        
   2260 ****        -4.2500 -17.0000  24.0000 Du        
   2261 ****        -4.2500 -17.0000  24.2500 Du        
   2262 ****        -4.2500 -17.0000  24.5000 Du        
   2263 ****        -4.2500 -16.7500  17.0000 Du        
   2264 ****        -4.2500 -16.7500  17.2500 Du        
   2265 ****        -4.2500 -16.7500  17.5000 Du        
   2266 ****        -4.2500 -16.7500  17.7500 Du        
   2267 ****        -4.2500 -16.7500  18.0000 Du        
   2268 ****        -4.2500 -16.7500  22.7500 Du        
   2269 ****        -4.2500 -16.7500  23.0000 Du        
   2270 ****        -4.2500 -16.7500  23.2500 Du        
   2271 ****        -4.2500 -16.7500  23.5000 Du        
   2272 ****        -4.2500 -16.7500  23.7500 Du        
   2273 ****        -4.2500 -16.7500  24.0000 Du        
   2274 ****        -4.2500 -16.7500  24.2500 Du        
   2275 ****        -4.2500 -16.5000  17.2500 Du        
   2276 ****        -4.2500 -16.5000  17.5000 Du        
   2277 ****        -4.2500 -16.5000  17.7500 Du        
   2278 ****        -4.2500 -16.5000  18.0000 Du        
   2279 ****        -4.2500 -16.5000  18.2500 Du        
   2280 ****        -4.2500 -16.5000  22.5000 Du        
   2281 ****        -4.2500 -16.5000  22.7500 Du        
   2282 ****        -4.2500 -16.5000  23.0000 Du        
   2283 ****        -4.2500 -16.5000  23.2500 Du        
   2284 ****        -4.2500 -16.5000  23.5000 Du        
   2285 ****        -4.2500 -16.5000  23.7500 Du        
   2286 ****        -4.2500 -16.5000  24.0000 Du        
   2287 ****        -4.2500 -16.5000  24.2500 Du        
   2288 ****        -4.2500 -16.2500  17.2500 Du        
   2289 ****        -4.2500 -16.2500  17.5000 Du        
   2290 ****        -4.2500 -16.2500  17.7500 Du        
   2291 ****        -4.2500 -16.2500  18.0000 Du        
   2292 ****        -4.2500 -16.2500  18.2500 Du        
   2293 ****        -4.2500 -16.2500  18.5000 Du        
   2294 ****        -4.2500 -16.2500  18.7500 Du        
   2295 ****        -4.2500 -16.2500  22.2500 Du        
   2296 ****        -4.2500 -16.2500  22.5000 Du        
   2297 ****        -4.2500 -16.2500  22.7500 Du        
   2298 ****        -4.2500 -16.2500  23.0000 Du        
   2299 ****        -4.2500 -16.2500  23.2500 Du        
   2300 ****        -4.2500 -16.2500  23.5000 Du        
   2301 ****        -4.2500 -16.2500  23.7500 Du        
   2302 ****        -4.2500 -16.2500  24.0000 Du        
   2303 ****        -4.2500 -16.2500  24.2500 Du        
   2304 ****        -4.2500 -16.0000  17.5000 Du        
   2305 ****        -4.2500 -16.0000  17.7500 Du        
   2306 ****        -4.2500 -16.0000  18.0000 Du        
   2307 ****        -4.2500 -16.0000  18.2500 Du        
   2308 ****        -4.2500 -16.0000  18.5000 Du        
   2309 ****        -4.2500 -16.0000  18.7500 Du        
   2310 ****        -4.2500 -16.0000  19.0000 Du        
   2311 ****        -4.2500 -16.0000  22.0000 Du        
   2312 ****        -4.2500 -16.0000  22.2500 Du        
   2313 ****        -4.2500 -16.0000  22.5000 Du        
   2314 ****        -4.2500 -16.0000  22.7500 Du        
   2315 ****        -4.2500 -16.0000  23.0000 Du        
   2316 ****        -4.2500 -16.0000  23.2500 Du        
   2317 ****        -4.2500 -16.0000  23.5000 Du        
   2318 ****        -4.2500 -16.0000  23.7500 Du        
   2319 ****        -4.2500 -16.0000  24.0000 Du        
   2320 ****        -4.2500 -15.7500  17.5000 Du        
   2321 ****        -4.2500 -15.7500  17.7500 Du        
   2322 ****        -4.2500 -15.7500  18.0000 Du        
   2323 ****        -4.2500 -15.7500  18.2500 Du        
   2324 ****        -4.2500 -15.7500  18.5000 Du        
   2325 ****        -4.2500 -15.7500  18.7500 Du        
   2326 ****        -4.2500 -15.7500  19.0000 Du        
   2327 ****        -4.2500 -15.7500  22.0000 Du        
   2328 ****        -4.2500 -15.7500  22.2500 Du        
   2329 ****        -4.2500 -15.7500  22.5000 Du        
   2330 ****        -4.2500 -15.7500  22.7500 Du        
   2331 ****        -4.2500 -15.7500  23.0000 Du        
   2332 ****        -4.2500 -15.7500  23.2500 Du        
   2333 ****        -4.2500 -15.7500  23.5000 Du        
   2334 ****        -4.2500 -15.7500  23.7500 Du        
   2335 ****        -4.2500 -15.7500  24.0000 Du        
   2336 ****        -4.2500 -15.5000  17.5000 Du        
   2337 ****        -4.2500 -15.5000  17.7500 Du        
   2338 ****        -4.2500 -15.5000  18.0000 Du        
   2339 ****        -4.2500 -15.5000  18.2500 Du        
   2340 ****        -4.2500 -15.5000  18.5000 Du        
   2341 ****        -4.2500 -15.5000  18.7500 Du        
   2342 ****        -4.2500 -15.5000  19.0000 Du        
   2343 ****        -4.2500 -15.5000  22.5000 Du        
   2344 ****        -4.2500 -15.5000  22.7500 Du        
   2345 ****        -4.2500 -15.5000  23.0000 Du        
   2346 ****        -4.2500 -15.5000  23.2500 Du        
   2347 ****        -4.2500 -15.5000  23.5000 Du        
   2348 ****        -4.2500 -15.5000  23.7500 Du        
   2349 ****        -4.2500 -15.2500  17.7500 Du        
   2350 ****        -4.2500 -15.2500  18.0000 Du        
   2351 ****        -4.2500 -15.2500  18.2500 Du        
   2352 ****        -4.2500 -15.2500  18.5000 Du        
   2353 ****        -4.2500 -15.2500  18.7500 Du        
   2354 ****        -4.2500 -15.2500  19.0000 Du        
   2355 ****        -4.2500 -15.2500  19.2500 Du        
   2356 ****        -4.2500 -15.2500  22.5000 Du        
   2357 ****        -4.2500 -15.2500  22.7500 Du        
   2358 ****        -4.2500 -15.2500  23.0000 Du        
   2359 ****        -4.2500 -15.2500  23.2500 Du        
   2360 ****        -4.2500 -15.2500  23.5000 Du        
   2361 ****        -4.2500 -15.0000  17.7500 Du        
   2362 ****        -4.2500 -15.0000  18.0000 Du        
   2363 ****        -4.2500 -15.0000  18.2500 Du        
   2364 ****        -4.2500 -15.0000  18.5000 Du        
   2365 ****        -4.2500 -15.0000  18.7500 Du        
   2366 ****        -4.2500 -15.0000  19.0000 Du        
   2367 ****        -4.2500 -15.0000  22.7500 Du        
   2368 ****        -4.2500 -15.0000  23.0000 Du        
   2369 ****        -4.2500 -15.0000  23.2500 Du        
   2370 ****        -4.2500  -8.2500  20.7500 Du        
   2371 ****        -4.2500  -8.2500  21.0000 Du        
   2372 ****        -4.2500  -8.2500  21.2500 Du        
   2373 ****        -4.0000 -20.0000  16.2500 Du        
   2374 ****        -4.0000 -20.0000  16.5000 Du        
   2375 ****        -4.0000 -20.0000  16.7500 Du        
   2376 ****        -4.0000 -20.0000  17.0000 Du        
   2377 ****        -4.0000 -20.0000  17.2500 Du        
   2378 ****        -4.0000 -19.7500  16.5000 Du        
   2379 ****        -4.0000 -19.7500  16.7500 Du        
   2380 ****        -4.0000 -19.7500  17.0000 Du        
   2381 ****        -4.0000 -19.7500  17.2500 Du        
   2382 ****        -4.0000 -19.7500  17.5000 Du        
   2383 ****        -4.0000 -19.7500  17.7500 Du        
   2384 ****        -4.0000 -19.7500  18.0000 Du        
   2385 ****        -4.0000 -19.7500  24.7500 Du        
   2386 ****        -4.0000 -19.7500  25.0000 Du        
   2387 ****        -4.0000 -19.5000  16.5000 Du        
   2388 ****        -4.0000 -19.5000  16.7500 Du        
   2389 ****        -4.0000 -19.5000  17.0000 Du        
   2390 ****        -4.0000 -19.5000  17.2500 Du        
   2391 ****        -4.0000 -19.5000  17.5000 Du        
   2392 ****        -4.0000 -19.5000  17.7500 Du        
   2393 ****        -4.0000 -19.5000  24.2500 Du        
   2394 ****        -4.0000 -19.5000  24.5000 Du        
   2395 ****        -4.0000 -19.5000  24.7500 Du        
   2396 ****        -4.0000 -19.5000  25.0000 Du        
   2397 ****        -4.0000 -19.2500  16.5000 Du        
   2398 ****        -4.0000 -19.2500  16.7500 Du        
   2399 ****        -4.0000 -19.2500  17.0000 Du        
   2400 ****        -4.0000 -19.2500  17.2500 Du        
   2401 ****        -4.0000 -19.2500  17.5000 Du        
   2402 ****        -4.0000 -19.2500  17.7500 Du        
   2403 ****        -4.0000 -19.2500  23.7500 Du        
   2404 ****        -4.0000 -19.2500  24.0000 Du        
   2405 ****        -4.0000 -19.2500  24.2500 Du        
   2406 ****        -4.0000 -19.2500  24.5000 Du        
   2407 ****        -4.0000 -19.2500  24.7500 Du        
   2408 ****        -4.0000 -19.2500  25.0000 Du        
   2409 ****        -4.0000 -19.0000  16.7500 Du        
   2410 ****        -4.0000 -19.0000  17.0000 Du        
   2411 ****        -4.0000 -19.0000  17.2500 Du        
   2412 ****        -4.0000 -19.0000  17.5000 Du        
   2413 ****        -4.0000 -19.0000  23.7500 Du        
   2414 ****        -4.0000 -19.0000  24.0000 Du        
   2415 ****        -4.0000 -19.0000  24.2500 Du        
   2416 ****        -4.0000 -19.0000  24.5000 Du        
   2417 ****        -4.0000 -19.0000  24.7500 Du        
   2418 ****        -4.0000 -19.0000  25.0000 Du        
   2419 ****        -4.0000 -18.7500  16.7500 Du        
   2420 ****        -4.0000 -18.7500  17.0000 Du        
   2421 ****        -4.0000 -18.7500  17.2500 Du        
   2422 ****        -4.0000 -18.7500  17.5000 Du        
   2423 ****        -4.0000 -18.7500  23.5000 Du        
   2424 ****        -4.0000 -18.7500  23.7500 Du        
   2425 ****        -4.0000 -18.7500  24.0000 Du        
   2426 ****        -4.0000 -18.7500  24.2500 Du        
   2427 ****        -4.0000 -18.7500  24.5000 Du        
   2428 ****        -4.0000 -18.7500  24.7500 Du        
   2429 ****        -4.0000 -18.7500  25.0000 Du        
   2430 ****        -4.0000 -18.5000  16.7500 Du        
   2431 ****        -4.0000 -18.5000  17.0000 Du        
   2432 ****        -4.0000 -18.5000  17.2500 Du        
   2433 ****        -4.0000 -18.5000  23.5000 Du        
   2434 ****        -4.0000 -18.5000  23.7500 Du        
   2435 ****        -4.0000 -18.5000  24.0000 Du        
   2436 ****        -4.0000 -18.5000  24.2500 Du        
   2437 ****        -4.0000 -18.5000  24.5000 Du        
   2438 ****        -4.0000 -18.5000  24.7500 Du        
   2439 ****        -4.0000 -18.2500  16.7500 Du        
   2440 ****        -4.0000 -18.2500  17.0000 Du        
   2441 ****        -4.0000 -18.2500  17.2500 Du        
   2442 ****        -4.0000 -18.2500  23.5000 Du        
   2443 ****        -4.0000 -18.2500  23.7500 Du        
   2444 ****        -4.0000 -18.2500  24.0000 Du        
   2445 ****        -4.0000 -18.2500  24.2500 Du        
   2446 ****        -4.0000 -18.2500  24.5000 Du        
   2447 ****        -4.0000 -18.2500  24.7500 Du        
   2448 ****        -4.0000 -18.0000  16.7500 Du        
   2449 ****        -4.0000 -18.0000  17.0000 Du        
   2450 ****        -4.0000 -18.0000  17.2500 Du        
   2451 ****        -4.0000 -18.0000  23.5000 Du        
   2452 ****        -4.0000 -18.0000  23.7500 Du        
   2453 ****        -4.0000 -18.0000  24.0000 Du        
   2454 ****        -4.0000 -18.0000  24.2500 Du        
   2455 ****        -4.0000 -18.0000  24.5000 Du        
   2456 ****        -4.0000 -18.0000  24.7500 Du        
   2457 ****        -4.0000 -17.7500  16.7500 Du        
   2458 ****        -4.0000 -17.7500  17.0000 Du        
   2459 ****        -4.0000 -17.7500  17.2500 Du        
   2460 ****        -4.0000 -17.7500  23.5000 Du        
   2461 ****        -4.0000 -17.7500  23.7500 Du        
   2462 ****        -4.0000 -17.7500  24.0000 Du        
   2463 ****        -4.0000 -17.7500  24.2500 Du        
   2464 ****        -4.0000 -17.7500  24.5000 Du        
   2465 ****        -4.0000 -17.7500  24.7500 Du        
   2466 ****        -4.0000 -17.5000  16.7500 Du        
   2467 ****        -4.0000 -17.5000  17.0000 Du        
   2468 ****        -4.0000 -17.5000  17.2500 Du        
   2469 ****        -4.0000 -17.5000  17.5000 Du        
   2470 ****        -4.0000 -17.5000  23.5000 Du        
   2471 ****        -4.0000 -17.5000  23.7500 Du        
   2472 ****        -4.0000 -17.5000  24.0000 Du        
   2473 ****        -4.0000 -17.5000  24.2500 Du        
   2474 ****        -4.0000 -17.5000  24.5000 Du        
   2475 ****        -4.0000 -17.2500  16.7500 Du        
   2476 ****        -4.0000 -17.2500  17.0000 Du        
   2477 ****        -4.0000 -17.2500  17.2500 Du        
   2478 ****        -4.0000 -17.2500  17.5000 Du        
   2479 ****        -4.0000 -17.2500  17.7500 Du        
   2480 ****        -4.0000 -17.2500  23.2500 Du        
   2481 ****        -4.0000 -17.2500  23.5000 Du        
   2482 ****        -4.0000 -17.2500  23.7500 Du        
   2483 ****        -4.0000 -17.2500  24.0000 Du        
   2484 ****        -4.0000 -17.2500  24.2500 Du        
   2485 ****        -4.0000 -17.2500  24.5000 Du        
   2486 ****        -4.0000 -17.0000  16.7500 Du        
   2487 ****        -4.0000 -17.0000  17.0000 Du        
   2488 ****        -4.0000 -17.0000  17.2500 Du        
   2489 ****        -4.0000 -17.0000  17.5000 Du        
   2490 ****        -4.0000 -17.0000  17.7500 Du        
   2491 ****        -4.0000 -17.0000  18.0000 Du        
   2492 ****        -4.0000 -17.0000  23.0000 Du        
   2493 ****        -4.0000 -17.0000  23.2500 Du        
   2494 ****        -4.0000 -17.0000  23.5000 Du        
   2495 ****        -4.0000 -17.0000  23.7500 Du        
   2496 ****        -4.0000 -17.0000  24.0000 Du        
   2497 ****        -4.0000 -17.0000  24.2500 Du        
   2498 ****        -4.0000 -17.0000  24.5000 Du        
   2499 ****        -4.0000 -16.7500  17.0000 Du        
   2500 ****        -4.0000 -16.7500  17.2500 Du        
   2501 ****        -4.0000 -16.7500  17.5000 Du        
   2502 ****        -4.0000 -16.7500  17.7500 Du        
   2503 ****        -4.0000 -16.7500  18.0000 Du        
   2504 ****        -4.0000 -16.7500  22.7500 Du        
   2505 ****        -4.0000 -16.7500  23.0000 Du        
   2506 ****        -4.0000 -16.7500  23.2500 Du        
   2507 ****        -4.0000 -16.7500  23.5000 Du        
   2508 ****        -4.0000 -16.7500  23.7500 Du        
   2509 ****        -4.0000 -16.7500  24.0000 Du        
   2510 ****        -4.0000 -16.7500  24.2500 Du        
   2511 ****        -4.0000 -16.5000  17.0000 Du        
   2512 ****        -4.0000 -16.5000  17.2500 Du        
   2513 ****        -4.0000 -16.5000  17.5000 Du        
   2514 ****        -4.0000 -16.5000  17.7500 Du        
   2515 ****        -4.0000 -16.5000  18.0000 Du        
   2516 ****        -4.0000 -16.5000  18.2500 Du        
   2517 ****        -4.0000 -16.5000  22.7500 Du        
   2518 ****        -4.0000 -16.5000  23.0000 Du        
   2519 ****        -4.0000 -16.5000  23.2500 Du        
   2520 ****        -4.0000 -16.5000  23.5000 Du        
   2521 ****        -4.0000 -16.5000  23.7500 Du        
   2522 ****        -4.0000 -16.5000  24.0000 Du        
   2523 ****        -4.0000 -16.5000  24.2500 Du        
   2524 ****        -4.0000 -16.2500  17.2500 Du        
   2525 ****        -4.0000 -16.2500  17.5000 Du        
   2526 ****        -4.0000 -16.2500  17.7500 Du        
   2527 ****        -4.0000 -16.2500  18.0000 Du        
   2528 ****        -4.0000 -16.2500  18.2500 Du        
   2529 ****        -4.0000 -16.2500  18.5000 Du        
   2530 ****        -4.0000 -16.2500  22.5000 Du        
   2531 ****        -4.0000 -16.2500  22.7500 Du        
   2532 ****        -4.0000 -16.2500  23.0000 Du        
   2533 ****        -4.0000 -16.2500  23.2500 Du        
   2534 ****        -4.0000 -16.2500  23.5000 Du        
   2535 ****        -4.0000 -16.2500  23.7500 Du        
   2536 ****        -4.0000 -16.2500  24.0000 Du        
   2537 ****        -4.0000 -16.0000  17.2500 Du        
   2538 ****        -4.0000 -16.0000  17.5000 Du        
   2539 ****        -4.0000 -16.0000  17.7500 Du        
   2540 ****        -4.0000 -16.0000  18.0000 Du        
   2541 ****        -4.0000 -16.0000  18.2500 Du        
   2542 ****        -4.0000 -16.0000  18.5000 Du        
   2543 ****        -4.0000 -16.0000  18.7500 Du        
   2544 ****        -4.0000 -16.0000  22.2500 Du        
   2545 ****        -4.0000 -16.0000  22.5000 Du        
   2546 ****        -4.0000 -16.0000  22.7500 Du        
   2547 ****        -4.0000 -16.0000  23.0000 Du        
   2548 ****        -4.0000 -16.0000  23.2500 Du        
   2549 ****        -4.0000 -16.0000  23.5000 Du        
   2550 ****        -4.0000 -16.0000  23.7500 Du        
   2551 ****        -4.0000 -16.0000  24.0000 Du        
   2552 ****        -4.0000 -15.7500  17.5000 Du        
   2553 ****        -4.0000 -15.7500  17.7500 Du        
   2554 ****        -4.0000 -15.7500  18.0000 Du        
   2555 ****        -4.0000 -15.7500  18.2500 Du        
   2556 ****        -4.0000 -15.7500  18.5000 Du        
   2557 ****        -4.0000 -15.7500  18.7500 Du        
   2558 ****        -4.0000 -15.7500  19.0000 Du        
   2559 ****        -4.0000 -15.7500  22.2500 Du        
   2560 ****        -4.0000 -15.7500  22.5000 Du        
   2561 ****        -4.0000 -15.7500  22.7500 Du        
   2562 ****        -4.0000 -15.7500  23.0000 Du        
   2563 ****        -4.0000 -15.7500  23.2500 Du        
   2564 ****        -4.0000 -15.7500  23.5000 Du        
   2565 ****        -4.0000 -15.7500  23.7500 Du        
   2566 ****        -4.0000 -15.5000  17.5000 Du        
   2567 ****        -4.0000 -15.5000  17.7500 Du        
   2568 ****        -4.0000 -15.5000  18.0000 Du        
   2569 ****        -4.0000 -15.5000  18.2500 Du        
   2570 ****        -4.0000 -15.5000  18.5000 Du        
   2571 ****        -4.0000 -15.5000  18.7500 Du        
   2572 ****        -4.0000 -15.5000  19.0000 Du        
   2573 ****        -4.0000 -15.5000  19.2500 Du        
   2574 ****        -4.0000 -15.5000  22.5000 Du        
   2575 ****        -4.0000 -15.5000  22.7500 Du        
   2576 ****        -4.0000 -15.5000  23.0000 Du        
   2577 ****        -4.0000 -15.5000  23.2500 Du        
   2578 ****        -4.0000 -15.5000  23.5000 Du        
   2579 ****        -4.0000 -15.2500  17.5000 Du        
   2580 ****        -4.0000 -15.2500  17.7500 Du        
   2581 ****        -4.0000 -15.2500  18.0000 Du        
   2582 ****        -4.0000 -15.2500  18.2500 Du        
   2583 ****        -4.0000 -15.2500  18.5000 Du        
   2584 ****        -4.0000 -15.2500  18.7500 Du        
   2585 ****        -4.0000 -15.2500  19.0000 Du        
   2586 ****        -4.0000 -15.2500  19.2500 Du        
   2587 ****        -4.0000 -15.2500  19.5000 Du        
   2588 ****        -4.0000 -15.2500  19.7500 Du        
   2589 ****        -4.0000 -15.2500  20.0000 Du        
   2590 ****        -4.0000 -15.2500  22.7500 Du        
   2591 ****        -4.0000 -15.2500  23.0000 Du        
   2592 ****        -4.0000 -15.2500  23.2500 Du        
   2593 ****        -4.0000 -15.0000  17.7500 Du        
   2594 ****        -4.0000 -15.0000  18.0000 Du        
   2595 ****        -4.0000 -15.0000  18.2500 Du        
   2596 ****        -4.0000 -15.0000  18.5000 Du        
   2597 ****        -4.0000 -15.0000  18.7500 Du        
   2598 ****        -4.0000 -15.0000  19.0000 Du        
   2599 ****        -4.0000 -15.0000  19.2500 Du        
   2600 ****        -4.0000 -15.0000  19.5000 Du        
   2601 ****        -4.0000 -15.0000  19.7500 Du        
   2602 ****        -4.0000 -15.0000  20.0000 Du        
   2603 ****        -4.0000 -14.7500  17.7500 Du        
   2604 ****        -4.0000 -14.7500  18.0000 Du        
   2605 ****        -4.0000 -14.7500  18.2500 Du        
   2606 ****        -4.0000 -14.7500  18.5000 Du        
   2607 ****        -4.0000 -14.7500  18.7500 Du        
   2608 ****        -4.0000 -14.7500  19.0000 Du        
   2609 ****        -4.0000 -14.7500  19.2500 Du        
   2610 ****        -4.0000  -8.2500  20.2500 Du        
   2611 ****        -4.0000  -8.2500  20.5000 Du        
   2612 ****        -4.0000  -8.2500  20.7500 Du        
   2613 ****        -3.7500 -20.2500  25.0000 Du        
   2614 ****        -3.7500 -20.2500  25.2500 Du        
   2615 ****        -3.7500 -20.0000  15.7500 Du        
   2616 ****        -3.7500 -20.0000  16.0000 Du        
   2617 ****        -3.7500 -20.0000  16.2500 Du        
   2618 ****        -3.7500 -20.0000  16.5000 Du        
   2619 ****        -3.7500 -20.0000  16.7500 Du        
   2620 ****        -3.7500 -20.0000  24.7500 Du        
   2621 ****        -3.7500 -20.0000  25.0000 Du        
   2622 ****        -3.7500 -20.0000  25.2500 Du        
   2623 ****        -3.7500 -19.7500  16.0000 Du        
   2624 ****        -3.7500 -19.7500  16.2500 Du        
   2625 ****        -3.7500 -19.7500  16.5000 Du        
   2626 ****        -3.7500 -19.7500  16.7500 Du        
   2627 ****        -3.7500 -19.7500  17.0000 Du        
   2628 ****        -3.7500 -19.7500  17.2500 Du        
   2629 ****        -3.7500 -19.7500  17.5000 Du        
   2630 ****        -3.7500 -19.7500  24.2500 Du        
   2631 ****        -3.7500 -19.7500  24.5000 Du        
   2632 ****        -3.7500 -19.7500  24.7500 Du        
   2633 ****        -3.7500 -19.7500  25.0000 Du        
   2634 ****        -3.7500 -19.7500  25.2500 Du        
   2635 ****        -3.7500 -19.5000  16.0000 Du        
   2636 ****        -3.7500 -19.5000  16.2500 Du        
   2637 ****        -3.7500 -19.5000  16.5000 Du        
   2638 ****        -3.7500 -19.5000  16.7500 Du        
   2639 ****        -3.7500 -19.5000  17.0000 Du        
   2640 ****        -3.7500 -19.5000  17.2500 Du        
   2641 ****        -3.7500 -19.5000  24.0000 Du        
   2642 ****        -3.7500 -19.5000  24.2500 Du        
   2643 ****        -3.7500 -19.5000  24.5000 Du        
   2644 ****        -3.7500 -19.5000  24.7500 Du        
   2645 ****        -3.7500 -19.5000  25.0000 Du        
   2646 ****        -3.7500 -19.5000  25.2500 Du        
   2647 ****        -3.7500 -19.2500  16.2500 Du        
   2648 ****        -3.7500 -19.2500  16.5000 Du        
   2649 ****        -3.7500 -19.2500  16.7500 Du        
   2650 ****        -3.7500 -19.2500  17.0000 Du        
   2651 ****        -3.7500 -19.2500  17.2500 Du        
   2652 ****        -3.7500 -19.2500  23.7500 Du        
   2653 ****        -3.7500 -19.2500  24.0000 Du        
   2654 ****        -3.7500 -19.2500  24.2500 Du        
   2655 ****        -3.7500 -19.2500  24.5000 Du        
   2656 ****        -3.7500 -19.2500  24.7500 Du        
   2657 ****        -3.7500 -19.2500  25.0000 Du        
   2658 ****        -3.7500 -19.2500  25.2500 Du        
   2659 ****        -3.7500 -19.0000  16.2500 Du        
   2660 ****        -3.7500 -19.0000  16.5000 Du        
   2661 ****        -3.7500 -19.0000  16.7500 Du        
   2662 ****        -3.7500 -19.0000  17.0000 Du        
   2663 ****        -3.7500 -19.0000  23.7500 Du        
   2664 ****        -3.7500 -19.0000  24.0000 Du        
   2665 ****        -3.7500 -19.0000  24.2500 Du        
   2666 ****        -3.7500 -19.0000  24.5000 Du        
   2667 ****        -3.7500 -19.0000  24.7500 Du        
   2668 ****        -3.7500 -19.0000  25.0000 Du        
   2669 ****        -3.7500 -18.7500  16.2500 Du        
   2670 ****        -3.7500 -18.7500  16.5000 Du        
   2671 ****        -3.7500 -18.7500  16.7500 Du        
   2672 ****        -3.7500 -18.7500  17.0000 Du        
   2673 ****        -3.7500 -18.7500  23.7500 Du        
   2674 ****        -3.7500 -18.7500  24.0000 Du        
   2675 ****        -3.7500 -18.7500  24.2500 Du        
   2676 ****        -3.7500 -18.7500  24.5000 Du        
   2677 ****        -3.7500 -18.7500  24.7500 Du        
   2678 ****        -3.7500 -18.7500  25.0000 Du        
   2679 ****        -3.7500 -18.5000  16.5000 Du        
   2680 ****        -3.7500 -18.5000  16.7500 Du        
   2681 ****        -3.7500 -18.5000  23.7500 Du        
   2682 ****        -3.7500 -18.5000  24.0000 Du        
   2683 ****        -3.7500 -18.5000  24.2500 Du        
   2684 ****        -3.7500 -18.5000  24.5000 Du        
   2685 ****        -3.7500 -18.5000  24.7500 Du        
   2686 ****        -3.7500 -18.5000  25.0000 Du        
   2687 ****        -3.7500 -18.2500  16.7500 Du        
   2688 ****        -3.7500 -18.2500  23.7500 Du        
   2689 ****        -3.7500 -18.2500  24.0000 Du        
   2690 ****        -3.7500 -18.2500  24.2500 Du        
   2691 ****        -3.7500 -18.2500  24.5000 Du        
   2692 ****        -3.7500 -18.2500  24.7500 Du        
   2693 ****        -3.7500 -18.2500  25.0000 Du        
   2694 ****        -3.7500 -18.0000  16.7500 Du        
   2695 ****        -3.7500 -18.0000  23.7500 Du        
   2696 ****        -3.7500 -18.0000  24.0000 Du        
   2697 ****        -3.7500 -18.0000  24.2500 Du        
   2698 ****        -3.7500 -18.0000  24.5000 Du        
   2699 ****        -3.7500 -18.0000  24.7500 Du        
   2700 ****        -3.7500 -17.7500  16.7500 Du        
   2701 ****        -3.7500 -17.7500  17.0000 Du        
   2702 ****        -3.7500 -17.7500  23.7500 Du        
   2703 ****        -3.7500 -17.7500  24.0000 Du        
   2704 ****        -3.7500 -17.7500  24.2500 Du        
   2705 ****        -3.7500 -17.7500  24.5000 Du        
   2706 ****        -3.7500 -17.7500  24.7500 Du        
   2707 ****        -3.7500 -17.5000  16.7500 Du        
   2708 ****        -3.7500 -17.5000  17.0000 Du        
   2709 ****        -3.7500 -17.5000  23.7500 Du        
   2710 ****        -3.7500 -17.5000  24.0000 Du        
   2711 ****        -3.7500 -17.5000  24.2500 Du        
   2712 ****        -3.7500 -17.5000  24.5000 Du        
   2713 ****        -3.7500 -17.2500  16.5000 Du        
   2714 ****        -3.7500 -17.2500  16.7500 Du        
   2715 ****        -3.7500 -17.2500  17.0000 Du        
   2716 ****        -3.7500 -17.2500  17.2500 Du        
   2717 ****        -3.7500 -17.2500  17.5000 Du        
   2718 ****        -3.7500 -17.2500  23.5000 Du        
   2719 ****        -3.7500 -17.2500  23.7500 Du        
   2720 ****        -3.7500 -17.2500  24.0000 Du        
   2721 ****        -3.7500 -17.2500  24.2500 Du        
   2722 ****        -3.7500 -17.2500  24.5000 Du        
   2723 ****        -3.7500 -17.0000  16.7500 Du        
   2724 ****        -3.7500 -17.0000  17.0000 Du        
   2725 ****        -3.7500 -17.0000  17.2500 Du        
   2726 ****        -3.7500 -17.0000  17.5000 Du        
   2727 ****        -3.7500 -17.0000  17.7500 Du        
   2728 ****        -3.7500 -17.0000  23.2500 Du        
   2729 ****        -3.7500 -17.0000  23.5000 Du        
   2730 ****        -3.7500 -17.0000  23.7500 Du        
   2731 ****        -3.7500 -17.0000  24.0000 Du        
   2732 ****        -3.7500 -17.0000  24.2500 Du        
   2733 ****        -3.7500 -16.7500  16.7500 Du        
   2734 ****        -3.7500 -16.7500  17.0000 Du        
   2735 ****        -3.7500 -16.7500  17.2500 Du        
   2736 ****        -3.7500 -16.7500  17.5000 Du        
   2737 ****        -3.7500 -16.7500  17.7500 Du        
   2738 ****        -3.7500 -16.7500  18.0000 Du        
   2739 ****        -3.7500 -16.7500  23.2500 Du        
   2740 ****        -3.7500 -16.7500  23.5000 Du        
   2741 ****        -3.7500 -16.7500  23.7500 Du        
   2742 ****        -3.7500 -16.7500  24.0000 Du        
   2743 ****        -3.7500 -16.7500  24.2500 Du        
   2744 ****        -3.7500 -16.5000  17.0000 Du        
   2745 ****        -3.7500 -16.5000  17.2500 Du        
   2746 ****        -3.7500 -16.5000  17.5000 Du        
   2747 ****        -3.7500 -16.5000  17.7500 Du        
   2748 ****        -3.7500 -16.5000  18.0000 Du        
   2749 ****        -3.7500 -16.5000  23.0000 Du        
   2750 ****        -3.7500 -16.5000  23.2500 Du        
   2751 ****        -3.7500 -16.5000  23.5000 Du        
   2752 ****        -3.7500 -16.5000  23.7500 Du        
   2753 ****        -3.7500 -16.5000  24.0000 Du        
   2754 ****        -3.7500 -16.2500  17.0000 Du        
   2755 ****        -3.7500 -16.2500  17.2500 Du        
   2756 ****        -3.7500 -16.2500  17.5000 Du        
   2757 ****        -3.7500 -16.2500  17.7500 Du        
   2758 ****        -3.7500 -16.2500  18.0000 Du        
   2759 ****        -3.7500 -16.2500  18.2500 Du        
   2760 ****        -3.7500 -16.2500  18.5000 Du        
   2761 ****        -3.7500 -16.2500  22.7500 Du        
   2762 ****        -3.7500 -16.2500  23.0000 Du        
   2763 ****        -3.7500 -16.2500  23.2500 Du        
   2764 ****        -3.7500 -16.2500  23.5000 Du        
   2765 ****        -3.7500 -16.2500  23.7500 Du        
   2766 ****        -3.7500 -16.0000  17.2500 Du        
   2767 ****        -3.7500 -16.0000  17.5000 Du        
   2768 ****        -3.7500 -16.0000  17.7500 Du        
   2769 ****        -3.7500 -16.0000  18.0000 Du        
   2770 ****        -3.7500 -16.0000  18.2500 Du        
   2771 ****        -3.7500 -16.0000  18.5000 Du        
   2772 ****        -3.7500 -16.0000  18.7500 Du        
   2773 ****        -3.7500 -16.0000  22.5000 Du        
   2774 ****        -3.7500 -16.0000  22.7500 Du        
   2775 ****        -3.7500 -16.0000  23.0000 Du        
   2776 ****        -3.7500 -16.0000  23.2500 Du        
   2777 ****        -3.7500 -16.0000  23.5000 Du        
   2778 ****        -3.7500 -16.0000  23.7500 Du        
   2779 ****        -3.7500 -15.7500  17.2500 Du        
   2780 ****        -3.7500 -15.7500  17.5000 Du        
   2781 ****        -3.7500 -15.7500  17.7500 Du        
   2782 ****        -3.7500 -15.7500  18.0000 Du        
   2783 ****        -3.7500 -15.7500  18.2500 Du        
   2784 ****        -3.7500 -15.7500  18.5000 Du        
   2785 ****        -3.7500 -15.7500  18.7500 Du        
   2786 ****        -3.7500 -15.7500  19.0000 Du        
   2787 ****        -3.7500 -15.7500  22.7500 Du        
   2788 ****        -3.7500 -15.7500  23.0000 Du        
   2789 ****        -3.7500 -15.7500  23.2500 Du        
   2790 ****        -3.7500 -15.7500  23.5000 Du        
   2791 ****        -3.7500 -15.5000  17.5000 Du        
   2792 ****        -3.7500 -15.5000  17.7500 Du        
   2793 ****        -3.7500 -15.5000  18.0000 Du        
   2794 ****        -3.7500 -15.5000  18.2500 Du        
   2795 ****        -3.7500 -15.5000  18.5000 Du        
   2796 ****        -3.7500 -15.5000  18.7500 Du        
   2797 ****        -3.7500 -15.5000  19.0000 Du        
   2798 ****        -3.7500 -15.5000  19.2500 Du        
   2799 ****        -3.7500 -15.2500  17.5000 Du        
   2800 ****        -3.7500 -15.2500  17.7500 Du        
   2801 ****        -3.7500 -15.2500  18.0000 Du        
   2802 ****        -3.7500 -15.2500  18.2500 Du        
   2803 ****        -3.7500 -15.2500  18.5000 Du        
   2804 ****        -3.7500 -15.2500  18.7500 Du        
   2805 ****        -3.7500 -15.2500  19.0000 Du        
   2806 ****        -3.7500 -15.2500  19.2500 Du        
   2807 ****        -3.7500 -15.2500  19.5000 Du        
   2808 ****        -3.7500 -15.2500  19.7500 Du        
   2809 ****        -3.7500 -15.0000  17.5000 Du        
   2810 ****        -3.7500 -15.0000  17.7500 Du        
   2811 ****        -3.7500 -15.0000  18.0000 Du        
   2812 ****        -3.7500 -15.0000  18.2500 Du        
   2813 ****        -3.7500 -15.0000  18.5000 Du        
   2814 ****        -3.7500 -15.0000  18.7500 Du        
   2815 ****        -3.7500 -15.0000  19.0000 Du        
   2816 ****        -3.7500 -15.0000  19.2500 Du        
   2817 ****        -3.7500 -15.0000  19.5000 Du        
   2818 ****        -3.7500 -15.0000  19.7500 Du        
   2819 ****        -3.7500 -14.7500  17.5000 Du        
   2820 ****        -3.7500 -14.7500  17.7500 Du        
   2821 ****        -3.7500 -14.7500  18.0000 Du        
   2822 ****        -3.7500 -14.7500  18.2500 Du        
   2823 ****        -3.7500 -14.7500  18.5000 Du        
   2824 ****        -3.7500 -14.7500  18.7500 Du        
   2825 ****        -3.7500 -14.7500  19.0000 Du        
   2826 ****        -3.7500 -14.7500  19.2500 Du        
   2827 ****        -3.7500 -14.7500  19.5000 Du        
   2828 ****        -3.7500 -14.7500  19.7500 Du        
   2829 ****        -3.7500 -14.5000  19.5000 Du        
   2830 ****        -3.7500 -14.5000  19.7500 Du        
   2831 ****        -3.7500  -8.2500  20.2500 Du        
   2832 ****        -3.5000 -20.5000  14.7500 Du        
   2833 ****        -3.5000 -20.5000  25.0000 Du        
   2834 ****        -3.5000 -20.5000  25.2500 Du        
   2835 ****        -3.5000 -20.2500  14.2500 Du        
   2836 ****        -3.5000 -20.2500  14.5000 Du        
   2837 ****        -3.5000 -20.2500  14.7500 Du        
   2838 ****        -3.5000 -20.2500  15.0000 Du        
   2839 ****        -3.5000 -20.2500  15.2500 Du        
   2840 ****        -3.5000 -20.2500  15.5000 Du        
   2841 ****        -3.5000 -20.2500  15.7500 Du        
   2842 ****        -3.5000 -20.2500  24.7500 Du        
   2843 ****        -3.5000 -20.2500  25.0000 Du        
   2844 ****        -3.5000 -20.2500  25.2500 Du        
   2845 ****        -3.5000 -20.0000  14.2500 Du        
   2846 ****        -3.5000 -20.0000  14.5000 Du        
   2847 ****        -3.5000 -20.0000  14.7500 Du        
   2848 ****        -3.5000 -20.0000  15.0000 Du        
   2849 ****        -3.5000 -20.0000  15.2500 Du        
   2850 ****        -3.5000 -20.0000  15.5000 Du        
   2851 ****        -3.5000 -20.0000  15.7500 Du        
   2852 ****        -3.5000 -20.0000  16.0000 Du        
   2853 ****        -3.5000 -20.0000  16.2500 Du        
   2854 ****        -3.5000 -20.0000  16.5000 Du        
   2855 ****        -3.5000 -20.0000  24.5000 Du        
   2856 ****        -3.5000 -20.0000  24.7500 Du        
   2857 ****        -3.5000 -20.0000  25.0000 Du        
   2858 ****        -3.5000 -20.0000  25.2500 Du        
   2859 ****        -3.5000 -19.7500  14.7500 Du        
   2860 ****        -3.5000 -19.7500  15.0000 Du        
   2861 ****        -3.5000 -19.7500  15.2500 Du        
   2862 ****        -3.5000 -19.7500  15.5000 Du        
   2863 ****        -3.5000 -19.7500  15.7500 Du        
   2864 ****        -3.5000 -19.7500  16.0000 Du        
   2865 ****        -3.5000 -19.7500  16.2500 Du        
   2866 ****        -3.5000 -19.7500  16.5000 Du        
   2867 ****        -3.5000 -19.7500  16.7500 Du        
   2868 ****        -3.5000 -19.7500  17.0000 Du        
   2869 ****        -3.5000 -19.7500  24.2500 Du        
   2870 ****        -3.5000 -19.7500  24.5000 Du        
   2871 ****        -3.5000 -19.7500  24.7500 Du        
   2872 ****        -3.5000 -19.7500  25.0000 Du        
   2873 ****        -3.5000 -19.7500  25.2500 Du        
   2874 ****        -3.5000 -19.5000  15.5000 Du        
   2875 ****        -3.5000 -19.5000  15.7500 Du        
   2876 ****        -3.5000 -19.5000  16.0000 Du        
   2877 ****        -3.5000 -19.5000  16.2500 Du        
   2878 ****        -3.5000 -19.5000  16.5000 Du        
   2879 ****        -3.5000 -19.5000  16.7500 Du        
   2880 ****        -3.5000 -19.5000  24.0000 Du        
   2881 ****        -3.5000 -19.5000  24.2500 Du        
   2882 ****        -3.5000 -19.5000  24.5000 Du        
   2883 ****        -3.5000 -19.5000  24.7500 Du        
   2884 ****        -3.5000 -19.5000  25.0000 Du        
   2885 ****        -3.5000 -19.5000  25.2500 Du        
   2886 ****        -3.5000 -19.2500  15.7500 Du        
   2887 ****        -3.5000 -19.2500  16.0000 Du        
   2888 ****        -3.5000 -19.2500  16.2500 Du        
   2889 ****        -3.5000 -19.2500  16.5000 Du        
   2890 ****        -3.5000 -19.2500  16.7500 Du        
   2891 ****        -3.5000 -19.2500  24.0000 Du        
   2892 ****        -3.5000 -19.2500  24.2500 Du        
   2893 ****        -3.5000 -19.2500  24.5000 Du        
   2894 ****        -3.5000 -19.2500  24.7500 Du        
   2895 ****        -3.5000 -19.2500  25.0000 Du        
   2896 ****        -3.5000 -19.2500  25.2500 Du        
   2897 ****        -3.5000 -19.0000  15.7500 Du        
   2898 ****        -3.5000 -19.0000  16.0000 Du        
   2899 ****        -3.5000 -19.0000  16.2500 Du        
   2900 ****        -3.5000 -19.0000  16.5000 Du        
   2901 ****        -3.5000 -19.0000  16.7500 Du        
   2902 ****        -3.5000 -19.0000  24.0000 Du        
   2903 ****        -3.5000 -19.0000  24.2500 Du        
   2904 ****        -3.5000 -19.0000  24.5000 Du        
   2905 ****        -3.5000 -19.0000  24.7500 Du        
   2906 ****        -3.5000 -19.0000  25.0000 Du        
   2907 ****        -3.5000 -19.0000  25.2500 Du        
   2908 ****        -3.5000 -18.7500  16.0000 Du        
   2909 ****        -3.5000 -18.7500  16.2500 Du        
   2910 ****        -3.5000 -18.7500  16.5000 Du        
   2911 ****        -3.5000 -18.7500  24.0000 Du        
   2912 ****        -3.5000 -18.7500  24.2500 Du        
   2913 ****        -3.5000 -18.7500  24.5000 Du        
   2914 ****        -3.5000 -18.7500  24.7500 Du        
   2915 ****        -3.5000 -18.7500  25.0000 Du        
   2916 ****        -3.5000 -18.7500  25.2500 Du        
   2917 ****        -3.5000 -18.5000  16.0000 Du        
   2918 ****        -3.5000 -18.5000  16.2500 Du        
   2919 ****        -3.5000 -18.5000  16.5000 Du        
   2920 ****        -3.5000 -18.5000  24.0000 Du        
   2921 ****        -3.5000 -18.5000  24.2500 Du        
   2922 ****        -3.5000 -18.5000  24.5000 Du        
   2923 ****        -3.5000 -18.5000  24.7500 Du        
   2924 ****        -3.5000 -18.5000  25.0000 Du        
   2925 ****        -3.5000 -18.2500  16.2500 Du        
   2926 ****        -3.5000 -18.2500  16.5000 Du        
   2927 ****        -3.5000 -18.2500  24.0000 Du        
   2928 ****        -3.5000 -18.2500  24.2500 Du        
   2929 ****        -3.5000 -18.2500  24.5000 Du        
   2930 ****        -3.5000 -18.2500  24.7500 Du        
   2931 ****        -3.5000 -18.2500  25.0000 Du        
   2932 ****        -3.5000 -18.0000  16.2500 Du        
   2933 ****        -3.5000 -18.0000  16.5000 Du        
   2934 ****        -3.5000 -18.0000  24.0000 Du        
   2935 ****        -3.5000 -18.0000  24.2500 Du        
   2936 ****        -3.5000 -18.0000  24.5000 Du        
   2937 ****        -3.5000 -18.0000  24.7500 Du        
   2938 ****        -3.5000 -17.7500  16.2500 Du        
   2939 ****        -3.5000 -17.7500  16.5000 Du        
   2940 ****        -3.5000 -17.7500  16.7500 Du        
   2941 ****        -3.5000 -17.7500  24.0000 Du        
   2942 ****        -3.5000 -17.7500  24.2500 Du        
   2943 ****        -3.5000 -17.7500  24.5000 Du        
   2944 ****        -3.5000 -17.7500  24.7500 Du        
   2945 ****        -3.5000 -17.5000  16.5000 Du        
   2946 ****        -3.5000 -17.5000  16.7500 Du        
   2947 ****        -3.5000 -17.5000  23.7500 Du        
   2948 ****        -3.5000 -17.5000  24.0000 Du        
   2949 ****        -3.5000 -17.5000  24.2500 Du        
   2950 ****        -3.5000 -17.5000  24.5000 Du        
   2951 ****        -3.5000 -17.2500  16.5000 Du        
   2952 ****        -3.5000 -17.2500  16.7500 Du        
   2953 ****        -3.5000 -17.2500  17.0000 Du        
   2954 ****        -3.5000 -17.2500  23.7500 Du        
   2955 ****        -3.5000 -17.2500  24.0000 Du        
   2956 ****        -3.5000 -17.2500  24.2500 Du        
   2957 ****        -3.5000 -17.0000  16.7500 Du        
   2958 ****        -3.5000 -17.0000  17.0000 Du        
   2959 ****        -3.5000 -17.0000  17.2500 Du        
   2960 ****        -3.5000 -17.0000  23.5000 Du        
   2961 ****        -3.5000 -17.0000  23.7500 Du        
   2962 ****        -3.5000 -17.0000  24.0000 Du        
   2963 ****        -3.5000 -17.0000  24.2500 Du        
   2964 ****        -3.5000 -16.7500  16.7500 Du        
   2965 ****        -3.5000 -16.7500  17.0000 Du        
   2966 ****        -3.5000 -16.7500  17.2500 Du        
   2967 ****        -3.5000 -16.7500  17.5000 Du        
   2968 ****        -3.5000 -16.7500  23.5000 Du        
   2969 ****        -3.5000 -16.7500  23.7500 Du        
   2970 ****        -3.5000 -16.7500  24.0000 Du        
   2971 ****        -3.5000 -16.5000  16.7500 Du        
   2972 ****        -3.5000 -16.5000  17.0000 Du        
   2973 ****        -3.5000 -16.5000  17.2500 Du        
   2974 ****        -3.5000 -16.5000  17.5000 Du        
   2975 ****        -3.5000 -16.5000  17.7500 Du        
   2976 ****        -3.5000 -16.5000  18.0000 Du        
   2977 ****        -3.5000 -16.5000  23.2500 Du        
   2978 ****        -3.5000 -16.5000  23.5000 Du        
   2979 ****        -3.5000 -16.5000  23.7500 Du        
   2980 ****        -3.5000 -16.2500  17.0000 Du        
   2981 ****        -3.5000 -16.2500  17.2500 Du        
   2982 ****        -3.5000 -16.2500  17.5000 Du        
   2983 ****        -3.5000 -16.2500  17.7500 Du        
   2984 ****        -3.5000 -16.2500  18.0000 Du        
   2985 ****        -3.5000 -16.2500  18.2500 Du        
   2986 ****        -3.5000 -16.2500  23.0000 Du        
   2987 ****        -3.5000 -16.2500  23.2500 Du        
   2988 ****        -3.5000 -16.2500  23.5000 Du        
   2989 ****        -3.5000 -16.0000  17.0000 Du        
   2990 ****        -3.5000 -16.0000  17.2500 Du        
   2991 ****        -3.5000 -16.0000  17.5000 Du        
   2992 ****        -3.5000 -16.0000  17.7500 Du        
   2993 ****        -3.5000 -16.0000  18.0000 Du        
   2994 ****        -3.5000 -16.0000  18.2500 Du        
   2995 ****        -3.5000 -16.0000  18.5000 Du        
   2996 ****        -3.5000 -16.0000  18.7500 Du        
   2997 ****        -3.5000 -16.0000  23.0000 Du        
   2998 ****        -3.5000 -16.0000  23.2500 Du        
   2999 ****        -3.5000 -16.0000  23.5000 Du        
   3000 ****        -3.5000 -15.7500  17.2500 Du        
   3001 ****        -3.5000 -15.7500  17.5000 Du        
   3002 ****        -3.5000 -15.7500  17.7500 Du        
   3003 ****        -3.5000 -15.7500  18.0000 Du        
   3004 ****        -3.5000 -15.7500  18.2500 Du        
   3005 ****        -3.5000 -15.7500  18.5000 Du        
   3006 ****        -3.5000 -15.7500  18.7500 Du        
   3007 ****        -3.5000 -15.7500  19.0000 Du        
   3008 ****        -3.5000 -15.7500  19.2500 Du        
   3009 ****        -3.5000 -15.5000  17.2500 Du        
   3010 ****        -3.5000 -15.5000  17.5000 Du        
   3011 ****        -3.5000 -15.5000  17.7500 Du        
   3012 ****        -3.5000 -15.5000  18.0000 Du        
   3013 ****        -3.5000 -15.5000  18.2500 Du        
   3014 ****        -3.5000 -15.5000  18.5000 Du        
   3015 ****        -3.5000 -15.5000  18.7500 Du        
   3016 ****        -3.5000 -15.5000  19.0000 Du        
   3017 ****        -3.5000 -15.5000  19.2500 Du        
   3018 ****        -3.5000 -15.5000  19.5000 Du        
   3019 ****        -3.5000 -15.2500  17.2500 Du        
   3020 ****        -3.5000 -15.2500  17.5000 Du        
   3021 ****        -3.5000 -15.2500  17.7500 Du        
   3022 ****        -3.5000 -15.2500  18.0000 Du        
   3023 ****        -3.5000 -15.2500  18.2500 Du        
   3024 ****        -3.5000 -15.2500  18.5000 Du        
   3025 ****        -3.5000 -15.2500  18.7500 Du        
   3026 ****        -3.5000 -15.2500  19.0000 Du        
   3027 ****        -3.5000 -15.2500  19.2500 Du        
   3028 ****        -3.5000 -15.2500  19.5000 Du        
   3029 ****        -3.5000 -15.2500  19.7500 Du        
   3030 ****        -3.5000 -15.0000  17.2500 Du        
   3031 ****        -3.5000 -15.0000  17.5000 Du        
   3032 ****        -3.5000 -15.0000  17.7500 Du        
   3033 ****        -3.5000 -15.0000  18.0000 Du        
   3034 ****        -3.5000 -15.0000  18.2500 Du        
   3035 ****        -3.5000 -15.0000  18.5000 Du        
   3036 ****        -3.5000 -15.0000  18.7500 Du        
   3037 ****        -3.5000 -15.0000  19.0000 Du        
   3038 ****        -3.5000 -15.0000  19.2500 Du        
   3039 ****        -3.5000 -15.0000  19.5000 Du        
   3040 ****        -3.5000 -15.0000  19.7500 Du        
   3041 ****        -3.5000 -14.7500  17.5000 Du        
   3042 ****        -3.5000 -14.7500  17.7500 Du        
   3043 ****        -3.5000 -14.7500  18.0000 Du        
   3044 ****        -3.5000 -14.7500  18.2500 Du        
   3045 ****        -3.5000 -14.7500  18.5000 Du        
   3046 ****        -3.5000 -14.7500  18.7500 Du        
   3047 ****        -3.5000 -14.7500  19.0000 Du        
   3048 ****        -3.5000 -14.7500  19.2500 Du        
   3049 ****        -3.5000 -14.7500  19.5000 Du        
   3050 ****        -3.5000 -14.5000  17.5000 Du        
   3051 ****        -3.5000 -14.5000  17.7500 Du        
   3052 ****        -3.5000 -14.5000  18.0000 Du        
   3053 ****        -3.5000 -14.5000  18.2500 Du        
   3054 ****        -3.5000 -14.5000  18.5000 Du        
   3055 ****        -3.5000 -14.5000  19.0000 Du        
   3056 ****        -3.5000 -14.5000  19.2500 Du        
   3057 ****        -3.5000 -14.5000  19.5000 Du        
   3058 ****        -3.2500 -20.5000  24.7500 Du        
   3059 ****        -3.2500 -20.5000  25.0000 Du        
   3060 ****        -3.2500 -20.5000  25.2500 Du        
   3061 ****        -3.2500 -20.2500  14.0000 Du        
   3062 ****        -3.2500 -20.2500  14.2500 Du        
   3063 ****        -3.2500 -20.2500  14.5000 Du        
   3064 ****        -3.2500 -20.2500  14.7500 Du        
   3065 ****        -3.2500 -20.2500  15.0000 Du        
   3066 ****        -3.2500 -20.2500  15.2500 Du        
   3067 ****        -3.2500 -20.2500  15.5000 Du        
   3068 ****        -3.2500 -20.2500  15.7500 Du        
   3069 ****        -3.2500 -20.2500  24.5000 Du        
   3070 ****        -3.2500 -20.2500  24.7500 Du        
   3071 ****        -3.2500 -20.2500  25.0000 Du        
   3072 ****        -3.2500 -20.2500  25.2500 Du        
   3073 ****        -3.2500 -20.0000  13.7500 Du        
   3074 ****        -3.2500 -20.0000  14.0000 Du        
   3075 ****        -3.2500 -20.0000  14.2500 Du        
   3076 ****        -3.2500 -20.0000  14.5000 Du        
   3077 ****        -3.2500 -20.0000  14.7500 Du        
   3078 ****        -3.2500 -20.0000  15.0000 Du        
   3079 ****        -3.2500 -20.0000  15.2500 Du        
   3080 ****        -3.2500 -20.0000  15.5000 Du        
   3081 ****        -3.2500 -20.0000  15.7500 Du        
   3082 ****        -3.2500 -20.0000  16.0000 Du        
   3083 ****        -3.2500 -20.0000  16.2500 Du        
   3084 ****        -3.2500 -20.0000  24.2500 Du        
   3085 ****        -3.2500 -20.0000  24.5000 Du        
   3086 ****        -3.2500 -20.0000  24.7500 Du        
   3087 ****        -3.2500 -20.0000  25.0000 Du        
   3088 ****        -3.2500 -20.0000  25.2500 Du        
   3089 ****        -3.2500 -19.7500  13.5000 Du        
   3090 ****        -3.2500 -19.7500  13.7500 Du        
   3091 ****        -3.2500 -19.7500  14.0000 Du        
   3092 ****        -3.2500 -19.7500  14.2500 Du        
   3093 ****        -3.2500 -19.7500  14.5000 Du        
   3094 ****        -3.2500 -19.7500  14.7500 Du        
   3095 ****        -3.2500 -19.7500  15.0000 Du        
   3096 ****        -3.2500 -19.7500  15.2500 Du        
   3097 ****        -3.2500 -19.7500  15.5000 Du        
   3098 ****        -3.2500 -19.7500  15.7500 Du        
   3099 ****        -3.2500 -19.7500  16.0000 Du        
   3100 ****        -3.2500 -19.7500  16.2500 Du        
   3101 ****        -3.2500 -19.7500  16.5000 Du        
   3102 ****        -3.2500 -19.7500  24.0000 Du        
   3103 ****        -3.2500 -19.7500  24.2500 Du        
   3104 ****        -3.2500 -19.7500  24.5000 Du        
   3105 ****        -3.2500 -19.7500  24.7500 Du        
   3106 ****        -3.2500 -19.7500  25.0000 Du        
   3107 ****        -3.2500 -19.7500  25.2500 Du        
   3108 ****        -3.2500 -19.5000  13.5000 Du        
   3109 ****        -3.2500 -19.5000  13.7500 Du        
   3110 ****        -3.2500 -19.5000  14.0000 Du        
   3111 ****        -3.2500 -19.5000  14.2500 Du        
   3112 ****        -3.2500 -19.5000  14.5000 Du        
   3113 ****        -3.2500 -19.5000  14.7500 Du        
   3114 ****        -3.2500 -19.5000  15.0000 Du        
   3115 ****        -3.2500 -19.5000  15.2500 Du        
   3116 ****        -3.2500 -19.5000  15.5000 Du        
   3117 ****        -3.2500 -19.5000  15.7500 Du        
   3118 ****        -3.2500 -19.5000  16.0000 Du        
   3119 ****        -3.2500 -19.5000  16.2500 Du        
   3120 ****        -3.2500 -19.5000  16.5000 Du        
   3121 ****        -3.2500 -19.5000  24.0000 Du        
   3122 ****        -3.2500 -19.5000  24.2500 Du        
   3123 ****        -3.2500 -19.5000  24.5000 Du        
   3124 ****        -3.2500 -19.5000  24.7500 Du        
   3125 ****        -3.2500 -19.5000  25.0000 Du        
   3126 ****        -3.2500 -19.5000  25.2500 Du        
   3127 ****        -3.2500 -19.2500  14.5000 Du        
   3128 ****        -3.2500 -19.2500  14.7500 Du        
   3129 ****        -3.2500 -19.2500  15.0000 Du        
   3130 ****        -3.2500 -19.2500  15.2500 Du        
   3131 ****        -3.2500 -19.2500  15.5000 Du        
   3132 ****        -3.2500 -19.2500  15.7500 Du        
   3133 ****        -3.2500 -19.2500  16.0000 Du        
   3134 ****        -3.2500 -19.2500  16.2500 Du        
   3135 ****        -3.2500 -19.2500  16.5000 Du        
   3136 ****        -3.2500 -19.2500  24.0000 Du        
   3137 ****        -3.2500 -19.2500  24.2500 Du        
   3138 ****        -3.2500 -19.2500  24.5000 Du        
   3139 ****        -3.2500 -19.2500  24.7500 Du        
   3140 ****        -3.2500 -19.2500  25.0000 Du        
   3141 ****        -3.2500 -19.2500  25.2500 Du        
   3142 ****        -3.2500 -19.0000  15.0000 Du        
   3143 ****        -3.2500 -19.0000  15.2500 Du        
   3144 ****        -3.2500 -19.0000  15.5000 Du        
   3145 ****        -3.2500 -19.0000  15.7500 Du        
   3146 ****        -3.2500 -19.0000  16.0000 Du        
   3147 ****        -3.2500 -19.0000  16.2500 Du        
   3148 ****        -3.2500 -19.0000  24.0000 Du        
   3149 ****        -3.2500 -19.0000  24.2500 Du        
   3150 ****        -3.2500 -19.0000  24.5000 Du        
   3151 ****        -3.2500 -19.0000  24.7500 Du        
   3152 ****        -3.2500 -19.0000  25.0000 Du        
   3153 ****        -3.2500 -19.0000  25.2500 Du        
   3154 ****        -3.2500 -18.7500  15.5000 Du        
   3155 ****        -3.2500 -18.7500  15.7500 Du        
   3156 ****        -3.2500 -18.7500  16.0000 Du        
   3157 ****        -3.2500 -18.7500  16.2500 Du        
   3158 ****        -3.2500 -18.7500  24.0000 Du        
   3159 ****        -3.2500 -18.7500  24.2500 Du        
   3160 ****        -3.2500 -18.7500  24.5000 Du        
   3161 ****        -3.2500 -18.7500  24.7500 Du        
   3162 ****        -3.2500 -18.7500  25.0000 Du        
   3163 ****        -3.2500 -18.5000  15.7500 Du        
   3164 ****        -3.2500 -18.5000  16.0000 Du        
   3165 ****        -3.2500 -18.5000  16.2500 Du        
   3166 ****        -3.2500 -18.5000  24.0000 Du        
   3167 ****        -3.2500 -18.5000  24.2500 Du        
   3168 ****        -3.2500 -18.5000  24.5000 Du        
   3169 ****        -3.2500 -18.5000  24.7500 Du        
   3170 ****        -3.2500 -18.5000  25.0000 Du        
   3171 ****        -3.2500 -18.2500  15.7500 Du        
   3172 ****        -3.2500 -18.2500  16.0000 Du        
   3173 ****        -3.2500 -18.2500  16.2500 Du        
   3174 ****        -3.2500 -18.2500  24.0000 Du        
   3175 ****        -3.2500 -18.2500  24.2500 Du        
   3176 ****        -3.2500 -18.2500  24.5000 Du        
   3177 ****        -3.2500 -18.2500  24.7500 Du        
   3178 ****        -3.2500 -18.0000  16.0000 Du        
   3179 ****        -3.2500 -18.0000  16.2500 Du        
   3180 ****        -3.2500 -18.0000  24.0000 Du        
   3181 ****        -3.2500 -18.0000  24.2500 Du        
   3182 ****        -3.2500 -18.0000  24.5000 Du        
   3183 ****        -3.2500 -18.0000  24.7500 Du        
   3184 ****        -3.2500 -17.7500  16.0000 Du        
   3185 ****        -3.2500 -17.7500  16.2500 Du        
   3186 ****        -3.2500 -17.7500  24.0000 Du        
   3187 ****        -3.2500 -17.7500  24.2500 Du        
   3188 ****        -3.2500 -17.7500  24.5000 Du        
   3189 ****        -3.2500 -17.5000  16.2500 Du        
   3190 ****        -3.2500 -17.5000  16.5000 Du        
   3191 ****        -3.2500 -17.5000  24.0000 Du        
   3192 ****        -3.2500 -17.5000  24.2500 Du        
   3193 ****        -3.2500 -17.2500  16.2500 Du        
   3194 ****        -3.2500 -17.2500  16.5000 Du        
   3195 ****        -3.2500 -17.2500  16.7500 Du        
   3196 ****        -3.2500 -17.2500  24.0000 Du        
   3197 ****        -3.2500 -17.2500  24.2500 Du        
   3198 ****        -3.2500 -17.0000  16.2500 Du        
   3199 ****        -3.2500 -17.0000  16.5000 Du        
   3200 ****        -3.2500 -17.0000  16.7500 Du        
   3201 ****        -3.2500 -17.0000  17.0000 Du        
   3202 ****        -3.2500 -17.0000  23.7500 Du        
   3203 ****        -3.2500 -17.0000  24.0000 Du        
   3204 ****        -3.2500 -16.7500  16.5000 Du        
   3205 ****        -3.2500 -16.7500  16.7500 Du        
   3206 ****        -3.2500 -16.7500  17.0000 Du        
   3207 ****        -3.2500 -16.7500  17.2500 Du        
   3208 ****        -3.2500 -16.7500  23.7500 Du        
   3209 ****        -3.2500 -16.5000  16.5000 Du        
   3210 ****        -3.2500 -16.5000  16.7500 Du        
   3211 ****        -3.2500 -16.5000  17.0000 Du        
   3212 ****        -3.2500 -16.5000  17.2500 Du        
   3213 ****        -3.2500 -16.5000  17.5000 Du        
   3214 ****        -3.2500 -16.5000  17.7500 Du        
   3215 ****        -3.2500 -16.5000  18.0000 Du        
   3216 ****        -3.2500 -16.2500  16.7500 Du        
   3217 ****        -3.2500 -16.2500  17.0000 Du        
   3218 ****        -3.2500 -16.2500  17.2500 Du        
   3219 ****        -3.2500 -16.2500  17.5000 Du        
   3220 ****        -3.2500 -16.2500  17.7500 Du        
   3221 ****        -3.2500 -16.2500  18.0000 Du        
   3222 ****        -3.2500 -16.2500  18.2500 Du        
   3223 ****        -3.2500 -16.0000  16.7500 Du        
   3224 ****        -3.2500 -16.0000  17.0000 Du        
   3225 ****        -3.2500 -16.0000  17.2500 Du        
   3226 ****        -3.2500 -16.0000  17.5000 Du        
   3227 ****        -3.2500 -16.0000  17.7500 Du        
   3228 ****        -3.2500 -16.0000  18.0000 Du        
   3229 ****        -3.2500 -16.0000  18.2500 Du        
   3230 ****        -3.2500 -16.0000  18.5000 Du        
   3231 ****        -3.2500 -16.0000  18.7500 Du        
   3232 ****        -3.2500 -15.7500  17.0000 Du        
   3233 ****        -3.2500 -15.7500  17.2500 Du        
   3234 ****        -3.2500 -15.7500  17.5000 Du        
   3235 ****        -3.2500 -15.7500  17.7500 Du        
   3236 ****        -3.2500 -15.7500  18.0000 Du        
   3237 ****        -3.2500 -15.7500  18.2500 Du        
   3238 ****        -3.2500 -15.7500  18.5000 Du        
   3239 ****        -3.2500 -15.7500  18.7500 Du        
   3240 ****        -3.2500 -15.7500  19.0000 Du        
   3241 ****        -3.2500 -15.7500  19.2500 Du        
   3242 ****        -3.2500 -15.5000  17.0000 Du        
   3243 ****        -3.2500 -15.5000  17.2500 Du        
   3244 ****        -3.2500 -15.5000  17.5000 Du        
   3245 ****        -3.2500 -15.5000  17.7500 Du        
   3246 ****        -3.2500 -15.5000  18.0000 Du        
   3247 ****        -3.2500 -15.5000  18.2500 Du        
   3248 ****        -3.2500 -15.5000  18.5000 Du        
   3249 ****        -3.2500 -15.5000  18.7500 Du        
   3250 ****        -3.2500 -15.5000  19.0000 Du        
   3251 ****        -3.2500 -15.5000  19.2500 Du        
   3252 ****        -3.2500 -15.5000  19.5000 Du        
   3253 ****        -3.2500 -15.2500  17.2500 Du        
   3254 ****        -3.2500 -15.2500  17.5000 Du        
   3255 ****        -3.2500 -15.2500  17.7500 Du        
   3256 ****        -3.2500 -15.2500  18.0000 Du        
   3257 ****        -3.2500 -15.2500  18.2500 Du        
   3258 ****        -3.2500 -15.2500  18.5000 Du        
   3259 ****        -3.2500 -15.2500  18.7500 Du        
   3260 ****        -3.2500 -15.2500  19.0000 Du        
   3261 ****        -3.2500 -15.2500  19.2500 Du        
   3262 ****        -3.2500 -15.2500  19.5000 Du        
   3263 ****        -3.2500 -15.0000  17.2500 Du        
   3264 ****        -3.2500 -15.0000  17.5000 Du        
   3265 ****        -3.2500 -15.0000  17.7500 Du        
   3266 ****        -3.2500 -15.0000  18.0000 Du        
   3267 ****        -3.2500 -15.0000  18.2500 Du        
   3268 ****        -3.2500 -15.0000  18.5000 Du        
   3269 ****        -3.2500 -15.0000  18.7500 Du        
   3270 ****        -3.2500 -15.0000  19.0000 Du        
   3271 ****        -3.2500 -15.0000  19.2500 Du        
   3272 ****        -3.2500 -15.0000  19.5000 Du        
   3273 ****        -3.2500 -14.7500  17.2500 Du        
   3274 ****        -3.2500 -14.7500  17.5000 Du        
   3275 ****        -3.2500 -14.7500  17.7500 Du        
   3276 ****        -3.2500 -14.7500  18.0000 Du        
   3277 ****        -3.2500 -14.7500  18.2500 Du        
   3278 ****        -3.2500 -14.7500  18.5000 Du        
   3279 ****        -3.2500 -14.7500  18.7500 Du        
   3280 ****        -3.2500 -14.7500  19.0000 Du        
   3281 ****        -3.2500 -14.7500  19.2500 Du        
   3282 ****        -3.2500 -14.7500  19.5000 Du        
   3283 ****        -3.2500 -14.5000  17.5000 Du        
   3284 ****        -3.2500 -14.5000  17.7500 Du        
   3285 ****        -3.2500 -14.5000  18.0000 Du        
   3286 ****        -3.2500 -14.5000  18.2500 Du        
   3287 ****        -3.2500 -14.5000  18.5000 Du        
   3288 ****        -3.2500 -14.5000  18.7500 Du        
   3289 ****        -3.2500 -14.5000  19.0000 Du        
   3290 ****        -3.2500 -14.5000  19.2500 Du        
   3291 ****        -3.2500 -14.2500  17.7500 Du        
   3292 ****        -3.2500 -14.2500  18.0000 Du        
   3293 ****        -3.2500 -14.2500  18.2500 Du        
   3294 ****        -3.2500 -14.2500  18.5000 Du        
   3295 ****        -3.2500 -14.2500  18.7500 Du        
   3296 ****        -3.2500 -14.2500  19.0000 Du        
   3297 ****        -3.2500  -8.2500  19.2500 Du        
   3298 ****        -3.0000 -20.2500  14.0000 Du        
   3299 ****        -3.0000 -20.2500  24.5000 Du        
   3300 ****        -3.0000 -20.2500  24.7500 Du        
   3301 ****        -3.0000 -20.0000  13.7500 Du        
   3302 ****        -3.0000 -20.0000  14.0000 Du        
   3303 ****        -3.0000 -20.0000  14.2500 Du        
   3304 ****        -3.0000 -20.0000  14.5000 Du        
   3305 ****        -3.0000 -20.0000  14.7500 Du        
   3306 ****        -3.0000 -20.0000  15.0000 Du        
   3307 ****        -3.0000 -20.0000  15.2500 Du        
   3308 ****        -3.0000 -20.0000  15.5000 Du        
   3309 ****        -3.0000 -20.0000  15.7500 Du        
   3310 ****        -3.0000 -20.0000  16.0000 Du        
   3311 ****        -3.0000 -20.0000  24.2500 Du        
   3312 ****        -3.0000 -20.0000  24.5000 Du        
   3313 ****        -3.0000 -20.0000  24.7500 Du        
   3314 ****        -3.0000 -19.7500  13.5000 Du        
   3315 ****        -3.0000 -19.7500  13.7500 Du        
   3316 ****        -3.0000 -19.7500  14.0000 Du        
   3317 ****        -3.0000 -19.7500  14.2500 Du        
   3318 ****        -3.0000 -19.7500  14.5000 Du        
   3319 ****        -3.0000 -19.7500  14.7500 Du        
   3320 ****        -3.0000 -19.7500  15.0000 Du        
   3321 ****        -3.0000 -19.7500  15.2500 Du        
   3322 ****        -3.0000 -19.7500  15.5000 Du        
   3323 ****        -3.0000 -19.7500  15.7500 Du        
   3324 ****        -3.0000 -19.7500  16.0000 Du        
   3325 ****        -3.0000 -19.7500  16.2500 Du        
   3326 ****        -3.0000 -19.7500  24.0000 Du        
   3327 ****        -3.0000 -19.7500  24.2500 Du        
   3328 ****        -3.0000 -19.7500  24.5000 Du        
   3329 ****        -3.0000 -19.7500  24.7500 Du        
   3330 ****        -3.0000 -19.5000  13.5000 Du        
   3331 ****        -3.0000 -19.5000  13.7500 Du        
   3332 ****        -3.0000 -19.5000  14.0000 Du        
   3333 ****        -3.0000 -19.5000  14.2500 Du        
   3334 ****        -3.0000 -19.5000  14.5000 Du        
   3335 ****        -3.0000 -19.5000  14.7500 Du        
   3336 ****        -3.0000 -19.5000  15.0000 Du        
   3337 ****        -3.0000 -19.5000  15.2500 Du        
   3338 ****        -3.0000 -19.5000  15.5000 Du        
   3339 ****        -3.0000 -19.5000  15.7500 Du        
   3340 ****        -3.0000 -19.5000  16.0000 Du        
   3341 ****        -3.0000 -19.5000  16.2500 Du        
   3342 ****        -3.0000 -19.5000  24.0000 Du        
   3343 ****        -3.0000 -19.5000  24.2500 Du        
   3344 ****        -3.0000 -19.5000  24.5000 Du        
   3345 ****        -3.0000 -19.5000  24.7500 Du        
   3346 ****        -3.0000 -19.2500  13.5000 Du        
   3347 ****        -3.0000 -19.2500  13.7500 Du        
   3348 ****        -3.0000 -19.2500  14.0000 Du        
   3349 ****        -3.0000 -19.2500  14.2500 Du        
   3350 ****        -3.0000 -19.2500  14.5000 Du        
   3351 ****        -3.0000 -19.2500  14.7500 Du        
   3352 ****        -3.0000 -19.2500  15.0000 Du        
   3353 ****        -3.0000 -19.2500  15.2500 Du        
   3354 ****        -3.0000 -19.2500  15.5000 Du        
   3355 ****        -3.0000 -19.2500  15.7500 Du        
   3356 ****        -3.0000 -19.2500  16.0000 Du        
   3357 ****        -3.0000 -19.2500  16.2500 Du        
   3358 ****        -3.0000 -19.2500  24.2500 Du        
   3359 ****        -3.0000 -19.2500  24.5000 Du        
   3360 ****        -3.0000 -19.2500  24.7500 Du        
   3361 ****        -3.0000 -19.0000  14.2500 Du        
   3362 ****        -3.0000 -19.0000  14.5000 Du        
   3363 ****        -3.0000 -19.0000  14.7500 Du        
   3364 ****        -3.0000 -19.0000  15.0000 Du        
   3365 ****        -3.0000 -19.0000  15.2500 Du        
   3366 ****        -3.0000 -19.0000  15.5000 Du        
   3367 ****        -3.0000 -19.0000  15.7500 Du        
   3368 ****        -3.0000 -19.0000  16.0000 Du        
   3369 ****        -3.0000 -19.0000  16.2500 Du        
   3370 ****        -3.0000 -19.0000  24.2500 Du        
   3371 ****        -3.0000 -19.0000  24.5000 Du        
   3372 ****        -3.0000 -19.0000  24.7500 Du        
   3373 ****        -3.0000 -19.0000  25.0000 Du        
   3374 ****        -3.0000 -18.7500  15.0000 Du        
   3375 ****        -3.0000 -18.7500  15.2500 Du        
   3376 ****        -3.0000 -18.7500  15.5000 Du        
   3377 ****        -3.0000 -18.7500  15.7500 Du        
   3378 ****        -3.0000 -18.7500  16.0000 Du        
   3379 ****        -3.0000 -18.7500  24.2500 Du        
   3380 ****        -3.0000 -18.7500  24.5000 Du        
   3381 ****        -3.0000 -18.7500  24.7500 Du        
   3382 ****        -3.0000 -18.5000  15.2500 Du        
   3383 ****        -3.0000 -18.5000  15.5000 Du        
   3384 ****        -3.0000 -18.5000  15.7500 Du        
   3385 ****        -3.0000 -18.5000  16.0000 Du        
   3386 ****        -3.0000 -18.5000  24.2500 Du        
   3387 ****        -3.0000 -18.5000  24.5000 Du        
   3388 ****        -3.0000 -18.5000  24.7500 Du        
   3389 ****        -3.0000 -18.2500  15.7500 Du        
   3390 ****        -3.0000 -18.2500  16.0000 Du        
   3391 ****        -3.0000 -18.2500  16.2500 Du        
   3392 ****        -3.0000 -18.2500  24.2500 Du        
   3393 ****        -3.0000 -18.2500  24.5000 Du        
   3394 ****        -3.0000 -18.2500  24.7500 Du        
   3395 ****        -3.0000 -18.0000  15.7500 Du        
   3396 ****        -3.0000 -18.0000  16.0000 Du        
   3397 ****        -3.0000 -18.0000  16.2500 Du        
   3398 ****        -3.0000 -18.0000  24.2500 Du        
   3399 ****        -3.0000 -18.0000  24.5000 Du        
   3400 ****        -3.0000 -17.7500  16.0000 Du        
   3401 ****        -3.0000 -17.7500  16.2500 Du        
   3402 ****        -3.0000 -17.7500  24.2500 Du        
   3403 ****        -3.0000 -17.5000  16.0000 Du        
   3404 ****        -3.0000 -17.5000  16.2500 Du        
   3405 ****        -3.0000 -17.2500  16.0000 Du        
   3406 ****        -3.0000 -17.2500  16.2500 Du        
   3407 ****        -3.0000 -17.2500  16.5000 Du        
   3408 ****        -3.0000 -17.0000  16.0000 Du        
   3409 ****        -3.0000 -17.0000  16.2500 Du        
   3410 ****        -3.0000 -17.0000  16.5000 Du        
   3411 ****        -3.0000 -17.0000  16.7500 Du        
   3412 ****        -3.0000 -17.0000  17.0000 Du        
   3413 ****        -3.0000 -16.7500  16.2500 Du        
   3414 ****        -3.0000 -16.7500  16.5000 Du        
   3415 ****        -3.0000 -16.7500  16.7500 Du        
   3416 ****        -3.0000 -16.7500  17.0000 Du        
   3417 ****        -3.0000 -16.7500  17.2500 Du        
   3418 ****        -3.0000 -16.5000  16.2500 Du        
   3419 ****        -3.0000 -16.5000  16.5000 Du        
   3420 ****        -3.0000 -16.5000  16.7500 Du        
   3421 ****        -3.0000 -16.5000  17.0000 Du        
   3422 ****        -3.0000 -16.5000  17.2500 Du        
   3423 ****        -3.0000 -16.5000  17.5000 Du        
   3424 ****        -3.0000 -16.5000  17.7500 Du        
   3425 ****        -3.0000 -16.2500  16.5000 Du        
   3426 ****        -3.0000 -16.2500  16.7500 Du        
   3427 ****        -3.0000 -16.2500  17.0000 Du        
   3428 ****        -3.0000 -16.2500  17.2500 Du        
   3429 ****        -3.0000 -16.2500  17.5000 Du        
   3430 ****        -3.0000 -16.2500  17.7500 Du        
   3431 ****        -3.0000 -16.2500  18.0000 Du        
   3432 ****        -3.0000 -16.2500  18.2500 Du        
   3433 ****        -3.0000 -16.0000  16.5000 Du        
   3434 ****        -3.0000 -16.0000  16.7500 Du        
   3435 ****        -3.0000 -16.0000  17.0000 Du        
   3436 ****        -3.0000 -16.0000  17.2500 Du        
   3437 ****        -3.0000 -16.0000  17.5000 Du        
   3438 ****        -3.0000 -16.0000  17.7500 Du        
   3439 ****        -3.0000 -16.0000  18.0000 Du        
   3440 ****        -3.0000 -16.0000  18.2500 Du        
   3441 ****        -3.0000 -16.0000  18.5000 Du        
   3442 ****        -3.0000 -16.0000  18.7500 Du        
   3443 ****        -3.0000 -15.7500  16.7500 Du        
   3444 ****        -3.0000 -15.7500  17.0000 Du        
   3445 ****        -3.0000 -15.7500  17.2500 Du        
   3446 ****        -3.0000 -15.7500  17.5000 Du        
   3447 ****        -3.0000 -15.7500  17.7500 Du        
   3448 ****        -3.0000 -15.7500  18.0000 Du        
   3449 ****        -3.0000 -15.7500  18.2500 Du        
   3450 ****        -3.0000 -15.7500  18.5000 Du        
   3451 ****        -3.0000 -15.7500  18.7500 Du        
   3452 ****        -3.0000 -15.7500  19.0000 Du        
   3453 ****        -3.0000 -15.5000  16.7500 Du        
   3454 ****        -3.0000 -15.5000  17.0000 Du        
   3455 ****        -3.0000 -15.5000  17.2500 Du        
   3456 ****        -3.0000 -15.5000  17.5000 Du        
   3457 ****        -3.0000 -15.5000  17.7500 Du        
   3458 ****        -3.0000 -15.5000  18.0000 Du        
   3459 ****        -3.0000 -15.5000  18.2500 Du        
   3460 ****        -3.0000 -15.5000  18.5000 Du        
   3461 ****        -3.0000 -15.5000  18.7500 Du        
   3462 ****        -3.0000 -15.5000  19.0000 Du        
   3463 ****        -3.0000 -15.5000  19.2500 Du        
   3464 ****        -3.0000 -15.2500  17.0000 Du        
   3465 ****        -3.0000 -15.2500  17.2500 Du        
   3466 ****        -3.0000 -15.2500  17.5000 Du        
   3467 ****        -3.0000 -15.2500  17.7500 Du        
   3468 ****        -3.0000 -15.2500  18.0000 Du        
   3469 ****        -3.0000 -15.2500  18.2500 Du        
   3470 ****        -3.0000 -15.2500  18.5000 Du        
   3471 ****        -3.0000 -15.2500  18.7500 Du        
   3472 ****        -3.0000 -15.2500  19.0000 Du        
   3473 ****        -3.0000 -15.2500  19.2500 Du        
   3474 ****        -3.0000 -15.2500  19.5000 Du        
   3475 ****        -3.0000 -15.0000  17.0000 Du        
   3476 ****        -3.0000 -15.0000  17.2500 Du        
   3477 ****        -3.0000 -15.0000  17.5000 Du        
   3478 ****        -3.0000 -15.0000  17.7500 Du        
   3479 ****        -3.0000 -15.0000  18.0000 Du        
   3480 ****        -3.0000 -15.0000  18.2500 Du        
   3481 ****        -3.0000 -15.0000  18.5000 Du        
   3482 ****        -3.0000 -15.0000  18.7500 Du        
   3483 ****        -3.0000 -15.0000  19.0000 Du        
   3484 ****        -3.0000 -15.0000  19.2500 Du        
   3485 ****        -3.0000 -15.0000  19.5000 Du        
   3486 ****        -3.0000 -14.7500  17.2500 Du        
   3487 ****        -3.0000 -14.7500  17.5000 Du        
   3488 ****        -3.0000 -14.7500  17.7500 Du        
   3489 ****        -3.0000 -14.7500  18.0000 Du        
   3490 ****        -3.0000 -14.7500  18.2500 Du        
   3491 ****        -3.0000 -14.7500  18.5000 Du        
   3492 ****        -3.0000 -14.7500  18.7500 Du        
   3493 ****        -3.0000 -14.7500  19.0000 Du        
   3494 ****        -3.0000 -14.7500  19.2500 Du        
   3495 ****        -3.0000 -14.7500  19.5000 Du        
   3496 ****        -3.0000 -14.5000  17.5000 Du        
   3497 ****        -3.0000 -14.5000  17.7500 Du        
   3498 ****        -3.0000 -14.5000  18.0000 Du        
   3499 ****        -3.0000 -14.5000  18.2500 Du        
   3500 ****        -3.0000 -14.5000  18.5000 Du        
   3501 ****        -3.0000 -14.5000  18.7500 Du        
   3502 ****        -3.0000 -14.5000  19.0000 Du        
   3503 ****        -3.0000 -14.5000  19.2500 Du        
   3504 ****        -3.0000 -14.2500  17.7500 Du        
   3505 ****        -3.0000 -14.2500  18.0000 Du        
   3506 ****        -3.0000 -14.2500  18.2500 Du        
   3507 ****        -3.0000 -14.2500  18.5000 Du        
   3508 ****        -3.0000 -14.2500  18.7500 Du        
   3509 ****        -3.0000 -14.2500  19.0000 Du        
   3510 ****        -3.0000 -14.0000  18.0000 Du        
   3511 ****        -3.0000 -14.0000  18.2500 Du        
   3512 ****        -3.0000  -8.5000  19.0000 Du        
   3513 ****        -3.0000  -8.5000  19.2500 Du        
   3514 ****        -3.0000  -8.2500  16.7500 Du        
   3515 ****        -3.0000  -8.2500  17.0000 Du        
   3516 ****        -3.0000  -8.2500  17.2500 Du        
   3517 ****        -3.0000  -8.2500  17.5000 Du        
   3518 ****        -3.0000  -8.2500  17.7500 Du        
   3519 ****        -3.0000  -8.2500  18.0000 Du        
   3520 ****        -3.0000  -8.2500  18.2500 Du        
   3521 ****        -3.0000  -8.2500  18.5000 Du        
   3522 ****        -3.0000  -8.2500  18.7500 Du        
   3523 ****        -3.0000  -8.2500  19.0000 Du        
   3524 ****        -3.0000  -8.2500  19.2500 Du        
   3525 ****        -3.0000  -8.2500  19.5000 Du        
   3526 ****        -2.7500 -19.7500  13.7500 Du        
   3527 ****        -2.7500 -19.5000  13.5000 Du        
   3528 ****        -2.7500 -19.5000  13.7500 Du        
   3529 ****        -2.7500 -19.5000  14.0000 Du        
   3530 ****        -2.7500 -19.5000  14.2500 Du        
   3531 ****        -2.7500 -19.2500  13.5000 Du        
   3532 ****        -2.7500 -19.2500  13.7500 Du        
   3533 ****        -2.7500 -19.2500  14.0000 Du        
   3534 ****        -2.7500 -19.2500  14.2500 Du        
   3535 ****        -2.7500 -19.2500  14.5000 Du        
   3536 ****        -2.7500 -19.2500  14.7500 Du        
   3537 ****        -2.7500 -19.2500  15.0000 Du        
   3538 ****        -2.7500 -19.2500  15.2500 Du        
   3539 ****        -2.7500 -19.0000  13.7500 Du        
   3540 ****        -2.7500 -19.0000  14.0000 Du        
   3541 ****        -2.7500 -19.0000  14.2500 Du        
   3542 ****        -2.7500 -19.0000  14.5000 Du        
   3543 ****        -2.7500 -19.0000  14.7500 Du        
   3544 ****        -2.7500 -19.0000  15.0000 Du        
   3545 ****        -2.7500 -19.0000  15.2500 Du        
   3546 ****        -2.7500 -18.7500  14.7500 Du        
   3547 ****        -2.7500 -18.7500  15.0000 Du        
   3548 ****        -2.7500 -18.7500  15.2500 Du        
   3549 ****        -2.7500 -18.7500  15.5000 Du        
   3550 ****        -2.7500 -18.7500  15.7500 Du        
   3551 ****        -2.7500 -18.5000  15.0000 Du        
   3552 ****        -2.7500 -18.5000  15.2500 Du        
   3553 ****        -2.7500 -18.5000  15.5000 Du        
   3554 ****        -2.7500 -18.5000  15.7500 Du        
   3555 ****        -2.7500 -18.2500  15.2500 Du        
   3556 ****        -2.7500 -18.2500  15.5000 Du        
   3557 ****        -2.7500 -18.2500  15.7500 Du        
   3558 ****        -2.7500 -18.2500  16.0000 Du        
   3559 ****        -2.7500 -18.0000  15.5000 Du        
   3560 ****        -2.7500 -18.0000  15.7500 Du        
   3561 ****        -2.7500 -18.0000  16.0000 Du        
   3562 ****        -2.7500 -17.7500  15.7500 Du        
   3563 ****        -2.7500 -17.7500  16.0000 Du        
   3564 ****        -2.7500 -17.5000  15.7500 Du        
   3565 ****        -2.7500 -17.5000  16.0000 Du        
   3566 ****        -2.7500 -17.5000  16.2500 Du        
   3567 ****        -2.7500 -17.2500  15.7500 Du        
   3568 ****        -2.7500 -17.2500  16.0000 Du        
   3569 ****        -2.7500 -17.2500  16.2500 Du        
   3570 ****        -2.7500 -17.0000  16.0000 Du        
   3571 ****        -2.7500 -17.0000  16.2500 Du        
   3572 ****        -2.7500 -17.0000  16.5000 Du        
   3573 ****        -2.7500 -17.0000  16.7500 Du        
   3574 ****        -2.7500 -16.7500  16.0000 Du        
   3575 ****        -2.7500 -16.7500  16.2500 Du        
   3576 ****        -2.7500 -16.7500  16.5000 Du        
   3577 ****        -2.7500 -16.7500  16.7500 Du        
   3578 ****        -2.7500 -16.7500  17.0000 Du        
   3579 ****        -2.7500 -16.5000  16.0000 Du        
   3580 ****        -2.7500 -16.5000  16.2500 Du        
   3581 ****        -2.7500 -16.5000  16.5000 Du        
   3582 ****        -2.7500 -16.5000  16.7500 Du        
   3583 ****        -2.7500 -16.5000  17.0000 Du        
   3584 ****        -2.7500 -16.5000  17.2500 Du        
   3585 ****        -2.7500 -16.5000  17.5000 Du        
   3586 ****        -2.7500 -16.2500  16.0000 Du        
   3587 ****        -2.7500 -16.2500  16.2500 Du        
   3588 ****        -2.7500 -16.2500  16.5000 Du        
   3589 ****        -2.7500 -16.2500  16.7500 Du        
   3590 ****        -2.7500 -16.2500  17.0000 Du        
   3591 ****        -2.7500 -16.2500  17.2500 Du        
   3592 ****        -2.7500 -16.2500  17.5000 Du        
   3593 ****        -2.7500 -16.2500  17.7500 Du        
   3594 ****        -2.7500 -16.2500  18.0000 Du        
   3595 ****        -2.7500 -16.0000  16.2500 Du        
   3596 ****        -2.7500 -16.0000  16.5000 Du        
   3597 ****        -2.7500 -16.0000  16.7500 Du        
   3598 ****        -2.7500 -16.0000  17.0000 Du        
   3599 ****        -2.7500 -16.0000  17.2500 Du        
   3600 ****        -2.7500 -16.0000  17.5000 Du        
   3601 ****        -2.7500 -16.0000  17.7500 Du        
   3602 ****        -2.7500 -16.0000  18.0000 Du        
   3603 ****        -2.7500 -16.0000  18.2500 Du        
   3604 ****        -2.7500 -16.0000  18.5000 Du        
   3605 ****        -2.7500 -15.7500  16.5000 Du        
   3606 ****        -2.7500 -15.7500  16.7500 Du        
   3607 ****        -2.7500 -15.7500  17.0000 Du        
   3608 ****        -2.7500 -15.7500  17.2500 Du        
   3609 ****        -2.7500 -15.7500  17.5000 Du        
   3610 ****        -2.7500 -15.7500  17.7500 Du        
   3611 ****        -2.7500 -15.7500  18.0000 Du        
   3612 ****        -2.7500 -15.7500  18.2500 Du        
   3613 ****        -2.7500 -15.7500  18.5000 Du        
   3614 ****        -2.7500 -15.7500  18.7500 Du        
   3615 ****        -2.7500 -15.7500  19.0000 Du        
   3616 ****        -2.7500 -15.5000  16.7500 Du        
   3617 ****        -2.7500 -15.5000  17.0000 Du        
   3618 ****        -2.7500 -15.5000  17.2500 Du        
   3619 ****        -2.7500 -15.5000  17.5000 Du        
   3620 ****        -2.7500 -15.5000  17.7500 Du        
   3621 ****        -2.7500 -15.5000  18.0000 Du        
   3622 ****        -2.7500 -15.5000  18.2500 Du        
   3623 ****        -2.7500 -15.5000  18.5000 Du        
   3624 ****        -2.7500 -15.5000  18.7500 Du        
   3625 ****        -2.7500 -15.5000  19.0000 Du        
   3626 ****        -2.7500 -15.5000  19.2500 Du        
   3627 ****        -2.7500 -15.2500  16.7500 Du        
   3628 ****        -2.7500 -15.2500  17.0000 Du        
   3629 ****        -2.7500 -15.2500  17.2500 Du        
   3630 ****        -2.7500 -15.2500  17.5000 Du        
   3631 ****        -2.7500 -15.2500  17.7500 Du        
   3632 ****        -2.7500 -15.2500  18.0000 Du        
   3633 ****        -2.7500 -15.2500  18.2500 Du        
   3634 ****        -2.7500 -15.2500  18.5000 Du        
   3635 ****        -2.7500 -15.2500  18.7500 Du        
   3636 ****        -2.7500 -15.2500  19.0000 Du        
   3637 ****        -2.7500 -15.2500  19.2500 Du        
   3638 ****        -2.7500 -15.0000  17.0000 Du        
   3639 ****        -2.7500 -15.0000  17.2500 Du        
   3640 ****        -2.7500 -15.0000  17.5000 Du        
   3641 ****        -2.7500 -15.0000  17.7500 Du        
   3642 ****        -2.7500 -15.0000  18.0000 Du        
   3643 ****        -2.7500 -15.0000  18.2500 Du        
   3644 ****        -2.7500 -15.0000  18.5000 Du        
   3645 ****        -2.7500 -15.0000  18.7500 Du        
   3646 ****        -2.7500 -15.0000  19.0000 Du        
   3647 ****        -2.7500 -15.0000  19.2500 Du        
   3648 ****        -2.7500 -14.7500  17.2500 Du        
   3649 ****        -2.7500 -14.7500  17.5000 Du        
   3650 ****        -2.7500 -14.7500  17.7500 Du        
   3651 ****        -2.7500 -14.7500  18.0000 Du        
   3652 ****        -2.7500 -14.7500  18.2500 Du        
   3653 ****        -2.7500 -14.7500  18.5000 Du        
   3654 ****        -2.7500 -14.7500  18.7500 Du        
   3655 ****        -2.7500 -14.7500  19.0000 Du        
   3656 ****        -2.7500 -14.7500  19.2500 Du        
   3657 ****        -2.7500 -14.5000  17.5000 Du        
   3658 ****        -2.7500 -14.5000  17.7500 Du        
   3659 ****        -2.7500 -14.5000  18.0000 Du        
   3660 ****        -2.7500 -14.5000  18.2500 Du        
   3661 ****        -2.7500 -14.5000  18.5000 Du        
   3662 ****        -2.7500 -14.5000  18.7500 Du        
   3663 ****        -2.7500 -14.5000  19.0000 Du        
   3664 ****        -2.7500 -14.2500  17.7500 Du        
   3665 ****        -2.7500 -14.2500  18.0000 Du        
   3666 ****        -2.7500 -14.2500  18.2500 Du        
   3667 ****        -2.7500 -14.2500  18.5000 Du        
   3668 ****        -2.7500 -14.2500  18.7500 Du        
   3669 ****        -2.7500 -14.0000  18.0000 Du        
   3670 ****        -2.7500 -14.0000  18.2500 Du        
   3671 ****        -2.7500  -8.7500  17.0000 Du        
   3672 ****        -2.7500  -8.7500  17.2500 Du        
   3673 ****        -2.7500  -8.7500  17.5000 Du        
   3674 ****        -2.7500  -8.7500  17.7500 Du        
   3675 ****        -2.7500  -8.7500  18.0000 Du        
   3676 ****        -2.7500  -8.7500  18.2500 Du        
   3677 ****        -2.7500  -8.7500  18.5000 Du        
   3678 ****        -2.7500  -8.7500  18.7500 Du        
   3679 ****        -2.7500  -8.7500  19.0000 Du        
   3680 ****        -2.7500  -8.7500  19.2500 Du        
   3681 ****        -2.7500  -8.5000  16.5000 Du        
   3682 ****        -2.7500  -8.5000  16.7500 Du        
   3683 ****        -2.7500  -8.5000  17.0000 Du        
   3684 ****        -2.7500  -8.5000  17.2500 Du        
   3685 ****        -2.7500  -8.5000  17.5000 Du        
   3686 ****        -2.7500  -8.5000  17.7500 Du        
   3687 ****        -2.7500  -8.5000  18.0000 Du        
   3688 ****        -2.7500  -8.5000  18.2500 Du        
   3689 ****        -2.7500  -8.5000  18.5000 Du        
   3690 ****        -2.7500  -8.5000  18.7500 Du        
   3691 ****        -2.7500  -8.5000  19.0000 Du        
   3692 ****        -2.7500  -8.5000  19.2500 Du        
   3693 ****        -2.7500  -8.2500  16.2500 Du        
   3694 ****        -2.7500  -8.2500  16.5000 Du        
   3695 ****        -2.7500  -8.2500  16.7500 Du        
   3696 ****        -2.7500  -8.2500  17.0000 Du        
   3697 ****        -2.7500  -8.2500  17.2500 Du        
   3698 ****        -2.7500  -8.2500  17.5000 Du        
   3699 ****        -2.7500  -8.2500  17.7500 Du        
   3700 ****        -2.7500  -8.2500  18.0000 Du        
   3701 ****        -2.7500  -8.2500  18.2500 Du        
   3702 ****        -2.7500  -8.2500  18.5000 Du        
   3703 ****        -2.7500  -8.2500  18.7500 Du        
   3704 ****        -2.7500  -8.2500  19.0000 Du        
   3705 ****        -2.7500  -8.2500  19.2500 Du        
   3706 ****        -2.5000 -19.2500  13.7500 Du        
   3707 ****        -2.5000 -19.0000  13.7500 Du        
   3708 ****        -2.5000 -19.0000  14.0000 Du        
   3709 ****        -2.5000 -18.7500  14.0000 Du        
   3710 ****        -2.5000 -18.7500  14.2500 Du        
   3711 ****        -2.5000 -18.5000  14.7500 Du        
   3712 ****        -2.5000 -18.5000  15.0000 Du        
   3713 ****        -2.5000 -18.5000  15.2500 Du        
   3714 ****        -2.5000 -18.2500  15.0000 Du        
   3715 ****        -2.5000 -18.2500  15.2500 Du        
   3716 ****        -2.5000 -18.2500  15.5000 Du        
   3717 ****        -2.5000 -18.2500  15.7500 Du        
   3718 ****        -2.5000 -18.0000  15.0000 Du        
   3719 ****        -2.5000 -18.0000  15.2500 Du        
   3720 ****        -2.5000 -18.0000  15.5000 Du        
   3721 ****        -2.5000 -18.0000  15.7500 Du        
   3722 ****        -2.5000 -18.0000  16.0000 Du        
   3723 ****        -2.5000 -17.7500  15.2500 Du        
   3724 ****        -2.5000 -17.7500  15.5000 Du        
   3725 ****        -2.5000 -17.7500  15.7500 Du        
   3726 ****        -2.5000 -17.7500  16.0000 Du        
   3727 ****        -2.5000 -17.5000  15.5000 Du        
   3728 ****        -2.5000 -17.5000  15.7500 Du        
   3729 ****        -2.5000 -17.5000  16.0000 Du        
   3730 ****        -2.5000 -17.2500  15.5000 Du        
   3731 ****        -2.5000 -17.2500  15.7500 Du        
   3732 ****        -2.5000 -17.2500  16.0000 Du        
   3733 ****        -2.5000 -17.2500  16.2500 Du        
   3734 ****        -2.5000 -17.0000  15.5000 Du        
   3735 ****        -2.5000 -17.0000  15.7500 Du        
   3736 ****        -2.5000 -17.0000  16.0000 Du        
   3737 ****        -2.5000 -17.0000  16.2500 Du        
   3738 ****        -2.5000 -17.0000  16.5000 Du        
   3739 ****        -2.5000 -16.7500  15.5000 Du        
   3740 ****        -2.5000 -16.7500  15.7500 Du        
   3741 ****        -2.5000 -16.7500  16.0000 Du        
   3742 ****        -2.5000 -16.7500  16.2500 Du        
   3743 ****        -2.5000 -16.7500  16.5000 Du        
   3744 ****        -2.5000 -16.7500  16.7500 Du        
   3745 ****        -2.5000 -16.5000  15.7500 Du        
   3746 ****        -2.5000 -16.5000  16.0000 Du        
   3747 ****        -2.5000 -16.5000  16.2500 Du        
   3748 ****        -2.5000 -16.5000  16.5000 Du        
   3749 ****        -2.5000 -16.5000  16.7500 Du        
   3750 ****        -2.5000 -16.5000  17.0000 Du        
   3751 ****        -2.5000 -16.2500  15.7500 Du        
   3752 ****        -2.5000 -16.2500  16.0000 Du        
   3753 ****        -2.5000 -16.2500  16.2500 Du        
   3754 ****        -2.5000 -16.2500  16.5000 Du        
   3755 ****        -2.5000 -16.2500  16.7500 Du        
   3756 ****        -2.5000 -16.2500  17.0000 Du        
   3757 ****        -2.5000 -16.2500  17.2500 Du        
   3758 ****        -2.5000 -16.2500  17.5000 Du        
   3759 ****        -2.5000 -16.2500  17.7500 Du        
   3760 ****        -2.5000 -16.0000  15.7500 Du        
   3761 ****        -2.5000 -16.0000  16.0000 Du        
   3762 ****        -2.5000 -16.0000  16.2500 Du        
   3763 ****        -2.5000 -16.0000  16.5000 Du        
   3764 ****        -2.5000 -16.0000  16.7500 Du        
   3765 ****        -2.5000 -16.0000  17.0000 Du        
   3766 ****        -2.5000 -16.0000  17.2500 Du        
   3767 ****        -2.5000 -16.0000  17.5000 Du        
   3768 ****        -2.5000 -16.0000  17.7500 Du        
   3769 ****        -2.5000 -16.0000  18.0000 Du        
   3770 ****        -2.5000 -16.0000  18.2500 Du        
   3771 ****        -2.5000 -15.7500  16.0000 Du        
   3772 ****        -2.5000 -15.7500  16.2500 Du        
   3773 ****        -2.5000 -15.7500  16.5000 Du        
   3774 ****        -2.5000 -15.7500  16.7500 Du        
   3775 ****        -2.5000 -15.7500  17.0000 Du        
   3776 ****        -2.5000 -15.7500  17.2500 Du        
   3777 ****        -2.5000 -15.7500  17.5000 Du        
   3778 ****        -2.5000 -15.7500  17.7500 Du        
   3779 ****        -2.5000 -15.7500  18.0000 Du        
   3780 ****        -2.5000 -15.7500  18.2500 Du        
   3781 ****        -2.5000 -15.7500  18.5000 Du        
   3782 ****        -2.5000 -15.7500  18.7500 Du        
   3783 ****        -2.5000 -15.5000  16.5000 Du        
   3784 ****        -2.5000 -15.5000  16.7500 Du        
   3785 ****        -2.5000 -15.5000  17.0000 Du        
   3786 ****        -2.5000 -15.5000  17.2500 Du        
   3787 ****        -2.5000 -15.5000  17.5000 Du        
   3788 ****        -2.5000 -15.5000  17.7500 Du        
   3789 ****        -2.5000 -15.5000  18.0000 Du        
   3790 ****        -2.5000 -15.5000  18.2500 Du        
   3791 ****        -2.5000 -15.5000  18.5000 Du        
   3792 ****        -2.5000 -15.5000  18.7500 Du        
   3793 ****        -2.5000 -15.5000  19.0000 Du        
   3794 ****        -2.5000 -15.2500  16.7500 Du        
   3795 ****        -2.5000 -15.2500  17.0000 Du        
   3796 ****        -2.5000 -15.2500  17.2500 Du        
   3797 ****        -2.5000 -15.2500  17.5000 Du        
   3798 ****        -2.5000 -15.2500  17.7500 Du        
   3799 ****        -2.5000 -15.2500  18.0000 Du        
   3800 ****        -2.5000 -15.2500  18.2500 Du        
   3801 ****        -2.5000 -15.2500  18.5000 Du        
   3802 ****        -2.5000 -15.2500  18.7500 Du        
   3803 ****        -2.5000 -15.2500  19.0000 Du        
   3804 ****        -2.5000 -15.2500  19.2500 Du        
   3805 ****        -2.5000 -15.0000  17.0000 Du        
   3806 ****        -2.5000 -15.0000  17.2500 Du        
   3807 ****        -2.5000 -15.0000  17.5000 Du        
   3808 ****        -2.5000 -15.0000  17.7500 Du        
   3809 ****        -2.5000 -15.0000  18.0000 Du        
   3810 ****        -2.5000 -15.0000  18.2500 Du        
   3811 ****        -2.5000 -15.0000  18.5000 Du        
   3812 ****        -2.5000 -15.0000  18.7500 Du        
   3813 ****        -2.5000 -15.0000  19.0000 Du        
   3814 ****        -2.5000 -14.7500  17.5000 Du        
   3815 ****        -2.5000 -14.7500  17.7500 Du        
   3816 ****        -2.5000 -14.7500  18.0000 Du        
   3817 ****        -2.5000 -14.7500  18.2500 Du        
   3818 ****        -2.5000 -14.7500  18.5000 Du        
   3819 ****        -2.5000 -14.7500  18.7500 Du        
   3820 ****        -2.5000 -14.7500  19.0000 Du        
   3821 ****        -2.5000 -14.5000  17.7500 Du        
   3822 ****        -2.5000 -14.5000  18.0000 Du        
   3823 ****        -2.5000 -14.5000  18.2500 Du        
   3824 ****        -2.5000 -14.5000  18.5000 Du        
   3825 ****        -2.5000 -14.5000  18.7500 Du        
   3826 ****        -2.5000 -14.2500  17.7500 Du        
   3827 ****        -2.5000 -14.2500  18.0000 Du        
   3828 ****        -2.5000 -14.2500  18.2500 Du        
   3829 ****        -2.5000  -9.2500  18.0000 Du        
   3830 ****        -2.5000  -9.2500  18.2500 Du        
   3831 ****        -2.5000  -9.2500  18.5000 Du        
   3832 ****        -2.5000  -9.2500  18.7500 Du        
   3833 ****        -2.5000  -9.0000  17.0000 Du        
   3834 ****        -2.5000  -9.0000  17.2500 Du        
   3835 ****        -2.5000  -9.0000  17.5000 Du        
   3836 ****        -2.5000  -9.0000  17.7500 Du        
   3837 ****        -2.5000  -9.0000  18.0000 Du        
   3838 ****        -2.5000  -9.0000  18.2500 Du        
   3839 ****        -2.5000  -9.0000  18.5000 Du        
   3840 ****        -2.5000  -9.0000  18.7500 Du        
   3841 ****        -2.5000  -9.0000  19.0000 Du        
   3842 ****        -2.5000  -8.7500  16.5000 Du        
   3843 ****        -2.5000  -8.7500  16.7500 Du        
   3844 ****        -2.5000  -8.7500  17.0000 Du        
   3845 ****        -2.5000  -8.7500  17.2500 Du        
   3846 ****        -2.5000  -8.7500  17.5000 Du        
   3847 ****        -2.5000  -8.7500  17.7500 Du        
   3848 ****        -2.5000  -8.7500  18.0000 Du        
   3849 ****        -2.5000  -8.7500  18.2500 Du        
   3850 ****        -2.5000  -8.7500  18.5000 Du        
   3851 ****        -2.5000  -8.7500  18.7500 Du        
   3852 ****        -2.5000  -8.7500  19.0000 Du        
   3853 ****        -2.5000  -8.5000  16.0000 Du        
   3854 ****        -2.5000  -8.5000  16.2500 Du        
   3855 ****        -2.5000  -8.5000  16.5000 Du        
   3856 ****        -2.5000  -8.5000  16.7500 Du        
   3857 ****        -2.5000  -8.5000  17.0000 Du        
   3858 ****        -2.5000  -8.5000  17.2500 Du        
   3859 ****        -2.5000  -8.5000  17.5000 Du        
   3860 ****        -2.5000  -8.5000  17.7500 Du        
   3861 ****        -2.5000  -8.5000  18.0000 Du        
   3862 ****        -2.5000  -8.5000  18.2500 Du        
   3863 ****        -2.5000  -8.5000  18.5000 Du        
   3864 ****        -2.5000  -8.5000  18.7500 Du        
   3865 ****        -2.5000  -8.5000  19.0000 Du        
   3866 ****        -2.5000  -8.5000  19.2500 Du        
   3867 ****        -2.5000  -8.2500  16.0000 Du        
   3868 ****        -2.5000  -8.2500  16.2500 Du        
   3869 ****        -2.5000  -8.2500  16.5000 Du        
   3870 ****        -2.5000  -8.2500  16.7500 Du        
   3871 ****        -2.5000  -8.2500  17.0000 Du        
   3872 ****        -2.5000  -8.2500  17.2500 Du        
   3873 ****        -2.5000  -8.2500  17.5000 Du        
   3874 ****        -2.5000  -8.2500  17.7500 Du        
   3875 ****        -2.5000  -8.2500  18.0000 Du        
   3876 ****        -2.5000  -8.2500  18.2500 Du        
   3877 ****        -2.5000  -8.2500  18.5000 Du        
   3878 ****        -2.5000  -8.2500  18.7500 Du        
   3879 ****        -2.5000  -8.2500  19.0000 Du        
   3880 ****        -2.2500 -18.2500  14.7500 Du        
   3881 ****        -2.2500 -18.2500  15.0000 Du        
   3882 ****        -2.2500 -18.2500  15.2500 Du        
   3883 ****        -2.2500 -18.0000  14.7500 Du        
   3884 ****        -2.2500 -18.0000  15.0000 Du        
   3885 ****        -2.2500 -18.0000  15.2500 Du        
   3886 ****        -2.2500 -18.0000  15.5000 Du        
   3887 ****        -2.2500 -18.0000  15.7500 Du        
   3888 ****        -2.2500 -17.7500  14.7500 Du        
   3889 ****        -2.2500 -17.7500  15.0000 Du        
   3890 ****        -2.2500 -17.7500  15.2500 Du        
   3891 ****        -2.2500 -17.7500  15.5000 Du        
   3892 ****        -2.2500 -17.7500  15.7500 Du        
   3893 ****        -2.2500 -17.5000  15.0000 Du        
   3894 ****        -2.2500 -17.5000  15.2500 Du        
   3895 ****        -2.2500 -17.5000  15.5000 Du        
   3896 ****        -2.2500 -17.5000  15.7500 Du        
   3897 ****        -2.2500 -17.5000  16.0000 Du        
   3898 ****        -2.2500 -17.2500  15.0000 Du        
   3899 ****        -2.2500 -17.2500  15.2500 Du        
   3900 ****        -2.2500 -17.2500  15.5000 Du        
   3901 ****        -2.2500 -17.2500  15.7500 Du        
   3902 ****        -2.2500 -17.2500  16.0000 Du        
   3903 ****        -2.2500 -17.2500  16.2500 Du        
   3904 ****        -2.2500 -17.0000  15.2500 Du        
   3905 ****        -2.2500 -17.0000  15.5000 Du        
   3906 ****        -2.2500 -17.0000  15.7500 Du        
   3907 ****        -2.2500 -17.0000  16.0000 Du        
   3908 ****        -2.2500 -17.0000  16.2500 Du        
   3909 ****        -2.2500 -17.0000  16.5000 Du        
   3910 ****        -2.2500 -16.7500  15.2500 Du        
   3911 ****        -2.2500 -16.7500  15.5000 Du        
   3912 ****        -2.2500 -16.7500  15.7500 Du        
   3913 ****        -2.2500 -16.7500  16.0000 Du        
   3914 ****        -2.2500 -16.7500  16.2500 Du        
   3915 ****        -2.2500 -16.7500  16.5000 Du        
   3916 ****        -2.2500 -16.7500  16.7500 Du        
   3917 ****        -2.2500 -16.5000  15.2500 Du        
   3918 ****        -2.2500 -16.5000  15.5000 Du        
   3919 ****        -2.2500 -16.5000  15.7500 Du        
   3920 ****        -2.2500 -16.5000  16.0000 Du        
   3921 ****        -2.2500 -16.5000  16.2500 Du        
   3922 ****        -2.2500 -16.5000  16.5000 Du        
   3923 ****        -2.2500 -16.5000  16.7500 Du        
   3924 ****        -2.2500 -16.5000  17.0000 Du        
   3925 ****        -2.2500 -16.2500  15.2500 Du        
   3926 ****        -2.2500 -16.2500  15.5000 Du        
   3927 ****        -2.2500 -16.2500  15.7500 Du        
   3928 ****        -2.2500 -16.2500  16.0000 Du        
   3929 ****        -2.2500 -16.2500  16.2500 Du        
   3930 ****        -2.2500 -16.2500  16.5000 Du        
   3931 ****        -2.2500 -16.2500  16.7500 Du        
   3932 ****        -2.2500 -16.2500  17.0000 Du        
   3933 ****        -2.2500 -16.2500  17.2500 Du        
   3934 ****        -2.2500 -16.2500  17.5000 Du        
   3935 ****        -2.2500 -16.0000  15.2500 Du        
   3936 ****        -2.2500 -16.0000  15.5000 Du        
   3937 ****        -2.2500 -16.0000  15.7500 Du        
   3938 ****        -2.2500 -16.0000  16.0000 Du        
   3939 ****        -2.2500 -16.0000  16.2500 Du        
   3940 ****        -2.2500 -16.0000  16.5000 Du        
   3941 ****        -2.2500 -16.0000  16.7500 Du        
   3942 ****        -2.2500 -16.0000  17.0000 Du        
   3943 ****        -2.2500 -16.0000  17.2500 Du        
   3944 ****        -2.2500 -16.0000  17.5000 Du        
   3945 ****        -2.2500 -16.0000  17.7500 Du        
   3946 ****        -2.2500 -16.0000  18.0000 Du        
   3947 ****        -2.2500 -16.0000  18.2500 Du        
   3948 ****        -2.2500 -15.7500  15.7500 Du        
   3949 ****        -2.2500 -15.7500  16.0000 Du        
   3950 ****        -2.2500 -15.7500  16.2500 Du        
   3951 ****        -2.2500 -15.7500  16.5000 Du        
   3952 ****        -2.2500 -15.7500  16.7500 Du        
   3953 ****        -2.2500 -15.7500  17.0000 Du        
   3954 ****        -2.2500 -15.7500  17.2500 Du        
   3955 ****        -2.2500 -15.7500  17.5000 Du        
   3956 ****        -2.2500 -15.7500  17.7500 Du        
   3957 ****        -2.2500 -15.7500  18.0000 Du        
   3958 ****        -2.2500 -15.7500  18.2500 Du        
   3959 ****        -2.2500 -15.7500  18.5000 Du        
   3960 ****        -2.2500 -15.5000  16.2500 Du        
   3961 ****        -2.2500 -15.5000  16.5000 Du        
   3962 ****        -2.2500 -15.5000  16.7500 Du        
   3963 ****        -2.2500 -15.5000  17.0000 Du        
   3964 ****        -2.2500 -15.5000  17.2500 Du        
   3965 ****        -2.2500 -15.5000  17.5000 Du        
   3966 ****        -2.2500 -15.5000  17.7500 Du        
   3967 ****        -2.2500 -15.5000  18.0000 Du        
   3968 ****        -2.2500 -15.5000  18.2500 Du        
   3969 ****        -2.2500 -15.5000  18.5000 Du        
   3970 ****        -2.2500 -15.5000  18.7500 Du        
   3971 ****        -2.2500 -15.5000  19.0000 Du        
   3972 ****        -2.2500 -15.2500  17.0000 Du        
   3973 ****        -2.2500 -15.2500  17.2500 Du        
   3974 ****        -2.2500 -15.2500  17.5000 Du        
   3975 ****        -2.2500 -15.2500  17.7500 Du        
   3976 ****        -2.2500 -15.2500  18.0000 Du        
   3977 ****        -2.2500 -15.2500  18.2500 Du        
   3978 ****        -2.2500 -15.2500  18.5000 Du        
   3979 ****        -2.2500 -15.2500  18.7500 Du        
   3980 ****        -2.2500 -15.2500  19.0000 Du        
   3981 ****        -2.2500 -15.0000  17.2500 Du        
   3982 ****        -2.2500 -15.0000  17.5000 Du        
   3983 ****        -2.2500 -15.0000  17.7500 Du        
   3984 ****        -2.2500 -15.0000  18.0000 Du        
   3985 ****        -2.2500 -15.0000  18.2500 Du        
   3986 ****        -2.2500 -15.0000  18.5000 Du        
   3987 ****        -2.2500 -15.0000  18.7500 Du        
   3988 ****        -2.2500 -14.7500  17.5000 Du        
   3989 ****        -2.2500 -14.7500  17.7500 Du        
   3990 ****        -2.2500 -14.7500  18.0000 Du        
   3991 ****        -2.2500 -14.7500  18.2500 Du        
   3992 ****        -2.2500 -14.7500  18.5000 Du        
   3993 ****        -2.2500 -14.5000  17.7500 Du        
   3994 ****        -2.2500 -14.5000  18.0000 Du        
   3995 ****        -2.2500 -14.5000  18.2500 Du        
   3996 ****        -2.2500  -9.7500  18.0000 Du        
   3997 ****        -2.2500  -9.7500  18.2500 Du        
   3998 ****        -2.2500  -9.7500  18.5000 Du        
   3999 ****        -2.2500  -9.5000  17.7500 Du        
   4000 ****        -2.2500  -9.5000  18.0000 Du        
   4001 ****        -2.2500  -9.5000  18.2500 Du        
   4002 ****        -2.2500  -9.5000  18.5000 Du        
   4003 ****        -2.2500  -9.5000  18.7500 Du        
   4004 ****        -2.2500  -9.2500  17.0000 Du        
   4005 ****        -2.2500  -9.2500  17.2500 Du        
   4006 ****        -2.2500  -9.2500  17.5000 Du        
   4007 ****        -2.2500  -9.2500  17.7500 Du        
   4008 ****        -2.2500  -9.2500  18.0000 Du        
   4009 ****        -2.2500  -9.2500  18.2500 Du        
   4010 ****        -2.2500  -9.2500  18.5000 Du        
   4011 ****        -2.2500  -9.2500  18.7500 Du        
   4012 ****        -2.2500  -9.0000  16.7500 Du        
   4013 ****        -2.2500  -9.0000  17.0000 Du        
   4014 ****        -2.2500  -9.0000  17.2500 Du        
   4015 ****        -2.2500  -9.0000  17.5000 Du        
   4016 ****        -2.2500  -9.0000  17.7500 Du        
   4017 ****        -2.2500  -9.0000  18.0000 Du        
   4018 ****        -2.2500  -9.0000  18.2500 Du        
   4019 ****        -2.2500  -9.0000  18.5000 Du        
   4020 ****        -2.2500  -9.0000  18.7500 Du        
   4021 ****        -2.2500  -8.7500  16.2500 Du        
   4022 ****        -2.2500  -8.7500  16.5000 Du        
   4023 ****        -2.2500  -8.7500  16.7500 Du        
   4024 ****        -2.2500  -8.7500  17.0000 Du        
   4025 ****        -2.2500  -8.7500  17.2500 Du        
   4026 ****        -2.2500  -8.7500  17.5000 Du        
   4027 ****        -2.2500  -8.7500  17.7500 Du        
   4028 ****        -2.2500  -8.7500  18.0000 Du        
   4029 ****        -2.2500  -8.7500  18.2500 Du        
   4030 ****        -2.2500  -8.7500  18.5000 Du        
   4031 ****        -2.2500  -8.7500  18.7500 Du        
   4032 ****        -2.2500  -8.5000  16.0000 Du        
   4033 ****        -2.2500  -8.5000  16.2500 Du        
   4034 ****        -2.2500  -8.5000  16.5000 Du        
   4035 ****        -2.2500  -8.5000  16.7500 Du        
   4036 ****        -2.2500  -8.5000  17.0000 Du        
   4037 ****        -2.2500  -8.5000  17.2500 Du        
   4038 ****        -2.2500  -8.5000  17.5000 Du        
   4039 ****        -2.2500  -8.5000  17.7500 Du        
   4040 ****        -2.2500  -8.5000  18.0000 Du        
   4041 ****        -2.2500  -8.5000  18.2500 Du        
   4042 ****        -2.2500  -8.5000  18.5000 Du        
   4043 ****        -2.2500  -8.5000  18.7500 Du        
   4044 ****        -2.2500  -8.2500  16.0000 Du        
   4045 ****        -2.2500  -8.2500  16.2500 Du        
   4046 ****        -2.2500  -8.2500  16.5000 Du        
   4047 ****        -2.2500  -8.2500  16.7500 Du        
   4048 ****        -2.2500  -8.2500  17.0000 Du        
   4049 ****        -2.2500  -8.2500  17.2500 Du        
   4050 ****        -2.2500  -8.2500  17.5000 Du        
   4051 ****        -2.2500  -8.2500  17.7500 Du        
   4052 ****        -2.2500  -8.2500  18.0000 Du        
   4053 ****        -2.2500  -8.2500  18.2500 Du        
   4054 ****        -2.2500  -8.2500  18.5000 Du        
   4055 ****        -2.2500  -8.2500  18.7500 Du        
   4056 ****        -2.0000 -18.0000  14.2500 Du        
   4057 ****        -2.0000 -18.0000  14.5000 Du        
   4058 ****        -2.0000 -18.0000  14.7500 Du        
   4059 ****        -2.0000 -18.0000  15.0000 Du        
   4060 ****        -2.0000 -18.0000  15.2500 Du        
   4061 ****        -2.0000 -17.7500  14.2500 Du        
   4062 ****        -2.0000 -17.7500  14.5000 Du        
   4063 ****        -2.0000 -17.7500  14.7500 Du        
   4064 ****        -2.0000 -17.7500  15.0000 Du        
   4065 ****        -2.0000 -17.7500  15.2500 Du        
   4066 ****        -2.0000 -17.7500  15.5000 Du        
   4067 ****        -2.0000 -17.7500  15.7500 Du        
   4068 ****        -2.0000 -17.5000  14.5000 Du        
   4069 ****        -2.0000 -17.5000  14.7500 Du        
   4070 ****        -2.0000 -17.5000  15.0000 Du        
   4071 ****        -2.0000 -17.5000  15.2500 Du        
   4072 ****        -2.0000 -17.5000  15.5000 Du        
   4073 ****        -2.0000 -17.5000  15.7500 Du        
   4074 ****        -2.0000 -17.5000  16.0000 Du        
   4075 ****        -2.0000 -17.2500  14.5000 Du        
   4076 ****        -2.0000 -17.2500  14.7500 Du        
   4077 ****        -2.0000 -17.2500  15.0000 Du        
   4078 ****        -2.0000 -17.2500  15.2500 Du        
   4079 ****        -2.0000 -17.2500  15.5000 Du        
   4080 ****        -2.0000 -17.2500  15.7500 Du        
   4081 ****        -2.0000 -17.2500  16.0000 Du        
   4082 ****        -2.0000 -17.0000  14.7500 Du        
   4083 ****        -2.0000 -17.0000  15.0000 Du        
   4084 ****        -2.0000 -17.0000  15.2500 Du        
   4085 ****        -2.0000 -17.0000  15.5000 Du        
   4086 ****        -2.0000 -17.0000  15.7500 Du        
   4087 ****        -2.0000 -17.0000  16.0000 Du        
   4088 ****        -2.0000 -17.0000  16.2500 Du        
   4089 ****        -2.0000 -16.7500  14.7500 Du        
   4090 ****        -2.0000 -16.7500  15.0000 Du        
   4091 ****        -2.0000 -16.7500  15.2500 Du        
   4092 ****        -2.0000 -16.7500  15.5000 Du        
   4093 ****        -2.0000 -16.7500  15.7500 Du        
   4094 ****        -2.0000 -16.7500  16.0000 Du        
   4095 ****        -2.0000 -16.7500  16.2500 Du        
   4096 ****        -2.0000 -16.7500  16.5000 Du        
   4097 ****        -2.0000 -16.5000  14.7500 Du        
   4098 ****        -2.0000 -16.5000  15.0000 Du        
   4099 ****        -2.0000 -16.5000  15.2500 Du        
   4100 ****        -2.0000 -16.5000  15.5000 Du        
   4101 ****        -2.0000 -16.5000  15.7500 Du        
   4102 ****        -2.0000 -16.5000  16.0000 Du        
   4103 ****        -2.0000 -16.5000  16.2500 Du        
   4104 ****        -2.0000 -16.5000  16.5000 Du        
   4105 ****        -2.0000 -16.5000  16.7500 Du        
   4106 ****        -2.0000 -16.2500  14.7500 Du        
   4107 ****        -2.0000 -16.2500  15.0000 Du        
   4108 ****        -2.0000 -16.2500  15.2500 Du        
   4109 ****        -2.0000 -16.2500  15.5000 Du        
   4110 ****        -2.0000 -16.2500  15.7500 Du        
   4111 ****        -2.0000 -16.2500  16.0000 Du        
   4112 ****        -2.0000 -16.2500  16.2500 Du        
   4113 ****        -2.0000 -16.2500  16.5000 Du        
   4114 ****        -2.0000 -16.2500  16.7500 Du        
   4115 ****        -2.0000 -16.2500  17.0000 Du        
   4116 ****        -2.0000 -16.2500  17.2500 Du        
   4117 ****        -2.0000 -16.0000  14.7500 Du        
   4118 ****        -2.0000 -16.0000  15.0000 Du        
   4119 ****        -2.0000 -16.0000  15.2500 Du        
   4120 ****        -2.0000 -16.0000  15.5000 Du        
   4121 ****        -2.0000 -16.0000  15.7500 Du        
   4122 ****        -2.0000 -16.0000  16.0000 Du        
   4123 ****        -2.0000 -16.0000  16.2500 Du        
   4124 ****        -2.0000 -16.0000  16.5000 Du        
   4125 ****        -2.0000 -16.0000  16.7500 Du        
   4126 ****        -2.0000 -16.0000  17.0000 Du        
   4127 ****        -2.0000 -16.0000  17.2500 Du        
   4128 ****        -2.0000 -16.0000  17.5000 Du        
   4129 ****        -2.0000 -16.0000  17.7500 Du        
   4130 ****        -2.0000 -16.0000  18.0000 Du        
   4131 ****        -2.0000 -15.7500  15.2500 Du        
   4132 ****        -2.0000 -15.7500  15.5000 Du        
   4133 ****        -2.0000 -15.7500  15.7500 Du        
   4134 ****        -2.0000 -15.7500  16.0000 Du        
   4135 ****        -2.0000 -15.7500  16.2500 Du        
   4136 ****        -2.0000 -15.7500  16.5000 Du        
   4137 ****        -2.0000 -15.7500  16.7500 Du        
   4138 ****        -2.0000 -15.7500  17.0000 Du        
   4139 ****        -2.0000 -15.7500  17.2500 Du        
   4140 ****        -2.0000 -15.7500  17.5000 Du        
   4141 ****        -2.0000 -15.7500  17.7500 Du        
   4142 ****        -2.0000 -15.7500  18.0000 Du        
   4143 ****        -2.0000 -15.7500  18.2500 Du        
   4144 ****        -2.0000 -15.5000  16.2500 Du        
   4145 ****        -2.0000 -15.5000  16.5000 Du        
   4146 ****        -2.0000 -15.5000  16.7500 Du        
   4147 ****        -2.0000 -15.5000  17.0000 Du        
   4148 ****        -2.0000 -15.5000  17.2500 Du        
   4149 ****        -2.0000 -15.5000  17.5000 Du        
   4150 ****        -2.0000 -15.5000  17.7500 Du        
   4151 ****        -2.0000 -15.5000  18.0000 Du        
   4152 ****        -2.0000 -15.5000  18.2500 Du        
   4153 ****        -2.0000 -15.5000  18.5000 Du        
   4154 ****        -2.0000 -15.2500  17.0000 Du        
   4155 ****        -2.0000 -15.2500  17.2500 Du        
   4156 ****        -2.0000 -15.2500  17.5000 Du        
   4157 ****        -2.0000 -15.2500  17.7500 Du        
   4158 ****        -2.0000 -15.2500  18.0000 Du        
   4159 ****        -2.0000 -15.2500  18.2500 Du        
   4160 ****        -2.0000 -15.2500  18.5000 Du        
   4161 ****        -2.0000 -15.0000  17.2500 Du        
   4162 ****        -2.0000 -15.0000  17.5000 Du        
   4163 ****        -2.0000 -15.0000  17.7500 Du        
   4164 ****        -2.0000 -15.0000  18.0000 Du        
   4165 ****        -2.0000 -15.0000  18.2500 Du        
   4166 ****        -2.0000 -14.7500  17.7500 Du        
   4167 ****        -2.0000 -14.7500  18.0000 Du        
   4168 ****        -2.0000 -10.0000  18.0000 Du        
   4169 ****        -2.0000 -10.0000  18.2500 Du        
   4170 ****        -2.0000 -10.0000  18.5000 Du        
   4171 ****        -2.0000  -9.7500  17.7500 Du        
   4172 ****        -2.0000  -9.7500  18.0000 Du        
   4173 ****        -2.0000  -9.7500  18.2500 Du        
   4174 ****        -2.0000  -9.7500  18.5000 Du        
   4175 ****        -2.0000  -9.5000  17.5000 Du        
   4176 ****        -2.0000  -9.5000  17.7500 Du        
   4177 ****        -2.0000  -9.5000  18.0000 Du        
   4178 ****        -2.0000  -9.5000  18.2500 Du        
   4179 ****        -2.0000  -9.5000  18.5000 Du        
   4180 ****        -2.0000  -9.5000  18.7500 Du        
   4181 ****        -2.0000  -9.2500  17.0000 Du        
   4182 ****        -2.0000  -9.2500  17.2500 Du        
   4183 ****        -2.0000  -9.2500  17.5000 Du        
   4184 ****        -2.0000  -9.2500  17.7500 Du        
   4185 ****        -2.0000  -9.2500  18.0000 Du        
   4186 ****        -2.0000  -9.2500  18.2500 Du        
   4187 ****        -2.0000  -9.2500  18.5000 Du        
   4188 ****        -2.0000  -9.2500  18.7500 Du        
   4189 ****        -2.0000  -9.0000  16.7500 Du        
   4190 ****        -2.0000  -9.0000  17.0000 Du        
   4191 ****        -2.0000  -9.0000  17.2500 Du        
   4192 ****        -2.0000  -9.0000  17.5000 Du        
   4193 ****        -2.0000  -9.0000  17.7500 Du        
   4194 ****        -2.0000  -9.0000  18.0000 Du        
   4195 ****        -2.0000  -9.0000  18.2500 Du        
   4196 ****        -2.0000  -9.0000  18.5000 Du        
   4197 ****        -2.0000  -9.0000  18.7500 Du        
   4198 ****        -2.0000  -8.7500  16.5000 Du        
   4199 ****        -2.0000  -8.7500  16.7500 Du        
   4200 ****        -2.0000  -8.7500  17.0000 Du        
   4201 ****        -2.0000  -8.7500  17.2500 Du        
   4202 ****        -2.0000  -8.7500  17.5000 Du        
   4203 ****        -2.0000  -8.7500  17.7500 Du        
   4204 ****        -2.0000  -8.7500  18.0000 Du        
   4205 ****        -2.0000  -8.7500  18.2500 Du        
   4206 ****        -2.0000  -8.7500  18.5000 Du        
   4207 ****        -2.0000  -8.5000  16.5000 Du        
   4208 ****        -2.0000  -8.5000  16.7500 Du        
   4209 ****        -2.0000  -8.5000  17.0000 Du        
   4210 ****        -2.0000  -8.5000  17.2500 Du        
   4211 ****        -2.0000  -8.5000  17.5000 Du        
   4212 ****        -2.0000  -8.5000  17.7500 Du        
   4213 ****        -2.0000  -8.5000  18.0000 Du        
   4214 ****        -2.0000  -8.5000  18.2500 Du        
   4215 ****        -2.0000  -8.2500  16.5000 Du        
   4216 ****        -2.0000  -8.2500  16.7500 Du        
   4217 ****        -2.0000  -8.2500  17.0000 Du        
   4218 ****        -2.0000  -8.2500  17.2500 Du        
   4219 ****        -2.0000  -8.2500  17.5000 Du        
   4220 ****        -2.0000  -8.2500  17.7500 Du        
   4221 ****        -2.0000  -8.2500  18.0000 Du        
   4222 ****        -2.0000  -8.2500  18.2500 Du        
   4223 ****        -1.7500 -17.7500  14.0000 Du        
   4224 ****        -1.7500 -17.7500  14.2500 Du        
   4225 ****        -1.7500 -17.7500  14.5000 Du        
   4226 ****        -1.7500 -17.7500  14.7500 Du        
   4227 ****        -1.7500 -17.7500  15.0000 Du        
   4228 ****        -1.7500 -17.5000  14.0000 Du        
   4229 ****        -1.7500 -17.5000  14.2500 Du        
   4230 ****        -1.7500 -17.5000  14.5000 Du        
   4231 ****        -1.7500 -17.5000  14.7500 Du        
   4232 ****        -1.7500 -17.5000  15.0000 Du        
   4233 ****        -1.7500 -17.5000  15.2500 Du        
   4234 ****        -1.7500 -17.5000  15.5000 Du        
   4235 ****        -1.7500 -17.5000  15.7500 Du        
   4236 ****        -1.7500 -17.2500  14.0000 Du        
   4237 ****        -1.7500 -17.2500  14.2500 Du        
   4238 ****        -1.7500 -17.2500  14.5000 Du        
   4239 ****        -1.7500 -17.2500  14.7500 Du        
   4240 ****        -1.7500 -17.2500  15.0000 Du        
   4241 ****        -1.7500 -17.2500  15.2500 Du        
   4242 ****        -1.7500 -17.2500  15.5000 Du        
   4243 ****        -1.7500 -17.2500  15.7500 Du        
   4244 ****        -1.7500 -17.2500  16.0000 Du        
   4245 ****        -1.7500 -17.0000  14.0000 Du        
   4246 ****        -1.7500 -17.0000  14.2500 Du        
   4247 ****        -1.7500 -17.0000  14.5000 Du        
   4248 ****        -1.7500 -17.0000  14.7500 Du        
   4249 ****        -1.7500 -17.0000  15.0000 Du        
   4250 ****        -1.7500 -17.0000  15.2500 Du        
   4251 ****        -1.7500 -17.0000  15.5000 Du        
   4252 ****        -1.7500 -17.0000  15.7500 Du        
   4253 ****        -1.7500 -17.0000  16.0000 Du        
   4254 ****        -1.7500 -17.0000  16.2500 Du        
   4255 ****        -1.7500 -16.7500  14.0000 Du        
   4256 ****        -1.7500 -16.7500  14.2500 Du        
   4257 ****        -1.7500 -16.7500  14.5000 Du        
   4258 ****        -1.7500 -16.7500  14.7500 Du        
   4259 ****        -1.7500 -16.7500  15.0000 Du        
   4260 ****        -1.7500 -16.7500  15.2500 Du        
   4261 ****        -1.7500 -16.7500  15.5000 Du        
   4262 ****        -1.7500 -16.7500  15.7500 Du        
   4263 ****        -1.7500 -16.7500  16.0000 Du        
   4264 ****        -1.7500 -16.7500  16.2500 Du        
   4265 ****        -1.7500 -16.7500  16.5000 Du        
   4266 ****        -1.7500 -16.5000  14.0000 Du        
   4267 ****        -1.7500 -16.5000  14.2500 Du        
   4268 ****        -1.7500 -16.5000  14.5000 Du        
   4269 ****        -1.7500 -16.5000  14.7500 Du        
   4270 ****        -1.7500 -16.5000  15.0000 Du        
   4271 ****        -1.7500 -16.5000  15.2500 Du        
   4272 ****        -1.7500 -16.5000  15.5000 Du        
   4273 ****        -1.7500 -16.5000  15.7500 Du        
   4274 ****        -1.7500 -16.5000  16.0000 Du        
   4275 ****        -1.7500 -16.5000  16.2500 Du        
   4276 ****        -1.7500 -16.5000  16.5000 Du        
   4277 ****        -1.7500 -16.5000  16.7500 Du        
   4278 ****        -1.7500 -16.2500  14.0000 Du        
   4279 ****        -1.7500 -16.2500  14.2500 Du        
   4280 ****        -1.7500 -16.2500  14.5000 Du        
   4281 ****        -1.7500 -16.2500  14.7500 Du        
   4282 ****        -1.7500 -16.2500  15.0000 Du        
   4283 ****        -1.7500 -16.2500  15.2500 Du        
   4284 ****        -1.7500 -16.2500  15.5000 Du        
   4285 ****        -1.7500 -16.2500  15.7500 Du        
   4286 ****        -1.7500 -16.2500  16.0000 Du        
   4287 ****        -1.7500 -16.2500  16.2500 Du        
   4288 ****        -1.7500 -16.2500  16.5000 Du        
   4289 ****        -1.7500 -16.2500  16.7500 Du        
   4290 ****        -1.7500 -16.2500  17.0000 Du        
   4291 ****        -1.7500 -16.0000  14.2500 Du        
   4292 ****        -1.7500 -16.0000  14.5000 Du        
   4293 ****        -1.7500 -16.0000  14.7500 Du        
   4294 ****        -1.7500 -16.0000  15.0000 Du        
   4295 ****        -1.7500 -16.0000  15.2500 Du        
   4296 ****        -1.7500 -16.0000  15.5000 Du        
   4297 ****        -1.7500 -16.0000  15.7500 Du        
   4298 ****        -1.7500 -16.0000  16.0000 Du        
   4299 ****        -1.7500 -16.0000  16.2500 Du        
   4300 ****        -1.7500 -16.0000  16.5000 Du        
   4301 ****        -1.7500 -16.0000  16.7500 Du        
   4302 ****        -1.7500 -16.0000  17.0000 Du        
   4303 ****        -1.7500 -16.0000  17.2500 Du        
   4304 ****        -1.7500 -16.0000  17.5000 Du        
   4305 ****        -1.7500 -15.7500  15.2500 Du        
   4306 ****        -1.7500 -15.7500  15.5000 Du        
   4307 ****        -1.7500 -15.7500  15.7500 Du        
   4308 ****        -1.7500 -15.7500  16.0000 Du        
   4309 ****        -1.7500 -15.7500  16.2500 Du        
   4310 ****        -1.7500 -15.7500  16.5000 Du        
   4311 ****        -1.7500 -15.7500  16.7500 Du        
   4312 ****        -1.7500 -15.7500  17.0000 Du        
   4313 ****        -1.7500 -15.7500  17.2500 Du        
   4314 ****        -1.7500 -15.7500  17.5000 Du        
   4315 ****        -1.7500 -15.7500  17.7500 Du        
   4316 ****        -1.7500 -15.5000  16.5000 Du        
   4317 ****        -1.7500 -15.5000  16.7500 Du        
   4318 ****        -1.7500 -15.5000  17.0000 Du        
   4319 ****        -1.7500 -15.5000  17.2500 Du        
   4320 ****        -1.7500 -15.5000  17.5000 Du        
   4321 ****        -1.7500 -15.5000  17.7500 Du        
   4322 ****        -1.7500 -15.5000  18.0000 Du        
   4323 ****        -1.7500 -15.2500  17.0000 Du        
   4324 ****        -1.7500 -15.2500  17.2500 Du        
   4325 ****        -1.7500 -15.2500  17.5000 Du        
   4326 ****        -1.7500 -15.2500  17.7500 Du        
   4327 ****        -1.7500 -10.0000  18.2500 Du        
   4328 ****        -1.7500  -9.7500  18.0000 Du        
   4329 ****        -1.7500  -9.7500  18.2500 Du        
   4330 ****        -1.7500  -9.5000  18.0000 Du        
   4331 ****        -1.7500  -9.5000  18.2500 Du        
   4332 ****        -1.5000 -17.5000  14.0000 Du        
   4333 ****        -1.5000 -17.5000  14.2500 Du        
   4334 ****        -1.5000 -17.5000  14.5000 Du        
   4335 ****        -1.5000 -17.5000  14.7500 Du        
   4336 ****        -1.5000 -17.5000  15.0000 Du        
   4337 ****        -1.5000 -17.5000  15.2500 Du        
   4338 ****        -1.5000 -17.2500  13.7500 Du        
   4339 ****        -1.5000 -17.2500  14.0000 Du        
   4340 ****        -1.5000 -17.2500  14.2500 Du        
   4341 ****        -1.5000 -17.2500  14.5000 Du        
   4342 ****        -1.5000 -17.2500  14.7500 Du        
   4343 ****        -1.5000 -17.2500  15.0000 Du        
   4344 ****        -1.5000 -17.2500  15.2500 Du        
   4345 ****        -1.5000 -17.2500  15.5000 Du        
   4346 ****        -1.5000 -17.2500  15.7500 Du        
   4347 ****        -1.5000 -17.0000  13.7500 Du        
   4348 ****        -1.5000 -17.0000  14.0000 Du        
   4349 ****        -1.5000 -17.0000  14.2500 Du        
   4350 ****        -1.5000 -17.0000  14.5000 Du        
   4351 ****        -1.5000 -17.0000  14.7500 Du        
   4352 ****        -1.5000 -17.0000  15.0000 Du        
   4353 ****        -1.5000 -17.0000  15.2500 Du        
   4354 ****        -1.5000 -17.0000  15.5000 Du        
   4355 ****        -1.5000 -17.0000  15.7500 Du        
   4356 ****        -1.5000 -17.0000  16.0000 Du        
   4357 ****        -1.5000 -16.7500  13.7500 Du        
   4358 ****        -1.5000 -16.7500  14.0000 Du        
   4359 ****        -1.5000 -16.7500  14.2500 Du        
   4360 ****        -1.5000 -16.7500  14.5000 Du        
   4361 ****        -1.5000 -16.7500  14.7500 Du        
   4362 ****        -1.5000 -16.7500  15.0000 Du        
   4363 ****        -1.5000 -16.7500  15.2500 Du        
   4364 ****        -1.5000 -16.7500  15.5000 Du        
   4365 ****        -1.5000 -16.7500  15.7500 Du        
   4366 ****        -1.5000 -16.7500  16.0000 Du        
   4367 ****        -1.5000 -16.7500  16.2500 Du        
   4368 ****        -1.5000 -16.5000  13.7500 Du        
   4369 ****        -1.5000 -16.5000  14.0000 Du        
   4370 ****        -1.5000 -16.5000  14.2500 Du        
   4371 ****        -1.5000 -16.5000  14.5000 Du        
   4372 ****        -1.5000 -16.5000  14.7500 Du        
   4373 ****        -1.5000 -16.5000  15.0000 Du        
   4374 ****        -1.5000 -16.5000  15.2500 Du        
   4375 ****        -1.5000 -16.5000  15.5000 Du        
   4376 ****        -1.5000 -16.5000  15.7500 Du        
   4377 ****        -1.5000 -16.5000  16.0000 Du        
   4378 ****        -1.5000 -16.5000  16.2500 Du        
   4379 ****        -1.5000 -16.5000  16.5000 Du        
   4380 ****        -1.5000 -16.2500  13.7500 Du        
   4381 ****        -1.5000 -16.2500  14.0000 Du        
   4382 ****        -1.5000 -16.2500  14.2500 Du        
   4383 ****        -1.5000 -16.2500  14.5000 Du        
   4384 ****        -1.5000 -16.2500  14.7500 Du        
   4385 ****        -1.5000 -16.2500  15.0000 Du        
   4386 ****        -1.5000 -16.2500  15.2500 Du        
   4387 ****        -1.5000 -16.2500  15.5000 Du        
   4388 ****        -1.5000 -16.2500  15.7500 Du        
   4389 ****        -1.5000 -16.2500  16.0000 Du        
   4390 ****        -1.5000 -16.2500  16.2500 Du        
   4391 ****        -1.5000 -16.2500  16.5000 Du        
   4392 ****        -1.5000 -16.2500  16.7500 Du        
   4393 ****        -1.5000 -16.2500  17.0000 Du        
   4394 ****        -1.5000 -16.0000  14.2500 Du        
   4395 ****        -1.5000 -16.0000  14.5000 Du        
   4396 ****        -1.5000 -16.0000  14.7500 Du        
   4397 ****        -1.5000 -16.0000  15.0000 Du        
   4398 ****        -1.5000 -16.0000  15.2500 Du        
   4399 ****        -1.5000 -16.0000  15.5000 Du        
   4400 ****        -1.5000 -16.0000  15.7500 Du        
   4401 ****        -1.5000 -16.0000  16.0000 Du        
   4402 ****        -1.5000 -16.0000  16.2500 Du        
   4403 ****        -1.5000 -16.0000  16.5000 Du        
   4404 ****        -1.5000 -16.0000  16.7500 Du        
   4405 ****        -1.5000 -16.0000  17.0000 Du        
   4406 ****        -1.5000 -15.7500  16.0000 Du        
   4407 ****        -1.5000 -15.7500  16.2500 Du        
   4408 ****        -1.5000 -15.7500  16.5000 Du        
   4409 ****        -1.5000 -15.7500  16.7500 Du        
   4410 ****        -1.5000 -15.7500  17.0000 Du        
   4411 ****        -1.2500 -17.2500  13.7500 Du        
   4412 ****        -1.2500 -17.2500  14.0000 Du        
   4413 ****        -1.2500 -17.2500  14.2500 Du        
   4414 ****        -1.2500 -17.2500  14.5000 Du        
   4415 ****        -1.2500 -17.2500  14.7500 Du        
   4416 ****        -1.2500 -17.2500  15.0000 Du        
   4417 ****        -1.2500 -17.2500  15.2500 Du        
   4418 ****        -1.2500 -17.0000  13.7500 Du        
   4419 ****        -1.2500 -17.0000  14.0000 Du        
   4420 ****        -1.2500 -17.0000  14.2500 Du        
   4421 ****        -1.2500 -17.0000  14.5000 Du        
   4422 ****        -1.2500 -17.0000  14.7500 Du        
   4423 ****        -1.2500 -17.0000  15.0000 Du        
   4424 ****        -1.2500 -17.0000  15.2500 Du        
   4425 ****        -1.2500 -17.0000  15.5000 Du        
   4426 ****        -1.2500 -17.0000  15.7500 Du        
   4427 ****        -1.2500 -16.7500  13.7500 Du        
   4428 ****        -1.2500 -16.7500  14.0000 Du        
   4429 ****        -1.2500 -16.7500  14.2500 Du        
   4430 ****        -1.2500 -16.7500  14.5000 Du        
   4431 ****        -1.2500 -16.7500  14.7500 Du        
   4432 ****        -1.2500 -16.7500  15.0000 Du        
   4433 ****        -1.2500 -16.7500  15.2500 Du        
   4434 ****        -1.2500 -16.7500  15.5000 Du        
   4435 ****        -1.2500 -16.7500  15.7500 Du        
   4436 ****        -1.2500 -16.7500  16.0000 Du        
   4437 ****        -1.2500 -16.5000  13.7500 Du        
   4438 ****        -1.2500 -16.5000  14.0000 Du        
   4439 ****        -1.2500 -16.5000  14.2500 Du        
   4440 ****        -1.2500 -16.5000  14.5000 Du        
   4441 ****        -1.2500 -16.5000  14.7500 Du        
   4442 ****        -1.2500 -16.5000  15.0000 Du        
   4443 ****        -1.2500 -16.5000  15.2500 Du        
   4444 ****        -1.2500 -16.5000  15.5000 Du        
   4445 ****        -1.2500 -16.5000  15.7500 Du        
   4446 ****        -1.2500 -16.5000  16.0000 Du        
   4447 ****        -1.2500 -16.2500  13.7500 Du        
   4448 ****        -1.2500 -16.2500  14.0000 Du        
   4449 ****        -1.2500 -16.2500  14.2500 Du        
   4450 ****        -1.2500 -16.2500  14.5000 Du        
   4451 ****        -1.2500 -16.2500  14.7500 Du        
   4452 ****        -1.2500 -16.2500  15.0000 Du        
   4453 ****        -1.2500 -16.2500  15.2500 Du        
   4454 ****        -1.2500 -16.2500  15.5000 Du        
   4455 ****        -1.2500 -16.2500  15.7500 Du        
   4456 ****        -1.2500 -16.2500  16.0000 Du        
   4457 ****        -1.2500 -16.0000  14.5000 Du        
   4458 ****        -1.2500 -16.0000  14.7500 Du        
   4459 ****        -1.2500 -16.0000  15.0000 Du        
   4460 ****        -1.2500 -16.0000  15.2500 Du        
   4461 ****        -1.0000 -17.2500  14.2500 Du        
   4462 ****        -1.0000 -17.0000  14.0000 Du        
   4463 ****        -1.0000 -17.0000  14.2500 Du        
   4464 ****        -1.0000 -17.0000  14.5000 Du        
   4465 ****        -1.0000 -17.0000  14.7500 Du        
   4466 ****        -1.0000 -17.0000  15.0000 Du        
   4467 ****        -1.0000 -17.0000  15.2500 Du        
   4468 ****        -1.0000 -16.7500  13.7500 Du        
   4469 ****        -1.0000 -16.7500  14.0000 Du        
   4470 ****        -1.0000 -16.7500  14.2500 Du        
   4471 ****        -1.0000 -16.7500  14.5000 Du        
   4472 ****        -1.0000 -16.7500  14.7500 Du        
   4473 ****        -1.0000 -16.7500  15.0000 Du        
   4474 ****        -1.0000 -16.5000  13.7500 Du        
   4475 ****        -1.0000 -16.5000  14.0000 Du        
   4476 ****        -1.0000 -16.5000  14.2500 Du        
   4477 ****        -1.0000 -16.5000  14.5000 Du        
   4478 ****        -1.0000 -16.5000  14.7500 Du        
   4479 ****        -1.0000 -16.5000  15.0000 Du        
   4480 ****        -1.0000 -16.2500  13.7500 Du        
   4481 ****        -1.0000 -16.2500  14.0000 Du        
   4482 ****        -1.0000 -16.2500  14.2500 Du        
   4483 ****        -1.0000 -16.2500  14.5000 Du        
   4484 ****        -1.0000 -16.2500  14.7500 Du        
   4485 ****        -0.7500 -16.7500  14.0000 Du        
   4486 ****        -0.7500 -16.7500  14.2500 Du        
   4487 ****        -0.7500 -16.5000  14.0000 Du        
   4488 ****        -0.7500 -16.5000  14.2500 Du        
