#       Name:                CT1002167954
#       Creating user name   hitesit
#       Creation time:       Sun Apr 16 22:50:58 2023


#       File generated by GOLD software.
#

@<TRIPOS>MOLECULE
CT1002167954|ligand_prepared|mol2|1|dock8
    29    30     1
SMALL
NO_CHARGES


@<TRIPOS>ATOM
      1 C1          -5.4495 -16.8974  20.4698 C.3            1 RES1               0.0000
      2 C2          -4.9832 -17.6556  19.2103 C.ar           1 RES1               0.0000
      3 C3          -4.5272 -15.6897  20.6089 C.2            1 RES1               0.0000
      4 C4          -6.9127 -16.5389  20.2347 C.2            1 RES1               0.0000
      5 C5          -5.3648 -17.7322  21.7688 C.3            1 RES1               0.0000
      6 C6          -4.5043 -16.9624  18.1026 C.ar           1 RES1               0.0000
      7 C7          -5.0233 -19.0457  19.1423 C.ar           1 RES1               0.0000
      8 N8          -5.0388 -14.4647  20.2964 N.am           1 RES1               0.0000
      9 O9          -3.3574 -15.8149  20.9496 O.2            1 RES1               0.0000
     10 N10         -7.2387 -15.2128  20.1214 N.am           1 RES1               0.0000
     11 O11         -7.7837 -17.3937  20.1300 O.2            1 RES1               0.0000
     12 C12         -5.5479 -16.9134  23.0370 C.3            1 RES1               0.0000
     13 C13         -4.0782 -17.6346  16.9691 C.ar           1 RES1               0.0000
     14 C14         -4.5969 -19.7159  18.0076 C.ar           1 RES1               0.0000
     15 C15         -6.3636 -14.1610  20.1109 C.2            1 RES1               0.0000
     16 C16         -4.1238 -19.0117  16.9210 C.ar           1 RES1               0.0000
     17 O17         -6.7277 -12.9998  19.9497 O.2            1 RES1               0.0000
     18 H18         -6.1354 -18.5124  21.7380 H              1 RES1               0.0000
     19 H19         -4.3870 -18.2281  21.8068 H              1 RES1               0.0000
     20 H20         -4.4633 -15.8785  18.1212 H              1 RES1               0.0000
     21 H21         -5.3927 -19.6204  19.9848 H              1 RES1               0.0000
     22 H22         -4.3749 -13.7042  20.1908 H              1 RES1               0.0000
     23 H23         -8.2252 -14.9890  20.0372 H              1 RES1               0.0000
     24 H24         -5.4795 -17.5472  23.9186 H              1 RES1               0.0000
     25 H25         -4.7827 -16.1436  23.1129 H              1 RES1               0.0000
     26 H26         -6.5207 -16.4262  23.0444 H              1 RES1               0.0000
     27 H27         -3.7079 -17.0757  16.1160 H              1 RES1               0.0000
     28 H28         -4.6352 -20.7997  17.9739 H              1 RES1               0.0000
     29 H29         -3.7895 -19.5380  16.0330 H              1 RES1               0.0000
@<TRIPOS>BOND
    1    1    2 1     
    2    1    3 1     
    3    1    4 1     
    4    1    5 1     
    5    2    6 ar    
    6    2    7 ar    
    7    3    8 1     
    8    3    9 2     
    9    4   10 1     
   10    4   11 2     
   11    5   12 1     
   12    5   18 1     
   13    5   19 1     
   14    6   13 ar    
   15    6   20 1     
   16    7   14 ar    
   17    7   21 1     
   18    8   15 1     
   19    8   22 1     
   20   10   15 1     
   21   10   23 1     
   22   12   24 1     
   23   12   25 1     
   24   12   26 1     
   25   13   16 ar    
   26   13   27 1     
   27   14   16 ar    
   28   14   28 1     
   29   15   17 2     
   30   16   29 1     
@<TRIPOS>SUBSTRUCTURE
      1 RES1           1
@<TRIPOS>SET
DONOR_HYDROGENS      STATIC     ATOMS    <user>   **** ""
2 22 23
ATOM$RED        STATIC     ATOMS    COLORGROUP SYSTEM
2 22 23
@<TRIPOS>COMMENT
> <Gold.Version>
2022.3.0

> <Gold.Id.Protein>
unknown|3mvj_clean|pdb

> <Gold.Protein.RotatedTorsions>
[ 1772 1742 1743 1744 ] final  146.43 input   69.76 | X-H torsion
[ 1801 1791 1792 1793 ] final  132.84 input  -10.55 | X-H torsion
[ 1839 1818 1819 1820 ] final -125.74 input   43.70 | X-H torsion
[ 2083 2067 2068 2069 ] final  160.46 input   63.04 | X-H torsion
[ 2134 2117 2118 2119 ] final -175.45 input   55.90 | X-H torsion
[ 5632 5617 5618 5619 ] final  -20.34 input   93.34 | X-H torsion
[ 7884 7874 7875 7876 ] final  130.14 input   68.03 | X-H torsion
[ 7924 7916 7917 7918 ] final  121.08 input   66.66 | X-H torsion
[ 8483 8469 8467 8464 ] final -107.01 input   59.99 | X-H torsion
[ 15475 15466 15465 15463 ] final -158.03 input   60.00 | X-H torsion
[ 7991 7973 7974 7975 ] final   91.87 input   84.71 | X-H torsion
[ 8477 8463 8464 8465 ] final -165.80 input   59.21 | X-H torsion
[ 8522 8507 8508 8509 ] final -143.69 input -104.23 | X-H torsion
[ 2822 2803 2804 2805 ] final   31.49 input  103.27 | X-H torsion
[ 2184 2168 2169 2170 ] final  -45.34 input  106.62 | X-H torsion
[ 2724 2714 2715 2716 ] final -109.51 input   74.66 | X-H torsion
[ 2767 2750 2751 2752 ] final -133.17 input   68.39 | X-H torsion
[ 5506 5481 5482 5483 ] final   34.25 input   57.83 | X-H torsion
[ 5596 5586 5587 5588 ] final  -45.15 input -104.43 | X-H torsion
[ 5454 5428 5429 5430 ] final   41.53 input  113.20 | X-H torsion
[ 5462 5439 5438 5436 ] final  -41.25 input   59.99 | X-H torsion
[ 5575 5565 5566 5567 ] final  130.86 input  101.53 | X-H torsion
[ 5392 5377 5378 5379 ] final -118.62 input  130.34 | X-H torsion
[ 8046 8030 8031 8032 ] final   33.43 input   72.86 | X-H torsion
[ 2684 2665 2666 2667 ] final -128.55 input   26.41 | X-H torsion
[ 5342 5324 5325 5326 ] final   24.36 input   62.58 | X-H torsion
[ 4530 4515 4516 4517 ] final  -20.38 input  130.34 | X-H torsion
[ 4589 4567 4568 4569 ] final   69.45 input  104.80 | X-H torsion
[ 5299 5274 5275 5276 ] final  -76.88 input   71.10 | X-H torsion
[ 8569 8549 8550 8551 ] final  -95.57 input   74.91 | X-H torsion
[ 1864 1854 1855 1856 ] final   85.30 input   57.50 | X-H torsion
[ 15411 15403 15404 15405 ] final   19.18 input  102.24 | X-H torsion
[ 2884 2867 2868 2869 ] final  138.88 input   60.34 | X-H torsion
[ 16459 1745 1744 1743 ] final   77.02 input    0.00 | X-H torsion
[ 16462 1794 1793 1792 ] final  -57.76 input   -0.00 | X-H torsion
[ 16466 2070 2069 2068 ] final  -57.95 input    0.00 | X-H torsion
[ 16474 7834 7833 7832 ] final -163.38 input    0.00 | X-H torsion
[ 16477 7877 7876 7875 ] final  -38.22 input    0.00 | X-H torsion
[ 16486 7919 7918 7917 ] final -152.31 input    0.00 | X-H torsion
[ 16490 8466 8465 8464 ] final  150.05 input    0.00 | X-H torsion
[ 16495 2717 2716 2715 ] final  -94.58 input    0.00 | X-H torsion
[ 16498 5484 5483 5482 ] final -174.61 input    0.00 | X-H torsion
[ 16500 2120 2119 2118 ] final  -22.73 input    0.00 | X-H torsion
[ 16505 2753 2752 2751 ] final -149.27 input    0.00 | X-H torsion
[ 16507 5380 5379 5378 ] final  -34.23 input    0.00 | X-H torsion
[ 16510 1701 1700 1699 ] final  179.33 input   -0.00 | X-H torsion
[ 16513 5589 5588 5587 ] final -100.42 input    0.00 | X-H torsion
[ 16515 2668 2667 2666 ] final  145.81 input    0.00 | X-H torsion
[ 16517 5327 5326 5325 ] final   86.68 input   -0.00 | X-H torsion
[ 16520 5431 5430 5429 ] final -134.36 input    0.00 | X-H torsion
[ 16525 5532 5531 5530 ] final  102.00 input   -0.00 | X-H torsion
[ 16530 8033 8032 8031 ] final   70.71 input    0.00 | X-H torsion
[ 16534 8371 8370 8369 ] final -147.25 input    0.00 | X-H torsion
[ 16536 4570 4569 4568 ] final -127.24 input    0.00 | X-H torsion
[ 16539 4518 4517 4516 ] final   83.10 input    0.00 | X-H torsion
[ 16542 5228 5227 5226 ] final  136.62 input    0.00 | X-H torsion
[ 16544 5277 5276 5275 ] final  -32.59 input    0.00 | X-H torsion
[ 16548 8418 8417 8416 ] final    5.00 input    0.00 | X-H torsion
[ 16551 2006 2005 2004 ] final  178.68 input    0.00 | X-H torsion
[ 16556 1821 1820 1819 ] final -167.31 input    0.00 | X-H torsion

> <Gold.Protein.ActiveResidues>
 THR48   LEU49   GLY50   THR51   GLY52   ARG56   VAL57   MET58   LEU59   TYR69  
 ALA70   MET71   LYS72   ILE73   GLU91   LEU95   VAL104  LYS105  LEU106  MET118 
 VAL119  MET120  GLU121  TYR122  VAL123  PRO124  GLY125  GLY126  GLU127  GLU170 
 ASN171  LEU172  LEU173  ILE174  ASP175  GLN181  VAL182  THR183  ASP184  PHE185 
 ASN326  PHE327  ASP328  TYR330 

> <Gold.Protein.RotatedAtoms>
    3.6241  -15.3442   19.5237 H   0  0  0  0  0  0  0  0  0  0  0  0  # atno 1772 bound_to 1742
    0.5423  -14.3206   20.3442 H   0  0  0  0  0  0  0  0  0  0  0  0  # atno 1801 bound_to 1791
   -0.6734  -14.7498   23.7143 H   0  0  0  0  0  0  0  0  0  0  0  0  # atno 1839 bound_to 1818
   -2.5374  -16.9053   26.6218 H   0  0  0  0  0  0  0  0  0  0  0  0  # atno 1864 bound_to 1854
   -0.4749  -18.6781   22.9566 H   0  0  0  0  0  0  0  0  0  0  0  0  # atno 2083 bound_to 2067
    2.4993  -19.0161   20.9430 H   0  0  0  0  0  0  0  0  0  0  0  0  # atno 2134 bound_to 2117
    4.7532  -18.8672   17.9332 H   0  0  0  0  0  0  0  0  0  0  0  0  # atno 2184 bound_to 2168
    4.8551  -21.6819   10.7036 H   0  0  0  0  0  0  0  0  0  0  0  0  # atno 2684 bound_to 2665
    2.8576  -21.4535   13.5608 H   0  0  0  0  0  0  0  0  0  0  0  0  # atno 2724 bound_to 2714
    1.6494  -22.3930   16.2202 H   0  0  0  0  0  0  0  0  0  0  0  0  # atno 2767 bound_to 2750
    0.3871  -24.2863   19.5063 H   0  0  0  0  0  0  0  0  0  0  0  0  # atno 2822 bound_to 2803
    0.9536  -22.9678   22.5632 H   0  0  0  0  0  0  0  0  0  0  0  0  # atno 2884 bound_to 2867
   -9.5824  -23.2218   10.2420 H   0  0  0  0  0  0  0  0  0  0  0  0  # atno 4530 bound_to 4515
   -5.7075  -24.1990    9.5963 H   0  0  0  0  0  0  0  0  0  0  0  0  # atno 4589 bound_to 4567
   -1.0651  -26.7674   17.4102 H   0  0  0  0  0  0  0  0  0  0  0  0  # atno 5299 bound_to 5274
    0.2099  -24.3929   14.5736 H   0  0  0  0  0  0  0  0  0  0  0  0  # atno 5342 bound_to 5324
   -0.8642  -24.6662   11.3389 H   0  0  0  0  0  0  0  0  0  0  0  0  # atno 5392 bound_to 5377
    0.3351  -21.2766    9.3793 H   0  0  0  0  0  0  0  0  0  0  0  0  # atno 5454 bound_to 5428
    2.7596  -13.2962   11.8883 H   0  0  0  0  0  0  0  0  0  0  0  0  # atno 5462 bound_to 5439
   -0.4059  -17.3612   11.1640 H   0  0  0  0  0  0  0  0  0  0  0  0  # atno 5506 bound_to 5481
   -1.2693  -12.8147    7.9191 H   0  0  0  0  0  0  0  0  0  0  0  0  # atno 5575 bound_to 5565
   -2.6067  -11.8855   10.5839 H   0  0  0  0  0  0  0  0  0  0  0  0  # atno 5596 bound_to 5586
   -4.3849   -9.5763   12.7499 H   0  0  0  0  0  0  0  0  0  0  0  0  # atno 5632 bound_to 5617
  -10.7948  -12.7239   18.2111 H   0  0  0  0  0  0  0  0  0  0  0  0  # atno 7884 bound_to 7874
  -10.8888  -13.0445   15.4259 H   0  0  0  0  0  0  0  0  0  0  0  0  # atno 7924 bound_to 7916
   -8.6155  -15.1319   12.2024 H   0  0  0  0  0  0  0  0  0  0  0  0  # atno 7991 bound_to 7973
   -5.5488  -12.6962   10.0155 H   0  0  0  0  0  0  0  0  0  0  0  0  # atno 8046 bound_to 8030
   -9.5964  -19.1410   13.4062 H   0  0  0  0  0  0  0  0  0  0  0  0  # atno 8477 bound_to 8463
   -7.4872  -17.2524   15.2119 H   0  0  0  0  0  0  0  0  0  0  0  0  # atno 8483 bound_to 8469
   -8.3419  -20.4679   17.5462 H   0  0  0  0  0  0  0  0  0  0  0  0  # atno 8522 bound_to 8507
  -11.0437  -21.6440   19.2519 H   0  0  0  0  0  0  0  0  0  0  0  0  # atno 8569 bound_to 8549
    1.7506   -8.8596   17.8120 H   0  0  0  0  0  0  0  0  0  0  0  0  # atno 15411 bound_to 15403
   -2.0341   -9.5328   22.2457 H   0  0  0  0  0  0  0  0  0  0  0  0  # atno 15475 bound_to 15466
    3.1314  -14.5910   21.0247 LP  0  0  0  0  0  0  0  0  0  0  0  0  # atno 16458 bound_to 1742
   -0.8035  -13.6060   18.8940 LP  0  0  0  0  0  0  0  0  0  0  0  0  # atno 16459 bound_to 1745
   -0.3922  -12.1479   19.7335 LP  0  0  0  0  0  0  0  0  0  0  0  0  # atno 16460 bound_to 1745
    1.5973  -14.0629   21.7174 LP  0  0  0  0  0  0  0  0  0  0  0  0  # atno 16461 bound_to 1791
   -0.0394  -16.5859   22.8455 LP  0  0  0  0  0  0  0  0  0  0  0  0  # atno 16462 bound_to 1794
    0.9971  -15.9780   24.0929 LP  0  0  0  0  0  0  0  0  0  0  0  0  # atno 16463 bound_to 1794
   -1.1974  -13.2962   24.5344 LP  0  0  0  0  0  0  0  0  0  0  0  0  # atno 16464 bound_to 1818
    1.2395  -18.3295   23.0662 LP  0  0  0  0  0  0  0  0  0  0  0  0  # atno 16465 bound_to 2067
    1.5082  -16.4992   20.4896 LP  0  0  0  0  0  0  0  0  0  0  0  0  # atno 16466 bound_to 2070
    2.9716  -16.9428   21.3030 LP  0  0  0  0  0  0  0  0  0  0  0  0  # atno 16467 bound_to 2070
    2.0409  -19.7338   19.4138 LP  0  0  0  0  0  0  0  0  0  0  0  0  # atno 16468 bound_to 2117
   -3.8813  -10.6496   14.0393 LP  0  0  0  0  0  0  0  0  0  0  0  0  # atno 16469 bound_to 5617
   -7.8252  -13.6925   17.4699 LP  0  0  0  0  0  0  0  0  0  0  0  0  # atno 16474 bound_to 7834
   -7.3138  -12.4145   18.5211 LP  0  0  0  0  0  0  0  0  0  0  0  0  # atno 16475 bound_to 7834
   -9.6725  -12.3375   16.9332 LP  0  0  0  0  0  0  0  0  0  0  0  0  # atno 16476 bound_to 7874
   -9.8290  -16.6076   15.6403 LP  0  0  0  0  0  0  0  0  0  0  0  0  # atno 16477 bound_to 7877
  -10.9809  -16.0255   14.4851 LP  0  0  0  0  0  0  0  0  0  0  0  0  # atno 16478 bound_to 7877
   -9.4979  -14.1005   15.3983 LP  0  0  0  0  0  0  0  0  0  0  0  0  # atno 16479 bound_to 7916
   -7.2379  -17.6073   16.7805 LP  0  0  0  0  0  0  0  0  0  0  0  0  # atno 16480 bound_to 8469
   -8.7569  -17.5576   16.1833 LP  0  0  0  0  0  0  0  0  0  0  0  0  # atno 16481 bound_to 8469
   -1.8974  -10.9583   21.4732 LP  0  0  0  0  0  0  0  0  0  0  0  0  # atno 16484 bound_to 15466
   -1.2761   -9.6027   20.8076 LP  0  0  0  0  0  0  0  0  0  0  0  0  # atno 16485 bound_to 15466
   -8.1290  -11.6768   12.1573 LP  0  0  0  0  0  0  0  0  0  0  0  0  # atno 16486 bound_to 7919
   -8.9387  -11.5368   13.6820 LP  0  0  0  0  0  0  0  0  0  0  0  0  # atno 16487 bound_to 7919
   -8.9358  -13.4518   12.5477 LP  0  0  0  0  0  0  0  0  0  0  0  0  # atno 16488 bound_to 7973
  -10.5466  -18.3419   14.6412 LP  0  0  0  0  0  0  0  0  0  0  0  0  # atno 16489 bound_to 8463
  -11.5423  -19.0483   17.5133 LP  0  0  0  0  0  0  0  0  0  0  0  0  # atno 16490 bound_to 8466
  -10.8005  -17.9858   16.3639 LP  0  0  0  0  0  0  0  0  0  0  0  0  # atno 16491 bound_to 8466
   -9.9809  -20.3645   16.9180 LP  0  0  0  0  0  0  0  0  0  0  0  0  # atno 16492 bound_to 8507
   -0.5549  -23.0203   16.1154 LP  0  0  0  0  0  0  0  0  0  0  0  0  # atno 16495 bound_to 2717
    0.6568  -23.8655   15.2113 LP  0  0  0  0  0  0  0  0  0  0  0  0  # atno 16496 bound_to 2717
    0.1955  -22.6074   19.0392 LP  0  0  0  0  0  0  0  0  0  0  0  0  # atno 16497 bound_to 2803
   -0.7115  -13.7467   10.8746 LP  0  0  0  0  0  0  0  0  0  0  0  0  # atno 16498 bound_to 5484
   -1.5173  -15.1241   11.5479 LP  0  0  0  0  0  0  0  0  0  0  0  0  # atno 16499 bound_to 5484
    3.5901  -20.8923   17.8788 LP  0  0  0  0  0  0  0  0  0  0  0  0  # atno 16500 bound_to 2120
    3.6223  -20.0679   16.3559 LP  0  0  0  0  0  0  0  0  0  0  0  0  # atno 16501 bound_to 2120
    4.6510  -17.1718   17.5283 LP  0  0  0  0  0  0  0  0  0  0  0  0  # atno 16502 bound_to 2168
    1.2461  -22.0617   13.2659 LP  0  0  0  0  0  0  0  0  0  0  0  0  # atno 16503 bound_to 2714
    2.2801  -21.3294   17.4597 LP  0  0  0  0  0  0  0  0  0  0  0  0  # atno 16504 bound_to 2750
    1.7798  -22.1745   21.1437 LP  0  0  0  0  0  0  0  0  0  0  0  0  # atno 16505 bound_to 2753
    2.5544  -21.4868   19.7555 LP  0  0  0  0  0  0  0  0  0  0  0  0  # atno 16506 bound_to 2753
   -2.6218  -21.1007   11.0101 LP  0  0  0  0  0  0  0  0  0  0  0  0  # atno 16507 bound_to 5380
   -1.4015  -20.3143   11.9548 LP  0  0  0  0  0  0  0  0  0  0  0  0  # atno 16508 bound_to 5380
   -0.6659  -18.5826    9.9381 LP  0  0  0  0  0  0  0  0  0  0  0  0  # atno 16509 bound_to 5481
    3.8001  -12.3874   19.7251 LP  0  0  0  0  0  0  0  0  0  0  0  0  # atno 16510 bound_to 1701
    5.3155  -12.5869   20.5397 LP  0  0  0  0  0  0  0  0  0  0  0  0  # atno 16511 bound_to 1701
   -1.5155  -10.5259   10.4455 LP  0  0  0  0  0  0  0  0  0  0  0  0  # atno 16512 bound_to 5586
   -5.3309  -10.3494   10.8861 LP  0  0  0  0  0  0  0  0  0  0  0  0  # atno 16513 bound_to 5589
   -4.9614  -11.9930   11.2887 LP  0  0  0  0  0  0  0  0  0  0  0  0  # atno 16514 bound_to 5589
    3.7958  -19.9728   14.4914 LP  0  0  0  0  0  0  0  0  0  0  0  0  # atno 16515 bound_to 2668
    4.9684  -21.1977   14.1384 LP  0  0  0  0  0  0  0  0  0  0  0  0  # atno 16516 bound_to 2668
    1.1027  -24.0077   12.2598 LP  0  0  0  0  0  0  0  0  0  0  0  0  # atno 16517 bound_to 5327
    0.3852  -22.4961   12.7072 LP  0  0  0  0  0  0  0  0  0  0  0  0  # atno 16518 bound_to 5327
    0.3084  -21.6443   11.0868 LP  0  0  0  0  0  0  0  0  0  0  0  0  # atno 16519 bound_to 5428
   -0.2537  -18.2948    7.8244 LP  0  0  0  0  0  0  0  0  0  0  0  0  # atno 16520 bound_to 5431
   -0.5566  -19.9417    8.2670 LP  0  0  0  0  0  0  0  0  0  0  0  0  # atno 16521 bound_to 5431
    3.9163  -13.3550   10.7456 LP  0  0  0  0  0  0  0  0  0  0  0  0  # atno 16522 bound_to 5439
    4.2620  -13.7795   12.2841 LP  0  0  0  0  0  0  0  0  0  0  0  0  # atno 16523 bound_to 5439
    1.2886  -10.7024    9.2071 LP  0  0  0  0  0  0  0  0  0  0  0  0  # atno 16525 bound_to 5532
    0.8328  -11.3975   10.7267 LP  0  0  0  0  0  0  0  0  0  0  0  0  # atno 16526 bound_to 5532
   -0.3706  -12.3466    9.3475 LP  0  0  0  0  0  0  0  0  0  0  0  0  # atno 16527 bound_to 5565
   -2.3041  -23.6971   11.5446 LP  0  0  0  0  0  0  0  0  0  0  0  0  # atno 16528 bound_to 5377
   -7.2978  -12.7305   10.0783 LP  0  0  0  0  0  0  0  0  0  0  0  0  # atno 16529 bound_to 8030
   -3.7964  -12.7804    8.6358 LP  0  0  0  0  0  0  0  0  0  0  0  0  # atno 16530 bound_to 8033
   -3.6368  -11.9563    7.1207 LP  0  0  0  0  0  0  0  0  0  0  0  0  # atno 16531 bound_to 8033
    5.6194  -21.7979   12.2732 LP  0  0  0  0  0  0  0  0  0  0  0  0  # atno 16532 bound_to 2665
   -0.7938  -25.7368   15.0467 LP  0  0  0  0  0  0  0  0  0  0  0  0  # atno 16533 bound_to 5324
   -9.3151  -17.0823   12.5467 LP  0  0  0  0  0  0  0  0  0  0  0  0  # atno 16534 bound_to 8371
   -9.1940  -15.9216   11.2668 LP  0  0  0  0  0  0  0  0  0  0  0  0  # atno 16535 bound_to 8371
   -3.2097  -25.9759   11.4816 LP  0  0  0  0  0  0  0  0  0  0  0  0  # atno 16536 bound_to 4570
   -4.4704  -24.7900   11.5457 LP  0  0  0  0  0  0  0  0  0  0  0  0  # atno 16537 bound_to 4570
   -9.1418  -21.6533   10.8644 LP  0  0  0  0  0  0  0  0  0  0  0  0  # atno 16538 bound_to 4515
   -9.0138  -25.4204   10.9668 LP  0  0  0  0  0  0  0  0  0  0  0  0  # atno 16539 bound_to 4518
   -7.7807  -25.5054   12.1802 LP  0  0  0  0  0  0  0  0  0  0  0  0  # atno 16540 bound_to 4518
   -7.3448  -24.7351    9.9384 LP  0  0  0  0  0  0  0  0  0  0  0  0  # atno 16541 bound_to 4567
    0.2581  -25.1115   18.1770 LP  0  0  0  0  0  0  0  0  0  0  0  0  # atno 16542 bound_to 5228
   -1.3903  -24.9987   18.6968 LP  0  0  0  0  0  0  0  0  0  0  0  0  # atno 16543 bound_to 5228
   -0.2270  -27.9960   13.9705 LP  0  0  0  0  0  0  0  0  0  0  0  0  # atno 16544 bound_to 5277
   -1.6470  -27.0833   13.5822 LP  0  0  0  0  0  0  0  0  0  0  0  0  # atno 16545 bound_to 5277
  -10.3969  -21.0325   12.0483 LP  0  0  0  0  0  0  0  0  0  0  0  0  # atno 16548 bound_to 8418
   -9.5648  -21.3057   13.5426 LP  0  0  0  0  0  0  0  0  0  0  0  0  # atno 16549 bound_to 8418
   -0.1719  -28.2109   16.9947 LP  0  0  0  0  0  0  0  0  0  0  0  0  # atno 16550 bound_to 5274
    0.4497  -21.1061   22.4584 LP  0  0  0  0  0  0  0  0  0  0  0  0  # atno 16551 bound_to 2006
    0.4562  -21.3220   24.1769 LP  0  0  0  0  0  0  0  0  0  0  0  0  # atno 16552 bound_to 2006
  -10.0487  -23.0681   19.1049 LP  0  0  0  0  0  0  0  0  0  0  0  0  # atno 16555 bound_to 8549
   -3.8502  -13.7894   27.1297 LP  0  0  0  0  0  0  0  0  0  0  0  0  # atno 16556 bound_to 1821
   -2.8263  -13.1670   25.8790 LP  0  0  0  0  0  0  0  0  0  0  0  0  # atno 16557 bound_to 1821
   -2.2927  -15.2185   27.0402 LP  0  0  0  0  0  0  0  0  0  0  0  0  # atno 16558 bound_to 1854

> <Gold.Score>
     Fitness  S(hb_ext) S(vdw_ext)  S(hb_int)    S(int)      intcor
     33.15       6.00      20.00       0.00      -0.35      -0.76

> <Gold.Goldscore.Fitness>
33.1545

> <Gold.Goldscore.Internal.Vdw>
-0.5230

> <Gold.Goldscore.Internal.Torsion>
-0.5902

> <Gold.Goldscore.External.Vdw>
20.0020

> <Gold.Goldscore.Internal.HBond>
0.0000

> <Gold.Goldscore.External.HBond>
6.0000

> <Gold.Goldscore.Internal.Correction>
-0.7650

> <Gold.Goldscore.Hbonds>
donor molecule, donor type, donor heavy atom, donor atom, acceptor molecule, acceptor atom, score
      L1  H    10    23       P1  7881  1.00

> <Gold.Goldscore.Internal.Vdw.Weighted>
-0.5230

> <Gold.Goldscore.Internal.Torsion.Weighted>
-0.5902

> <Gold.Goldscore.External.Vdw.Weighted>
27.5028

> <Gold.Goldscore.Internal.HBond.Weighted>
0.0000

> <Gold.Goldscore.External.HBond.Weighted>
6.0000

> <Gold.Goldscore.Internal.Correction.Weighted>
-0.7650

> <Gold.Rescore>
     Score     S(PLP)   S(hbond)     S(cho)   S(metal)  DE(clash)   DE(tors)     intcor
     26.21     -25.19       1.00       0.00       0.00       0.00       0.99       ----

> <Gold.PLP.Fitness>
26.2051

> <Gold.PLP.PLP>
-25.1901

> <Gold.PLP.part.hbond>
-3.3592

> <Gold.PLP.part.metal>
0.0000

> <Gold.PLP.part.buried>
-1.7292

> <Gold.PLP.part.nonpolar>
-21.6152

> <Gold.PLP.part.repulsive>
2.9954

> <Gold.PLP.ligand.clash>
0.0000

> <Gold.PLP.ligand.torsion>
0.9925

> <Gold.PLP.Chemscore.Hbond>
1.0000

> <Gold.PLP.Chemscore.CHOScore>
0.0000

> <Gold.PLP.Chemscore.Metal>
0.0000

> <Gold.Chemscore.Hbonds>
donor molecule, donor type, donor heavy atom, donor atom, acceptor molecule, acceptor atom, score
      L1  H    10    23       P1  7881  0.75

> <Gold.PLP.Chemscore.Internal.Correction>
   9.000000E+99

