#       Name:                CT1002167954
#       Creating user name   hitesit
#       Creation time:       Sun Apr 16 22:50:57 2023


#       File generated by GOLD software.
#

@<TRIPOS>MOLECULE
CT1002167954|ligand_prepared|mol2|1|dock7
    29    30     1
SMALL
NO_CHARGES


@<TRIPOS>ATOM
      1 C1          -5.3010 -16.2477  19.2100 C.3            1 RES1               0.0000
      2 C2          -5.3400 -17.7433  18.8353 C.ar           1 RES1               0.0000
      3 C3          -3.8262 -15.8671  19.3010 C.2            1 RES1               0.0000
      4 C4          -6.0666 -15.5135  18.1147 C.2            1 RES1               0.0000
      5 C5          -5.9760 -15.9249  20.5633 C.3            1 RES1               0.0000
      6 C6          -6.0219 -18.6564  19.6341 C.ar           1 RES1               0.0000
      7 C7          -4.7022 -18.2237  17.6946 C.ar           1 RES1               0.0000
      8 N8          -3.3055 -15.1108  18.2927 N.am           1 RES1               0.0000
      9 O9          -3.1212 -16.2579  20.2232 O.2            1 RES1               0.0000
     10 N10         -5.3680 -14.6517  17.3104 N.am           1 RES1               0.0000
     11 O11         -7.2651 -15.6861  17.9304 O.2            1 RES1               0.0000
     12 C12         -5.9049 -14.4557  20.9490 C.3            1 RES1               0.0000
     13 C13         -6.0671 -20.0005  19.3030 C.ar           1 RES1               0.0000
     14 C14         -4.7485 -19.5683  17.3655 C.ar           1 RES1               0.0000
     15 C15         -4.0163 -14.4402  17.3300 C.2            1 RES1               0.0000
     16 C16         -5.4310 -20.4573  18.1684 C.ar           1 RES1               0.0000
     17 O17         -3.4531 -13.6901  16.5380 O.2            1 RES1               0.0000
     18 H18         -7.0297 -16.2261  20.5132 H              1 RES1               0.0000
     19 H19         -5.4943 -16.5198  21.3491 H              1 RES1               0.0000
     20 H20         -6.5264 -18.3158  20.5321 H              1 RES1               0.0000
     21 H21         -4.1584 -17.5427  17.0487 H              1 RES1               0.0000
     22 H22         -2.2940 -15.0369  18.2505 H              1 RES1               0.0000
     23 H23         -5.9055 -14.1182  16.6344 H              1 RES1               0.0000
     24 H24         -6.3930 -14.2840  21.9060 H              1 RES1               0.0000
     25 H25         -4.8706 -14.1285  21.0326 H              1 RES1               0.0000
     26 H26         -6.3969 -13.8365  20.2017 H              1 RES1               0.0000
     27 H27         -6.6044 -20.6963  19.9390 H              1 RES1               0.0000
     28 H28         -4.2459 -19.9235  16.4720 H              1 RES1               0.0000
     29 H29         -5.4669 -21.5102  17.9091 H              1 RES1               0.0000
@<TRIPOS>BOND
    1    1    2 1     
    2    1    3 1     
    3    1    4 1     
    4    1    5 1     
    5    2    6 ar    
    6    2    7 ar    
    7    3    8 1     
    8    3    9 2     
    9    4   10 1     
   10    4   11 2     
   11    5   12 1     
   12    5   18 1     
   13    5   19 1     
   14    6   13 ar    
   15    6   20 1     
   16    7   14 ar    
   17    7   21 1     
   18    8   15 1     
   19    8   22 1     
   20   10   15 1     
   21   10   23 1     
   22   12   24 1     
   23   12   25 1     
   24   12   26 1     
   25   13   16 ar    
   26   13   27 1     
   27   14   16 ar    
   28   14   28 1     
   29   15   17 2     
   30   16   29 1     
@<TRIPOS>SUBSTRUCTURE
      1 RES1           1
@<TRIPOS>SET
DONOR_HYDROGENS      STATIC     ATOMS    <user>   **** ""
2 22 23
ATOM$RED        STATIC     ATOMS    COLORGROUP SYSTEM
2 22 23
@<TRIPOS>COMMENT
> <Gold.Version>
2022.3.0

> <Gold.Id.Protein>
unknown|3mvj_clean|pdb

> <Gold.Protein.RotatedTorsions>
[ 1772 1742 1743 1744 ] final -149.14 input   69.76 | X-H torsion
[ 1801 1791 1792 1793 ] final   96.82 input  -10.55 | X-H torsion
[ 1839 1818 1819 1820 ] final  129.91 input   43.70 | X-H torsion
[ 2083 2067 2068 2069 ] final  -42.03 input   63.04 | X-H torsion
[ 2134 2117 2118 2119 ] final   82.98 input   55.90 | X-H torsion
[ 5632 5617 5618 5619 ] final  170.98 input   93.34 | X-H torsion
[ 7884 7874 7875 7876 ] final -138.35 input   68.03 | X-H torsion
[ 7924 7916 7917 7918 ] final   79.50 input   66.66 | X-H torsion
[ 8483 8469 8467 8464 ] final   70.50 input   59.99 | X-H torsion
[ 15475 15466 15465 15463 ] final -146.40 input   60.00 | X-H torsion
[ 7991 7973 7974 7975 ] final -109.36 input   84.71 | X-H torsion
[ 8477 8463 8464 8465 ] final  -61.34 input   59.21 | X-H torsion
[ 8522 8507 8508 8509 ] final   20.96 input -104.23 | X-H torsion
[ 2822 2803 2804 2805 ] final  -79.37 input  103.27 | X-H torsion
[ 2184 2168 2169 2170 ] final  170.05 input  106.62 | X-H torsion
[ 2724 2714 2715 2716 ] final -168.52 input   74.66 | X-H torsion
[ 2767 2750 2751 2752 ] final -170.54 input   68.39 | X-H torsion
[ 5506 5481 5482 5483 ] final   56.43 input   57.83 | X-H torsion
[ 5596 5586 5587 5588 ] final  -29.92 input -104.43 | X-H torsion
[ 5454 5428 5429 5430 ] final  -87.57 input  113.20 | X-H torsion
[ 5462 5439 5438 5436 ] final  173.80 input   59.99 | X-H torsion
[ 5575 5565 5566 5567 ] final -137.62 input  101.53 | X-H torsion
[ 5392 5377 5378 5379 ] final  138.70 input  130.34 | X-H torsion
[ 8046 8030 8031 8032 ] final   84.02 input   72.86 | X-H torsion
[ 2684 2665 2666 2667 ] final  -28.42 input   26.41 | X-H torsion
[ 5342 5324 5325 5326 ] final -142.92 input   62.58 | X-H torsion
[ 4530 4515 4516 4517 ] final -138.55 input  130.34 | X-H torsion
[ 4589 4567 4568 4569 ] final  -78.09 input  104.80 | X-H torsion
[ 5299 5274 5275 5276 ] final  162.42 input   71.10 | X-H torsion
[ 8569 8549 8550 8551 ] final   53.54 input   74.91 | X-H torsion
[ 1864 1854 1855 1856 ] final -146.60 input   57.50 | X-H torsion
[ 15411 15403 15404 15405 ] final   24.66 input  102.24 | X-H torsion
[ 2884 2867 2868 2869 ] final   56.96 input   60.34 | X-H torsion
[ 16459 1745 1744 1743 ] final  131.60 input    0.00 | X-H torsion
[ 16462 1794 1793 1792 ] final   65.47 input   -0.00 | X-H torsion
[ 16466 2070 2069 2068 ] final -100.47 input    0.00 | X-H torsion
[ 16474 7834 7833 7832 ] final  130.20 input    0.00 | X-H torsion
[ 16477 7877 7876 7875 ] final  -51.17 input    0.00 | X-H torsion
[ 16486 7919 7918 7917 ] final  -19.57 input    0.00 | X-H torsion
[ 16490 8466 8465 8464 ] final  128.98 input    0.00 | X-H torsion
[ 16495 2717 2716 2715 ] final -124.38 input    0.00 | X-H torsion
[ 16498 5484 5483 5482 ] final   44.43 input    0.00 | X-H torsion
[ 16500 2120 2119 2118 ] final  -14.75 input    0.00 | X-H torsion
[ 16505 2753 2752 2751 ] final  -72.44 input    0.00 | X-H torsion
[ 16507 5380 5379 5378 ] final -128.64 input    0.00 | X-H torsion
[ 16510 1701 1700 1699 ] final  -25.97 input   -0.00 | X-H torsion
[ 16513 5589 5588 5587 ] final -179.38 input    0.00 | X-H torsion
[ 16515 2668 2667 2666 ] final  118.65 input    0.00 | X-H torsion
[ 16517 5327 5326 5325 ] final  103.11 input   -0.00 | X-H torsion
[ 16520 5431 5430 5429 ] final  -34.70 input    0.00 | X-H torsion
[ 16525 5532 5531 5530 ] final -164.07 input   -0.00 | X-H torsion
[ 16530 8033 8032 8031 ] final  -72.63 input    0.00 | X-H torsion
[ 16534 8371 8370 8369 ] final  -62.70 input    0.00 | X-H torsion
[ 16536 4570 4569 4568 ] final  142.63 input    0.00 | X-H torsion
[ 16539 4518 4517 4516 ] final -131.66 input    0.00 | X-H torsion
[ 16542 5228 5227 5226 ] final   28.64 input    0.00 | X-H torsion
[ 16544 5277 5276 5275 ] final -131.72 input    0.00 | X-H torsion
[ 16548 8418 8417 8416 ] final  176.49 input    0.00 | X-H torsion
[ 16551 2006 2005 2004 ] final   95.36 input    0.00 | X-H torsion
[ 16556 1821 1820 1819 ] final  113.08 input    0.00 | X-H torsion

> <Gold.Protein.ActiveResidues>
 THR48   LEU49   GLY50   THR51   GLY52   ARG56   VAL57   MET58   LEU59   TYR69  
 ALA70   MET71   LYS72   ILE73   GLU91   LEU95   VAL104  LYS105  LEU106  MET118 
 VAL119  MET120  GLU121  TYR122  VAL123  PRO124  GLY125  GLY126  GLU127  GLU170 
 ASN171  LEU172  LEU173  ILE174  ASP175  GLN181  VAL182  THR183  ASP184  PHE185 
 ASN326  PHE327  ASP328  TYR330 

> <Gold.Protein.RotatedAtoms>
    4.0024  -14.5300   19.8287 H   0  0  0  0  0  0  0  0  0  0  0  0  # atno 1772 bound_to 1742
    0.6431  -14.8099   20.5756 H   0  0  0  0  0  0  0  0  0  0  0  0  # atno 1801 bound_to 1791
   -0.1869  -13.6359   24.4121 H   0  0  0  0  0  0  0  0  0  0  0  0  # atno 1839 bound_to 1818
   -2.7980  -15.3183   26.4680 H   0  0  0  0  0  0  0  0  0  0  0  0  # atno 1864 bound_to 1854
    1.2719  -18.6684   23.1248 H   0  0  0  0  0  0  0  0  0  0  0  0  # atno 2083 bound_to 2067
    2.5983  -20.2023   20.2475 H   0  0  0  0  0  0  0  0  0  0  0  0  # atno 2134 bound_to 2117
    4.1943  -17.3887   17.3661 H   0  0  0  0  0  0  0  0  0  0  0  0  # atno 2184 bound_to 2168
    5.0914  -20.9219   11.8087 H   0  0  0  0  0  0  0  0  0  0  0  0  # atno 2684 bound_to 2665
    2.2775  -20.9497   13.1516 H   0  0  0  0  0  0  0  0  0  0  0  0  # atno 2724 bound_to 2714
    2.2190  -22.4192   16.2108 H   0  0  0  0  0  0  0  0  0  0  0  0  # atno 2767 bound_to 2750
    0.9719  -22.9348   19.5699 H   0  0  0  0  0  0  0  0  0  0  0  0  # atno 2822 bound_to 2803
    0.1625  -22.5015   23.2810 H   0  0  0  0  0  0  0  0  0  0  0  0  # atno 2884 bound_to 2867
   -9.1819  -21.7944    9.9804 H   0  0  0  0  0  0  0  0  0  0  0  0  # atno 4530 bound_to 4515
   -7.1483  -24.7330   10.3936 H   0  0  0  0  0  0  0  0  0  0  0  0  # atno 4589 bound_to 4567
    0.1120  -27.7247   17.6510 H   0  0  0  0  0  0  0  0  0  0  0  0  # atno 5299 bound_to 5274
   -0.6737  -25.8449   14.9394 H   0  0  0  0  0  0  0  0  0  0  0  0  # atno 5342 bound_to 5324
   -2.1613  -24.5497   10.8775 H   0  0  0  0  0  0  0  0  0  0  0  0  # atno 5392 bound_to 5377
   -0.3627  -21.4683   10.7996 H   0  0  0  0  0  0  0  0  0  0  0  0  # atno 5454 bound_to 5428
    4.2531  -13.4870   10.9296 H   0  0  0  0  0  0  0  0  0  0  0  0  # atno 5462 bound_to 5439
   -0.6979  -17.5025   11.2727 H   0  0  0  0  0  0  0  0  0  0  0  0  # atno 5506 bound_to 5481
   -0.1537  -12.2374    8.1496 H   0  0  0  0  0  0  0  0  0  0  0  0  # atno 5575 bound_to 5565
   -2.7557  -11.7365   10.4801 H   0  0  0  0  0  0  0  0  0  0  0  0  # atno 5596 bound_to 5586
   -3.9201  -10.7984   13.9503 H   0  0  0  0  0  0  0  0  0  0  0  0  # atno 5632 bound_to 5617
   -9.5510  -12.5690   18.1217 H   0  0  0  0  0  0  0  0  0  0  0  0  # atno 7884 bound_to 7874
  -10.3608  -12.7150   15.3563 H   0  0  0  0  0  0  0  0  0  0  0  0  # atno 7924 bound_to 7916
   -8.7889  -13.5297   12.8231 H   0  0  0  0  0  0  0  0  0  0  0  0  # atno 7991 bound_to 7973
   -5.8805  -12.0343   10.1860 H   0  0  0  0  0  0  0  0  0  0  0  0  # atno 8046 bound_to 8030
  -10.7869  -19.2646   14.1491 H   0  0  0  0  0  0  0  0  0  0  0  0  # atno 8477 bound_to 8463
   -8.2033  -17.6926   16.8850 H   0  0  0  0  0  0  0  0  0  0  0  0  # atno 8483 bound_to 8469
  -10.0274  -20.6060   16.9506 H   0  0  0  0  0  0  0  0  0  0  0  0  # atno 8522 bound_to 8507
  -10.0283  -22.9589   19.5560 H   0  0  0  0  0  0  0  0  0  0  0  0  # atno 8569 bound_to 8549
    1.6831   -8.8854   17.8561 H   0  0  0  0  0  0  0  0  0  0  0  0  # atno 15411 bound_to 15403
   -1.9562   -9.3863   22.1537 H   0  0  0  0  0  0  0  0  0  0  0  0  # atno 15475 bound_to 15466
    2.7653  -15.3791   20.7294 LP  0  0  0  0  0  0  0  0  0  0  0  0  # atno 16458 bound_to 1742
   -1.1407  -13.4866   19.6030 LP  0  0  0  0  0  0  0  0  0  0  0  0  # atno 16459 bound_to 1745
   -0.0550  -12.2673   19.0246 LP  0  0  0  0  0  0  0  0  0  0  0  0  # atno 16460 bound_to 1745
    1.4999  -13.5901   21.4939 LP  0  0  0  0  0  0  0  0  0  0  0  0  # atno 16461 bound_to 1791
    1.2142  -15.8536   23.3085 LP  0  0  0  0  0  0  0  0  0  0  0  0  # atno 16462 bound_to 1794
   -0.2565  -16.7103   23.6299 LP  0  0  0  0  0  0  0  0  0  0  0  0  # atno 16463 bound_to 1794
   -1.6701  -14.3785   23.8564 LP  0  0  0  0  0  0  0  0  0  0  0  0  # atno 16464 bound_to 1818
   -0.4356  -18.3389   22.9048 LP  0  0  0  0  0  0  0  0  0  0  0  0  # atno 16465 bound_to 2067
    1.9896  -16.5367   20.0880 LP  0  0  0  0  0  0  0  0  0  0  0  0  # atno 16466 bound_to 2070
    2.4902  -16.9053   21.7046 LP  0  0  0  0  0  0  0  0  0  0  0  0  # atno 16467 bound_to 2070
    1.9451  -18.5864   20.0866 LP  0  0  0  0  0  0  0  0  0  0  0  0  # atno 16468 bound_to 2117
   -4.3292   -9.4717   12.8824 LP  0  0  0  0  0  0  0  0  0  0  0  0  # atno 16469 bound_to 5617
   -7.9195  -13.7266   18.4131 LP  0  0  0  0  0  0  0  0  0  0  0  0  # atno 16474 bound_to 7834
   -7.2195  -12.3804   17.5778 LP  0  0  0  0  0  0  0  0  0  0  0  0  # atno 16475 bound_to 7834
  -10.9021  -12.4906   17.0216 LP  0  0  0  0  0  0  0  0  0  0  0  0  # atno 16476 bound_to 7874
   -9.7006  -16.5702   15.4980 LP  0  0  0  0  0  0  0  0  0  0  0  0  # atno 16477 bound_to 7877
  -11.1093  -16.0628   14.6274 LP  0  0  0  0  0  0  0  0  0  0  0  0  # atno 16478 bound_to 7877
  -10.0152  -14.4234   15.4665 LP  0  0  0  0  0  0  0  0  0  0  0  0  # atno 16479 bound_to 7916
   -8.3828  -17.3276   15.3092 LP  0  0  0  0  0  0  0  0  0  0  0  0  # atno 16480 bound_to 8469
   -6.8910  -17.3940   15.9700 LP  0  0  0  0  0  0  0  0  0  0  0  0  # atno 16481 bound_to 8469
   -1.9828  -10.9306   21.6418 LP  0  0  0  0  0  0  0  0  0  0  0  0  # atno 16484 bound_to 15466
   -1.2692   -9.7778   20.7316 LP  0  0  0  0  0  0  0  0  0  0  0  0  # atno 16485 bound_to 15466
   -9.3369  -11.3682   13.1390 LP  0  0  0  0  0  0  0  0  0  0  0  0  # atno 16486 bound_to 7919
   -7.7307  -11.8454   12.7004 LP  0  0  0  0  0  0  0  0  0  0  0  0  # atno 16487 bound_to 7919
   -8.7648  -15.0318   11.9357 LP  0  0  0  0  0  0  0  0  0  0  0  0  # atno 16488 bound_to 7973
   -9.3976  -18.2226   13.9242 LP  0  0  0  0  0  0  0  0  0  0  0  0  # atno 16489 bound_to 8463
  -11.6750  -19.1516   17.2450 LP  0  0  0  0  0  0  0  0  0  0  0  0  # atno 16490 bound_to 8466
  -10.6679  -17.8826   16.6322 LP  0  0  0  0  0  0  0  0  0  0  0  0  # atno 16491 bound_to 8466
   -8.3922  -20.2343   17.4792 LP  0  0  0  0  0  0  0  0  0  0  0  0  # atno 16492 bound_to 8507
   -0.3635  -23.2948   16.4092 LP  0  0  0  0  0  0  0  0  0  0  0  0  # atno 16495 bound_to 2717
    0.4654  -23.5909   14.9175 LP  0  0  0  0  0  0  0  0  0  0  0  0  # atno 16496 bound_to 2717
   -0.3649  -23.9027   18.9783 LP  0  0  0  0  0  0  0  0  0  0  0  0  # atno 16497 bound_to 2803
   -0.9481  -15.1671   11.6436 LP  0  0  0  0  0  0  0  0  0  0  0  0  # atno 16498 bound_to 5484
   -1.2807  -13.7037   10.7789 LP  0  0  0  0  0  0  0  0  0  0  0  0  # atno 16499 bound_to 5484
    3.4772  -20.8514   17.8890 LP  0  0  0  0  0  0  0  0  0  0  0  0  # atno 16500 bound_to 2120
    3.7352  -20.1088   16.3457 LP  0  0  0  0  0  0  0  0  0  0  0  0  # atno 16501 bound_to 2120
    5.1994  -18.6225   18.0848 LP  0  0  0  0  0  0  0  0  0  0  0  0  # atno 16502 bound_to 2168
    1.8132  -22.5541   13.6658 LP  0  0  0  0  0  0  0  0  0  0  0  0  # atno 16503 bound_to 2714
    1.7295  -21.3041   17.4687 LP  0  0  0  0  0  0  0  0  0  0  0  0  # atno 16504 bound_to 2750
    2.6983  -22.4775   20.6718 LP  0  0  0  0  0  0  0  0  0  0  0  0  # atno 16505 bound_to 2753
    1.6359  -21.1838   20.2274 LP  0  0  0  0  0  0  0  0  0  0  0  0  # atno 16506 bound_to 2753
   -1.9452  -20.0263   10.9518 LP  0  0  0  0  0  0  0  0  0  0  0  0  # atno 16507 bound_to 5380
   -2.0781  -21.3887   12.0131 LP  0  0  0  0  0  0  0  0  0  0  0  0  # atno 16508 bound_to 5380
   -0.3832  -18.4458    9.8329 LP  0  0  0  0  0  0  0  0  0  0  0  0  # atno 16509 bound_to 5481
    5.0838  -12.4797   20.8203 LP  0  0  0  0  0  0  0  0  0  0  0  0  # atno 16510 bound_to 1701
    4.0318  -12.4946   19.4444 LP  0  0  0  0  0  0  0  0  0  0  0  0  # atno 16511 bound_to 1701
   -1.3705  -10.6709   10.5465 LP  0  0  0  0  0  0  0  0  0  0  0  0  # atno 16512 bound_to 5586
   -5.8496  -11.0354   11.5739 LP  0  0  0  0  0  0  0  0  0  0  0  0  # atno 16513 bound_to 5589
   -4.4427  -11.3071   10.6009 LP  0  0  0  0  0  0  0  0  0  0  0  0  # atno 16514 bound_to 5589
    3.9525  -19.8551   14.1351 LP  0  0  0  0  0  0  0  0  0  0  0  0  # atno 16515 bound_to 2668
    4.8117  -21.3154   14.4947 LP  0  0  0  0  0  0  0  0  0  0  0  0  # atno 16516 bound_to 2668
    1.0935  -23.9050   12.0348 LP  0  0  0  0  0  0  0  0  0  0  0  0  # atno 16517 bound_to 5327
    0.3944  -22.5988   12.9322 LP  0  0  0  0  0  0  0  0  0  0  0  0  # atno 16518 bound_to 5327
    0.9916  -21.4566    9.6963 LP  0  0  0  0  0  0  0  0  0  0  0  0  # atno 16519 bound_to 5428
    0.4045  -19.4250    8.0272 LP  0  0  0  0  0  0  0  0  0  0  0  0  # atno 16520 bound_to 5431
   -1.2149  -18.8115    8.0642 LP  0  0  0  0  0  0  0  0  0  0  0  0  # atno 16521 bound_to 5431
    3.9212  -13.7359   12.5029 LP  0  0  0  0  0  0  0  0  0  0  0  0  # atno 16522 bound_to 5439
    2.7526  -13.2064   11.4926 LP  0  0  0  0  0  0  0  0  0  0  0  0  # atno 16523 bound_to 5439
    0.3330  -10.5846   10.0291 LP  0  0  0  0  0  0  0  0  0  0  0  0  # atno 16525 bound_to 5532
    1.7884  -11.5154    9.9047 LP  0  0  0  0  0  0  0  0  0  0  0  0  # atno 16526 bound_to 5532
   -1.4467  -12.9034    9.1252 LP  0  0  0  0  0  0  0  0  0  0  0  0  # atno 16527 bound_to 5565
   -1.0385  -23.8107   11.9948 LP  0  0  0  0  0  0  0  0  0  0  0  0  # atno 16528 bound_to 5377
   -6.9765  -13.3716    9.9132 LP  0  0  0  0  0  0  0  0  0  0  0  0  # atno 16529 bound_to 8030
   -3.8461  -11.6083    7.4839 LP  0  0  0  0  0  0  0  0  0  0  0  0  # atno 16530 bound_to 8033
   -3.5871  -13.1284    8.2727 LP  0  0  0  0  0  0  0  0  0  0  0  0  # atno 16531 bound_to 8033
    5.3901  -22.5352   11.2012 LP  0  0  0  0  0  0  0  0  0  0  0  0  # atno 16532 bound_to 2665
    0.0831  -24.2960   14.6838 LP  0  0  0  0  0  0  0  0  0  0  0  0  # atno 16533 bound_to 5324
   -8.4346  -16.7745   11.8485 LP  0  0  0  0  0  0  0  0  0  0  0  0  # atno 16534 bound_to 8371
  -10.0745  -16.2294   11.9650 LP  0  0  0  0  0  0  0  0  0  0  0  0  # atno 16535 bound_to 8371
   -4.0089  -25.6039   12.3338 LP  0  0  0  0  0  0  0  0  0  0  0  0  # atno 16536 bound_to 4570
   -3.6712  -25.1620   10.6935 LP  0  0  0  0  0  0  0  0  0  0  0  0  # atno 16537 bound_to 4570
   -9.5375  -23.0634   11.1229 LP  0  0  0  0  0  0  0  0  0  0  0  0  # atno 16538 bound_to 4515
   -7.7109  -25.9062   11.8606 LP  0  0  0  0  0  0  0  0  0  0  0  0  # atno 16539 bound_to 4518
   -9.0836  -25.0196   11.2864 LP  0  0  0  0  0  0  0  0  0  0  0  0  # atno 16540 bound_to 4518
   -5.9797  -24.2291    9.1829 LP  0  0  0  0  0  0  0  0  0  0  0  0  # atno 16541 bound_to 4567
   -0.5988  -25.2795   19.2727 LP  0  0  0  0  0  0  0  0  0  0  0  0  # atno 16542 bound_to 5228
   -0.5334  -24.8308   17.6011 LP  0  0  0  0  0  0  0  0  0  0  0  0  # atno 16543 bound_to 5228
   -0.6545  -27.1441   13.0596 LP  0  0  0  0  0  0  0  0  0  0  0  0  # atno 16544 bound_to 5277
   -1.2195  -27.9352   14.4931 LP  0  0  0  0  0  0  0  0  0  0  0  0  # atno 16545 bound_to 5277
   -9.4597  -21.2664   13.4802 LP  0  0  0  0  0  0  0  0  0  0  0  0  # atno 16548 bound_to 8418
  -10.5021  -21.0719   12.1107 LP  0  0  0  0  0  0  0  0  0  0  0  0  # atno 16549 bound_to 8418
   -1.3223  -27.2754   16.7594 LP  0  0  0  0  0  0  0  0  0  0  0  0  # atno 16550 bound_to 5274
   -0.4075  -21.2137   23.2193 LP  0  0  0  0  0  0  0  0  0  0  0  0  # atno 16551 bound_to 2006
    1.3134  -21.2144   23.4159 LP  0  0  0  0  0  0  0  0  0  0  0  0  # atno 16552 bound_to 2006
  -11.0539  -21.7664   18.8039 LP  0  0  0  0  0  0  0  0  0  0  0  0  # atno 16555 bound_to 8549
   -3.9436  -13.8741   26.0280 LP  0  0  0  0  0  0  0  0  0  0  0  0  # atno 16556 bound_to 1821
   -2.7330  -13.0823   26.9806 LP  0  0  0  0  0  0  0  0  0  0  0  0  # atno 16557 bound_to 1821
   -2.0443  -16.7309   27.1869 LP  0  0  0  0  0  0  0  0  0  0  0  0  # atno 16558 bound_to 1854

> <Gold.Score>
     Fitness  S(hb_ext) S(vdw_ext)  S(hb_int)    S(int)      intcor
     30.96       0.00      23.12       0.00      -0.84      -0.76

> <Gold.Goldscore.Fitness>
30.9589

> <Gold.Goldscore.Internal.Vdw>
-1.2304

> <Gold.Goldscore.Internal.Torsion>
-0.3719

> <Gold.Goldscore.External.Vdw>
23.1245

> <Gold.Goldscore.Internal.HBond>
0.0000

> <Gold.Goldscore.External.HBond>
0.0000

> <Gold.Goldscore.Internal.Correction>
-0.7650

> <Gold.Goldscore.Internal.Vdw.Weighted>
-1.2304

> <Gold.Goldscore.Internal.Torsion.Weighted>
-0.3719

> <Gold.Goldscore.External.Vdw.Weighted>
31.7962

> <Gold.Goldscore.Internal.HBond.Weighted>
0.0000

> <Gold.Goldscore.External.HBond.Weighted>
0.0000

> <Gold.Goldscore.Internal.Correction.Weighted>
-0.7650

> <Gold.Rescore>
     Score     S(PLP)   S(hbond)     S(cho)   S(metal)  DE(clash)   DE(tors)     intcor
     34.15     -34.19       0.00       0.00       0.00       0.00       0.02       ----

> <Gold.PLP.Fitness>
34.1491

> <Gold.PLP.PLP>
-34.1852

> <Gold.PLP.part.hbond>
-1.7445

> <Gold.PLP.part.metal>
0.0000

> <Gold.PLP.part.buried>
-2.5276

> <Gold.PLP.part.nonpolar>
-30.6220

> <Gold.PLP.part.repulsive>
0.4988

> <Gold.PLP.ligand.clash>
0.0000

> <Gold.PLP.ligand.torsion>
0.0180

> <Gold.PLP.Chemscore.Hbond>
0.0000

> <Gold.PLP.Chemscore.CHOScore>
0.0000

> <Gold.PLP.Chemscore.Metal>
0.0000

> <Gold.Chemscore.Hbonds>
donor molecule, donor type, donor heavy atom, donor atom, acceptor molecule, acceptor atom, score
      P1  H  8469  8483       L1    11  0.02

> <Gold.PLP.Chemscore.Internal.Correction>
   9.000000E+99

