#       Name:                CT1002167954
#       Creating user name   hitesit
#       Creation time:       Sun Apr 16 22:50:52 2023


#       File generated by GOLD software.
#

@<TRIPOS>MOLECULE
CT1002167954|ligand_prepared|mol2|1|dock4
    29    30     1
SMALL
NO_CHARGES


@<TRIPOS>ATOM
      1 C1          -5.3103 -16.7483  19.2775 C.3            1 RES1               0.0000
      2 C2          -5.4532 -18.2499  18.9558 C.ar           1 RES1               0.0000
      3 C3          -4.5023 -16.6618  20.5690 C.2            1 RES1               0.0000
      4 C4          -4.6244 -16.1168  18.0711 C.2            1 RES1               0.0000
      5 C5          -6.6597 -16.0243  19.4930 C.3            1 RES1               0.0000
      6 C6          -6.2242 -19.0780  19.7661 C.ar           1 RES1               0.0000
      7 C7          -4.8233 -18.8199  17.8527 C.ar           1 RES1               0.0000
      8 N8          -3.2054 -16.2501  20.4766 N.am           1 RES1               0.0000
      9 O9          -4.9838 -16.9878  21.6471 O.2            1 RES1               0.0000
     10 N10         -3.3682 -15.5979  18.2455 N.am           1 RES1               0.0000
     11 O11         -5.1537 -16.0789  16.9672 O.2            1 RES1               0.0000
     12 C12         -6.5169 -14.5477  19.8269 C.3            1 RES1               0.0000
     13 C13         -6.3629 -20.4265  19.4823 C.ar           1 RES1               0.0000
     14 C14         -4.9632 -20.1688  17.5708 C.ar           1 RES1               0.0000
     15 C15         -2.6153 -15.6634  19.3861 C.2            1 RES1               0.0000
     16 C16         -5.7330 -20.9727  18.3843 C.ar           1 RES1               0.0000
     17 O17         -1.4716 -15.2216  19.4495 O.2            1 RES1               0.0000
     18 H18         -7.2631 -16.1236  18.5823 H              1 RES1               0.0000
     19 H19         -7.2001 -16.5200  20.3089 H              1 RES1               0.0000
     20 H20         -6.7254 -18.6664  20.6358 H              1 RES1               0.0000
     21 H21         -4.2118 -18.2069  17.1993 H              1 RES1               0.0000
     22 H22         -2.6203 -16.3916  21.2938 H              1 RES1               0.0000
     23 H23         -2.9562 -15.1182  17.4514 H              1 RES1               0.0000
     24 H24         -7.4928 -14.0880  19.9681 H              1 RES1               0.0000
     25 H25         -5.9432 -14.4128  20.7415 H              1 RES1               0.0000
     26 H26         -6.0059 -14.0187  19.0251 H              1 RES1               0.0000
     27 H27         -6.9688 -21.0551  20.1264 H              1 RES1               0.0000
     28 H28         -4.4651 -20.5946  16.7060 H              1 RES1               0.0000
     29 H29         -5.8422 -22.0290  18.1620 H              1 RES1               0.0000
@<TRIPOS>BOND
    1    1    2 1     
    2    1    3 1     
    3    1    4 1     
    4    1    5 1     
    5    2    6 ar    
    6    2    7 ar    
    7    3    8 1     
    8    3    9 2     
    9    4   10 1     
   10    4   11 2     
   11    5   12 1     
   12    5   18 1     
   13    5   19 1     
   14    6   13 ar    
   15    6   20 1     
   16    7   14 ar    
   17    7   21 1     
   18    8   15 1     
   19    8   22 1     
   20   10   15 1     
   21   10   23 1     
   22   12   24 1     
   23   12   25 1     
   24   12   26 1     
   25   13   16 ar    
   26   13   27 1     
   27   14   16 ar    
   28   14   28 1     
   29   15   17 2     
   30   16   29 1     
@<TRIPOS>SUBSTRUCTURE
      1 RES1           1
@<TRIPOS>SET
DONOR_HYDROGENS      STATIC     ATOMS    <user>   **** ""
2 22 23
ATOM$RED        STATIC     ATOMS    COLORGROUP SYSTEM
2 22 23
@<TRIPOS>COMMENT
> <Gold.Version>
2022.3.0

> <Gold.Id.Protein>
unknown|3mvj_clean|pdb

> <Gold.Protein.RotatedTorsions>
[ 1772 1742 1743 1744 ] final  -59.87 input   69.76 | X-H torsion
[ 1801 1791 1792 1793 ] final  -11.73 input  -10.55 | X-H torsion
[ 1839 1818 1819 1820 ] final  -59.85 input   43.70 | X-H torsion
[ 2083 2067 2068 2069 ] final  134.75 input   63.04 | X-H torsion
[ 2134 2117 2118 2119 ] final  136.02 input   55.90 | X-H torsion
[ 5632 5617 5618 5619 ] final -102.11 input   93.34 | X-H torsion
[ 7884 7874 7875 7876 ] final   24.49 input   68.03 | X-H torsion
[ 7924 7916 7917 7918 ] final   14.72 input   66.66 | X-H torsion
[ 8483 8469 8467 8464 ] final   12.47 input   59.99 | X-H torsion
[ 15475 15466 15465 15463 ] final  133.31 input   60.00 | X-H torsion
[ 7991 7973 7974 7975 ] final  176.38 input   84.71 | X-H torsion
[ 8477 8463 8464 8465 ] final   53.82 input   59.21 | X-H torsion
[ 8522 8507 8508 8509 ] final  -65.01 input -104.23 | X-H torsion
[ 2822 2803 2804 2805 ] final   41.65 input  103.27 | X-H torsion
[ 2184 2168 2169 2170 ] final  -22.43 input  106.62 | X-H torsion
[ 2724 2714 2715 2716 ] final -117.76 input   74.66 | X-H torsion
[ 2767 2750 2751 2752 ] final -154.88 input   68.39 | X-H torsion
[ 5506 5481 5482 5483 ] final  170.66 input   57.83 | X-H torsion
[ 5596 5586 5587 5588 ] final   43.59 input -104.43 | X-H torsion
[ 5454 5428 5429 5430 ] final -114.36 input  113.20 | X-H torsion
[ 5462 5439 5438 5436 ] final  102.46 input   59.99 | X-H torsion
[ 5575 5565 5566 5567 ] final   80.75 input  101.53 | X-H torsion
[ 5392 5377 5378 5379 ] final -128.11 input  130.34 | X-H torsion
[ 8046 8030 8031 8032 ] final -129.36 input   72.86 | X-H torsion
[ 2684 2665 2666 2667 ] final  153.31 input   26.41 | X-H torsion
[ 5342 5324 5325 5326 ] final   98.08 input   62.58 | X-H torsion
[ 4530 4515 4516 4517 ] final   61.73 input  130.34 | X-H torsion
[ 4589 4567 4568 4569 ] final   92.43 input  104.80 | X-H torsion
[ 5299 5274 5275 5276 ] final  152.94 input   71.10 | X-H torsion
[ 8569 8549 8550 8551 ] final  -82.71 input   74.91 | X-H torsion
[ 1864 1854 1855 1856 ] final   35.26 input   57.50 | X-H torsion
[ 15411 15403 15404 15405 ] final -158.94 input  102.24 | X-H torsion
[ 2884 2867 2868 2869 ] final  -40.61 input   60.34 | X-H torsion
[ 16459 1745 1744 1743 ] final  147.87 input    0.00 | X-H torsion
[ 16462 1794 1793 1792 ] final   88.11 input   -0.00 | X-H torsion
[ 16466 2070 2069 2068 ] final  -10.92 input    0.00 | X-H torsion
[ 16474 7834 7833 7832 ] final   44.00 input    0.00 | X-H torsion
[ 16477 7877 7876 7875 ] final   59.29 input    0.00 | X-H torsion
[ 16486 7919 7918 7917 ] final  -70.13 input    0.00 | X-H torsion
[ 16490 8466 8465 8464 ] final  -84.19 input    0.00 | X-H torsion
[ 16495 2717 2716 2715 ] final  119.67 input    0.00 | X-H torsion
[ 16498 5484 5483 5482 ] final   81.79 input    0.00 | X-H torsion
[ 16500 2120 2119 2118 ] final -158.64 input    0.00 | X-H torsion
[ 16505 2753 2752 2751 ] final -129.16 input    0.00 | X-H torsion
[ 16507 5380 5379 5378 ] final   57.79 input    0.00 | X-H torsion
[ 16510 1701 1700 1699 ] final   32.04 input   -0.00 | X-H torsion
[ 16513 5589 5588 5587 ] final   25.81 input    0.00 | X-H torsion
[ 16515 2668 2667 2666 ] final -103.28 input    0.00 | X-H torsion
[ 16517 5327 5326 5325 ] final -112.72 input   -0.00 | X-H torsion
[ 16520 5431 5430 5429 ] final -169.00 input    0.00 | X-H torsion
[ 16525 5532 5531 5530 ] final  -10.54 input   -0.00 | X-H torsion
[ 16530 8033 8032 8031 ] final -162.39 input    0.00 | X-H torsion
[ 16534 8371 8370 8369 ] final  -58.86 input    0.00 | X-H torsion
[ 16536 4570 4569 4568 ] final -126.48 input    0.00 | X-H torsion
[ 16539 4518 4517 4516 ] final -129.02 input    0.00 | X-H torsion
[ 16542 5228 5227 5226 ] final    9.38 input    0.00 | X-H torsion
[ 16544 5277 5276 5275 ] final   43.06 input    0.00 | X-H torsion
[ 16548 8418 8417 8416 ] final  120.41 input    0.00 | X-H torsion
[ 16551 2006 2005 2004 ] final   30.45 input    0.00 | X-H torsion
[ 16556 1821 1820 1819 ] final  163.76 input    0.00 | X-H torsion

> <Gold.Protein.ActiveResidues>
 THR48   LEU49   GLY50   THR51   GLY52   ARG56   VAL57   MET58   LEU59   TYR69  
 ALA70   MET71   LYS72   ILE73   GLU91   LEU95   VAL104  LYS105  LEU106  MET118 
 VAL119  MET120  GLU121  TYR122  VAL123  PRO124  GLY125  GLY126  GLU127  GLU170 
 ASN171  LEU172  LEU173  ILE174  ASP175  GLN181  VAL182  THR183  ASP184  PHE185 
 ASN326  PHE327  ASP328  TYR330 

> <Gold.Protein.RotatedAtoms>
    3.3934  -14.3168   20.8987 H   0  0  0  0  0  0  0  0  0  0  0  0  # atno 1772 bound_to 1742
    1.4994  -14.5878   21.7188 H   0  0  0  0  0  0  0  0  0  0  0  0  # atno 1801 bound_to 1791
   -1.6021  -14.5025   23.8020 H   0  0  0  0  0  0  0  0  0  0  0  0  # atno 1839 bound_to 1818
   -2.0749  -16.7846   27.2126 H   0  0  0  0  0  0  0  0  0  0  0  0  # atno 1864 bound_to 1854
   -0.4559  -18.2936   22.8547 H   0  0  0  0  0  0  0  0  0  0  0  0  # atno 2083 bound_to 2067
    2.7049  -19.7135   20.8647 H   0  0  0  0  0  0  0  0  0  0  0  0  # atno 2134 bound_to 2117
    5.0617  -18.7492   18.0495 H   0  0  0  0  0  0  0  0  0  0  0  0  # atno 2184 bound_to 2168
    5.3678  -22.5579   11.1755 H   0  0  0  0  0  0  0  0  0  0  0  0  # atno 2684 bound_to 2665
    2.8183  -21.3473   13.5026 H   0  0  0  0  0  0  0  0  0  0  0  0  # atno 2724 bound_to 2714
    1.9792  -22.4378   16.1800 H   0  0  0  0  0  0  0  0  0  0  0  0  # atno 2767 bound_to 2750
    0.2478  -24.3078   19.4337 H   0  0  0  0  0  0  0  0  0  0  0  0  # atno 2822 bound_to 2803
   -0.6866  -23.4962   23.0008 H   0  0  0  0  0  0  0  0  0  0  0  0  # atno 2884 bound_to 2867
   -9.4881  -22.8361   11.3239 H   0  0  0  0  0  0  0  0  0  0  0  0  # atno 4530 bound_to 4515
   -5.8404  -24.2387    9.2650 H   0  0  0  0  0  0  0  0  0  0  0  0  # atno 4589 bound_to 4567
    0.1181  -27.8388   17.5602 H   0  0  0  0  0  0  0  0  0  0  0  0  # atno 5299 bound_to 5274
   -0.5864  -24.3740   15.2568 H   0  0  0  0  0  0  0  0  0  0  0  0  # atno 5342 bound_to 5324
   -0.9434  -24.7413   11.2414 H   0  0  0  0  0  0  0  0  0  0  0  0  # atno 5392 bound_to 5377
   -0.0463  -21.5723   11.0370 H   0  0  0  0  0  0  0  0  0  0  0  0  # atno 5454 bound_to 5428
    4.4730  -13.7684   11.9610 H   0  0  0  0  0  0  0  0  0  0  0  0  # atno 5462 bound_to 5439
   -1.1575  -18.5944   10.3638 H   0  0  0  0  0  0  0  0  0  0  0  0  # atno 5506 bound_to 5481
   -1.6078  -12.9715    8.5755 H   0  0  0  0  0  0  0  0  0  0  0  0  # atno 5575 bound_to 5565
   -2.7082  -10.7350   10.1339 H   0  0  0  0  0  0  0  0  0  0  0  0  # atno 5596 bound_to 5586
   -4.2652  -10.7374   12.7747 H   0  0  0  0  0  0  0  0  0  0  0  0  # atno 5632 bound_to 5617
  -10.7199  -12.4200   16.8490 H   0  0  0  0  0  0  0  0  0  0  0  0  # atno 7884 bound_to 7874
   -9.4810  -13.0574   15.3119 H   0  0  0  0  0  0  0  0  0  0  0  0  # atno 7924 bound_to 7916
   -8.3639  -14.4504   13.1342 H   0  0  0  0  0  0  0  0  0  0  0  0  # atno 7991 bound_to 7973
   -7.2837  -12.9818    9.9990 H   0  0  0  0  0  0  0  0  0  0  0  0  # atno 8046 bound_to 8030
  -10.0509  -18.0215   14.5685 H   0  0  0  0  0  0  0  0  0  0  0  0  # atno 8477 bound_to 8463
   -8.7517  -17.5571   16.1737 H   0  0  0  0  0  0  0  0  0  0  0  0  # atno 8483 bound_to 8469
   -9.0568  -21.3105   17.2390 H   0  0  0  0  0  0  0  0  0  0  0  0  # atno 8522 bound_to 8507
  -10.9981  -21.6587   19.4422 H   0  0  0  0  0  0  0  0  0  0  0  0  # atno 8569 bound_to 8549
    0.7984   -7.4671   17.2773 H   0  0  0  0  0  0  0  0  0  0  0  0  # atno 15411 bound_to 15403
   -2.1756  -10.5730   22.1340 H   0  0  0  0  0  0  0  0  0  0  0  0  # atno 15475 bound_to 15466
    3.3547  -15.5855   19.6937 LP  0  0  0  0  0  0  0  0  0  0  0  0  # atno 16458 bound_to 1742
   -1.1564  -13.3330   19.7933 LP  0  0  0  0  0  0  0  0  0  0  0  0  # atno 16459 bound_to 1745
   -0.0393  -12.4209   18.8342 LP  0  0  0  0  0  0  0  0  0  0  0  0  # atno 16460 bound_to 1745
    0.6725  -13.8047   20.3891 LP  0  0  0  0  0  0  0  0  0  0  0  0  # atno 16461 bound_to 1791
    1.2106  -15.8548   23.6485 LP  0  0  0  0  0  0  0  0  0  0  0  0  # atno 16462 bound_to 1794
   -0.2528  -16.7091   23.2899 LP  0  0  0  0  0  0  0  0  0  0  0  0  # atno 16463 bound_to 1794
   -0.2951  -13.5365   24.4492 LP  0  0  0  0  0  0  0  0  0  0  0  0  # atno 16464 bound_to 1818
    1.2214  -18.6982   23.1639 LP  0  0  0  0  0  0  0  0  0  0  0  0  # atno 16465 bound_to 2067
    1.4283  -16.5924   21.1697 LP  0  0  0  0  0  0  0  0  0  0  0  0  # atno 16466 bound_to 2070
    3.0515  -16.8496   20.6229 LP  0  0  0  0  0  0  0  0  0  0  0  0  # atno 16467 bound_to 2070
    1.8421  -19.0591   19.4896 LP  0  0  0  0  0  0  0  0  0  0  0  0  # atno 16468 bound_to 2117
   -3.9966   -9.5305   14.0154 LP  0  0  0  0  0  0  0  0  0  0  0  0  # atno 16469 bound_to 5617
   -7.4667  -12.6955   18.7773 LP  0  0  0  0  0  0  0  0  0  0  0  0  # atno 16474 bound_to 7834
   -7.6722  -13.4115   17.2136 LP  0  0  0  0  0  0  0  0  0  0  0  0  # atno 16475 bound_to 7834
   -9.7465  -12.6380   18.2798 LP  0  0  0  0  0  0  0  0  0  0  0  0  # atno 16476 bound_to 7874
  -11.1134  -16.4111   15.5517 LP  0  0  0  0  0  0  0  0  0  0  0  0  # atno 16477 bound_to 7877
   -9.6965  -16.2219   14.5737 LP  0  0  0  0  0  0  0  0  0  0  0  0  # atno 16478 bound_to 7877
  -10.8772  -14.0879   15.5100 LP  0  0  0  0  0  0  0  0  0  0  0  0  # atno 16479 bound_to 7916
   -7.4771  -17.2492   15.2098 LP  0  0  0  0  0  0  0  0  0  0  0  0  # atno 16480 bound_to 8469
   -7.2445  -17.6089   16.7856 LP  0  0  0  0  0  0  0  0  0  0  0  0  # atno 16481 bound_to 8469
   -1.3856  -10.4076   20.7212 LP  0  0  0  0  0  0  0  0  0  0  0  0  # atno 16484 bound_to 15466
   -1.6454   -9.1057   21.6721 LP  0  0  0  0  0  0  0  0  0  0  0  0  # atno 16485 bound_to 15466
   -9.1914  -11.3585   12.4138 LP  0  0  0  0  0  0  0  0  0  0  0  0  # atno 16486 bound_to 7919
   -7.8762  -11.8551   13.4255 LP  0  0  0  0  0  0  0  0  0  0  0  0  # atno 16487 bound_to 7919
   -9.1839  -14.1239   11.6290 LP  0  0  0  0  0  0  0  0  0  0  0  0  # atno 16488 bound_to 7973
  -10.1080  -19.4224   13.5193 LP  0  0  0  0  0  0  0  0  0  0  0  0  # atno 16489 bound_to 8463
  -10.5993  -17.8933   17.1217 LP  0  0  0  0  0  0  0  0  0  0  0  0  # atno 16490 bound_to 8466
  -11.7436  -19.1408   16.7555 LP  0  0  0  0  0  0  0  0  0  0  0  0  # atno 16491 bound_to 8466
   -9.3071  -19.5704   17.2075 LP  0  0  0  0  0  0  0  0  0  0  0  0  # atno 16492 bound_to 8507
    0.6778  -24.0398   15.6901 LP  0  0  0  0  0  0  0  0  0  0  0  0  # atno 16495 bound_to 2717
   -0.5759  -22.8459   15.6366 LP  0  0  0  0  0  0  0  0  0  0  0  0  # atno 16496 bound_to 2717
    0.3290  -22.5869   19.1088 LP  0  0  0  0  0  0  0  0  0  0  0  0  # atno 16497 bound_to 2803
   -0.4697  -14.9010   11.5540 LP  0  0  0  0  0  0  0  0  0  0  0  0  # atno 16498 bound_to 5484
   -1.7591  -13.9698   10.8684 LP  0  0  0  0  0  0  0  0  0  0  0  0  # atno 16499 bound_to 5484
    4.1844  -20.3690   16.4822 LP  0  0  0  0  0  0  0  0  0  0  0  0  # atno 16500 bound_to 2120
    3.0280  -20.5912   17.7525 LP  0  0  0  0  0  0  0  0  0  0  0  0  # atno 16501 bound_to 2120
    4.3483  -17.2876   17.4142 LP  0  0  0  0  0  0  0  0  0  0  0  0  # atno 16502 bound_to 2168
    1.2846  -22.1655   13.3227 LP  0  0  0  0  0  0  0  0  0  0  0  0  # atno 16503 bound_to 2714
    1.9613  -21.2861   17.4985 LP  0  0  0  0  0  0  0  0  0  0  0  0  # atno 16504 bound_to 2750
    2.0222  -22.3542   21.1240 LP  0  0  0  0  0  0  0  0  0  0  0  0  # atno 16505 bound_to 2753
    2.3120  -21.3070   19.7752 LP  0  0  0  0  0  0  0  0  0  0  0  0  # atno 16506 bound_to 2753
   -2.0097  -21.3461   12.0674 LP  0  0  0  0  0  0  0  0  0  0  0  0  # atno 16507 bound_to 5380
   -2.0136  -20.0689   10.8975 LP  0  0  0  0  0  0  0  0  0  0  0  0  # atno 16508 bound_to 5380
    0.0617  -17.3887   10.7128 LP  0  0  0  0  0  0  0  0  0  0  0  0  # atno 16509 bound_to 5481
    5.3964  -12.6946   20.0709 LP  0  0  0  0  0  0  0  0  0  0  0  0  # atno 16510 bound_to 1701
    3.7192  -12.2798   20.1938 LP  0  0  0  0  0  0  0  0  0  0  0  0  # atno 16511 bound_to 1701
   -1.4168  -11.6455   10.8834 LP  0  0  0  0  0  0  0  0  0  0  0  0  # atno 16512 bound_to 5586
   -4.4879  -11.6393   10.7749 LP  0  0  0  0  0  0  0  0  0  0  0  0  # atno 16513 bound_to 5589
   -5.8044  -10.7031   11.3998 LP  0  0  0  0  0  0  0  0  0  0  0  0  # atno 16514 bound_to 5589
    4.4030  -21.1829   14.9413 LP  0  0  0  0  0  0  0  0  0  0  0  0  # atno 16515 bound_to 2668
    4.3612  -19.9876   13.6885 LP  0  0  0  0  0  0  0  0  0  0  0  0  # atno 16516 bound_to 2668
    0.4119  -22.4546   12.4196 LP  0  0  0  0  0  0  0  0  0  0  0  0  # atno 16517 bound_to 5327
    1.0759  -24.0492   12.5474 LP  0  0  0  0  0  0  0  0  0  0  0  0  # atno 16518 bound_to 5327
    0.6817  -21.3548    9.4640 LP  0  0  0  0  0  0  0  0  0  0  0  0  # atno 16519 bound_to 5428
   -0.7620  -18.3435    7.8957 LP  0  0  0  0  0  0  0  0  0  0  0  0  # atno 16520 bound_to 5431
   -0.0484  -19.8930    8.1957 LP  0  0  0  0  0  0  0  0  0  0  0  0  # atno 16521 bound_to 5431
    2.9091  -13.4066   12.2267 LP  0  0  0  0  0  0  0  0  0  0  0  0  # atno 16522 bound_to 5439
    3.5431  -13.2522   10.7298 LP  0  0  0  0  0  0  0  0  0  0  0  0  # atno 16523 bound_to 5439
    1.6326  -11.6361   10.2487 LP  0  0  0  0  0  0  0  0  0  0  0  0  # atno 16525 bound_to 5532
    0.4888  -10.4639    9.6850 LP  0  0  0  0  0  0  0  0  0  0  0  0  # atno 16526 bound_to 5532
   -0.0441  -12.1953    8.7144 LP  0  0  0  0  0  0  0  0  0  0  0  0  # atno 16527 bound_to 5565
   -2.2268  -23.6237   11.6398 LP  0  0  0  0  0  0  0  0  0  0  0  0  # atno 16528 bound_to 5377
   -5.6175  -12.4539   10.0943 LP  0  0  0  0  0  0  0  0  0  0  0  0  # atno 16529 bound_to 8030
   -3.4096  -12.6962    7.1378 LP  0  0  0  0  0  0  0  0  0  0  0  0  # atno 16530 bound_to 8033
   -4.0236  -12.0405    8.6187 LP  0  0  0  0  0  0  0  0  0  0  0  0  # atno 16531 bound_to 8033
    5.1220  -20.9481   11.8154 LP  0  0  0  0  0  0  0  0  0  0  0  0  # atno 16532 bound_to 2665
   -0.0036  -25.7556   14.3688 LP  0  0  0  0  0  0  0  0  0  0  0  0  # atno 16533 bound_to 5324
   -8.4271  -16.7366   11.8052 LP  0  0  0  0  0  0  0  0  0  0  0  0  # atno 16534 bound_to 8371
  -10.0820  -16.2674   12.0083 LP  0  0  0  0  0  0  0  0  0  0  0  0  # atno 16535 bound_to 8371
   -3.2075  -25.9729   11.4707 LP  0  0  0  0  0  0  0  0  0  0  0  0  # atno 16536 bound_to 4570
   -4.4726  -24.7930   11.5565 LP  0  0  0  0  0  0  0  0  0  0  0  0  # atno 16537 bound_to 4570
   -9.2350  -22.0344    9.7957 LP  0  0  0  0  0  0  0  0  0  0  0  0  # atno 16538 bound_to 4515
   -7.7074  -25.8797   11.8903 LP  0  0  0  0  0  0  0  0  0  0  0  0  # atno 16539 bound_to 4518
   -9.0871  -25.0461   11.2567 LP  0  0  0  0  0  0  0  0  0  0  0  0  # atno 16540 bound_to 4518
   -7.2188  -24.6974   10.2523 LP  0  0  0  0  0  0  0  0  0  0  0  0  # atno 16541 bound_to 4567
   -0.8793  -25.2233   19.2266 LP  0  0  0  0  0  0  0  0  0  0  0  0  # atno 16542 bound_to 5228
   -0.2529  -24.8869   17.6472 LP  0  0  0  0  0  0  0  0  0  0  0  0  # atno 16543 bound_to 5228
   -1.1488  -27.9698   14.4975 LP  0  0  0  0  0  0  0  0  0  0  0  0  # atno 16544 bound_to 5277
   -0.7252  -27.1095   13.0551 LP  0  0  0  0  0  0  0  0  0  0  0  0  # atno 16545 bound_to 5277
   -9.1323  -20.9965   12.7853 LP  0  0  0  0  0  0  0  0  0  0  0  0  # atno 16548 bound_to 8418
  -10.8295  -21.3417   12.8056 LP  0  0  0  0  0  0  0  0  0  0  0  0  # atno 16549 bound_to 8418
   -1.3282  -27.1639   16.8482 LP  0  0  0  0  0  0  0  0  0  0  0  0  # atno 16550 bound_to 5274
   -0.0002  -21.3123   24.0491 LP  0  0  0  0  0  0  0  0  0  0  0  0  # atno 16551 bound_to 2006
    0.9061  -21.1158   22.5862 LP  0  0  0  0  0  0  0  0  0  0  0  0  # atno 16552 bound_to 2006
  -10.0939  -23.0536   18.9166 LP  0  0  0  0  0  0  0  0  0  0  0  0  # atno 16555 bound_to 8549
   -4.0386  -13.9177   26.7618 LP  0  0  0  0  0  0  0  0  0  0  0  0  # atno 16556 bound_to 1821
   -2.6379  -13.0387   26.2468 LP  0  0  0  0  0  0  0  0  0  0  0  0  # atno 16557 bound_to 1821
   -2.7334  -15.3335   26.4772 LP  0  0  0  0  0  0  0  0  0  0  0  0  # atno 16558 bound_to 1854

> <Gold.Score>
     Fitness  S(hb_ext) S(vdw_ext)  S(hb_int)    S(int)      intcor
     33.42       0.00      25.91       0.00      -2.21      -0.76

> <Gold.Goldscore.Fitness>
33.4157

> <Gold.Goldscore.Internal.Vdw>
-2.6036

> <Gold.Goldscore.Internal.Torsion>
-0.3678

> <Gold.Goldscore.External.Vdw>
25.9070

> <Gold.Goldscore.Internal.HBond>
0.0000

> <Gold.Goldscore.External.HBond>
0.0000

> <Gold.Goldscore.Internal.Correction>
-0.7650

> <Gold.Goldscore.Internal.Vdw.Weighted>
-2.6036

> <Gold.Goldscore.Internal.Torsion.Weighted>
-0.3678

> <Gold.Goldscore.External.Vdw.Weighted>
35.6221

> <Gold.Goldscore.Internal.HBond.Weighted>
0.0000

> <Gold.Goldscore.External.HBond.Weighted>
0.0000

> <Gold.Goldscore.Internal.Correction.Weighted>
-0.7650

> <Gold.Rescore>
     Score     S(PLP)   S(hbond)     S(cho)   S(metal)  DE(clash)   DE(tors)     intcor
     24.63     -27.35       0.00       0.00       0.00       1.16       0.78       ----

> <Gold.PLP.Fitness>
24.6254

> <Gold.PLP.PLP>
-27.3451

> <Gold.PLP.part.hbond>
-1.0000

> <Gold.PLP.part.metal>
0.0000

> <Gold.PLP.part.buried>
1.4642

> <Gold.PLP.part.nonpolar>
-31.5698

> <Gold.PLP.part.repulsive>
3.4651

> <Gold.PLP.ligand.clash>
1.1558

> <Gold.PLP.ligand.torsion>
0.7820

> <Gold.PLP.Chemscore.Hbond>
0.0000

> <Gold.PLP.Chemscore.CHOScore>
0.0000

> <Gold.PLP.Chemscore.Metal>
0.0000

> <Gold.PLP.Chemscore.Internal.Correction>
   9.000000E+99

