#       Name:                CT1002167954
#       Creating user name   hitesit
#       Creation time:       Sun Apr 16 22:51:00 2023


#       File generated by GOLD software.
#

@<TRIPOS>MOLECULE
CT1002167954|ligand_prepared|mol2|1|dock10
    29    30     1
SMALL
NO_CHARGES


@<TRIPOS>ATOM
      1 C1          -4.6868 -15.4050  21.5068 C.3            1 RES1               0.0000
      2 C2          -4.6752 -16.5987  22.4834 C.ar           1 RES1               0.0000
      3 C3          -6.0548 -15.4176  20.8311 C.2            1 RES1               0.0000
      4 C4          -4.4202 -14.1623  22.3490 C.2            1 RES1               0.0000
      5 C5          -3.5974 -15.4829  20.4120 C.3            1 RES1               0.0000
      6 C6          -3.4966 -16.9879  23.1129 C.ar           1 RES1               0.0000
      7 C7          -5.8336 -17.3175  22.7664 C.ar           1 RES1               0.0000
      8 N8          -6.9560 -14.4672  21.2112 N.am           1 RES1               0.0000
      9 O9          -6.3521 -16.2725  20.0060 O.2            1 RES1               0.0000
     10 N10         -5.4216 -13.2332  22.4574 N.am           1 RES1               0.0000
     11 O11         -3.3580 -13.9872  22.9332 O.2            1 RES1               0.0000
     12 C12         -3.5341 -14.2520  19.5214 C.3            1 RES1               0.0000
     13 C13         -3.4772 -18.0551  23.9955 C.ar           1 RES1               0.0000
     14 C14         -5.8119 -18.3846  23.6492 C.ar           1 RES1               0.0000
     15 C15         -6.6883 -13.3440  21.9518 C.2            1 RES1               0.0000
     16 C16         -4.6348 -18.7538  24.2646 C.ar           1 RES1               0.0000
     17 O17         -7.5511 -12.4906  22.1376 O.2            1 RES1               0.0000
     18 H18         -2.6216 -15.6206  20.8939 H              1 RES1               0.0000
     19 H19         -3.7889 -16.3626  19.7852 H              1 RES1               0.0000
     20 H20         -2.5753 -16.4515  22.9116 H              1 RES1               0.0000
     21 H21         -6.7709 -17.0456  22.2930 H              1 RES1               0.0000
     22 H22         -7.9180 -14.6043  20.9178 H              1 RES1               0.0000
     23 H23         -5.2025 -12.3799  22.9616 H              1 RES1               0.0000
     24 H24         -2.7536 -14.3586  18.7710 H              1 RES1               0.0000
     25 H25         -4.4804 -14.0991  19.0068 H              1 RES1               0.0000
     26 H26         -3.3201 -13.3615  20.1089 H              1 RES1               0.0000
     27 H27         -2.5479 -18.3425  24.4762 H              1 RES1               0.0000
     28 H28         -6.7252 -18.9321  23.8576 H              1 RES1               0.0000
     29 H29         -4.6194 -19.5895  24.9564 H              1 RES1               0.0000
@<TRIPOS>BOND
    1    1    2 1     
    2    1    3 1     
    3    1    4 1     
    4    1    5 1     
    5    2    6 ar    
    6    2    7 ar    
    7    3    8 1     
    8    3    9 2     
    9    4   10 1     
   10    4   11 2     
   11    5   12 1     
   12    5   18 1     
   13    5   19 1     
   14    6   13 ar    
   15    6   20 1     
   16    7   14 ar    
   17    7   21 1     
   18    8   15 1     
   19    8   22 1     
   20   10   15 1     
   21   10   23 1     
   22   12   24 1     
   23   12   25 1     
   24   12   26 1     
   25   13   16 ar    
   26   13   27 1     
   27   14   16 ar    
   28   14   28 1     
   29   15   17 2     
   30   16   29 1     
@<TRIPOS>SUBSTRUCTURE
      1 RES1           1
@<TRIPOS>SET
DONOR_HYDROGENS      STATIC     ATOMS    <user>   **** ""
2 22 23
ATOM$RED        STATIC     ATOMS    COLORGROUP SYSTEM
2 22 23
@<TRIPOS>COMMENT
> <Gold.Version>
2022.3.0

> <Gold.Id.Protein>
unknown|3mvj_clean|pdb

> <Gold.Protein.RotatedTorsions>
[ 1772 1742 1743 1744 ] final  -63.65 input   69.76 | X-H torsion
[ 1801 1791 1792 1793 ] final   40.23 input  -10.55 | X-H torsion
[ 1839 1818 1819 1820 ] final  -22.28 input   43.70 | X-H torsion
[ 2083 2067 2068 2069 ] final  -30.06 input   63.04 | X-H torsion
[ 2134 2117 2118 2119 ] final  113.58 input   55.90 | X-H torsion
[ 5632 5617 5618 5619 ] final -168.33 input   93.34 | X-H torsion
[ 7884 7874 7875 7876 ] final  -51.80 input   68.03 | X-H torsion
[ 7924 7916 7917 7918 ] final   19.95 input   66.66 | X-H torsion
[ 8483 8469 8467 8464 ] final  -86.69 input   59.99 | X-H torsion
[ 15475 15466 15465 15463 ] final  -86.38 input   60.00 | X-H torsion
[ 7991 7973 7974 7975 ] final  -36.79 input   84.71 | X-H torsion
[ 8477 8463 8464 8465 ] final   36.83 input   59.21 | X-H torsion
[ 8522 8507 8508 8509 ] final  -59.71 input -104.23 | X-H torsion
[ 2822 2803 2804 2805 ] final  -71.63 input  103.27 | X-H torsion
[ 2184 2168 2169 2170 ] final  -35.88 input  106.62 | X-H torsion
[ 2724 2714 2715 2716 ] final -151.00 input   74.66 | X-H torsion
[ 2767 2750 2751 2752 ] final -136.52 input   68.39 | X-H torsion
[ 5506 5481 5482 5483 ] final -114.72 input   57.83 | X-H torsion
[ 5596 5586 5587 5588 ] final  137.83 input -104.43 | X-H torsion
[ 5454 5428 5429 5430 ] final   93.75 input  113.20 | X-H torsion
[ 5462 5439 5438 5436 ] final   41.88 input   59.99 | X-H torsion
[ 5575 5565 5566 5567 ] final  -99.39 input  101.53 | X-H torsion
[ 5392 5377 5378 5379 ] final  167.19 input  130.34 | X-H torsion
[ 8046 8030 8031 8032 ] final -172.92 input   72.86 | X-H torsion
[ 2684 2665 2666 2667 ] final  124.99 input   26.41 | X-H torsion
[ 5342 5324 5325 5326 ] final   78.20 input   62.58 | X-H torsion
[ 4530 4515 4516 4517 ] final -166.23 input  130.34 | X-H torsion
[ 4589 4567 4568 4569 ] final   13.37 input  104.80 | X-H torsion
[ 5299 5274 5275 5276 ] final   70.92 input   71.10 | X-H torsion
[ 8569 8549 8550 8551 ] final  -78.55 input   74.91 | X-H torsion
[ 1864 1854 1855 1856 ] final  172.93 input   57.50 | X-H torsion
[ 15411 15403 15404 15405 ] final    4.33 input  102.24 | X-H torsion
[ 2884 2867 2868 2869 ] final   69.98 input   60.34 | X-H torsion
[ 16459 1745 1744 1743 ] final   90.91 input    0.00 | X-H torsion
[ 16462 1794 1793 1792 ] final  114.82 input   -0.00 | X-H torsion
[ 16466 2070 2069 2068 ] final  -44.12 input    0.00 | X-H torsion
[ 16474 7834 7833 7832 ] final -147.40 input    0.00 | X-H torsion
[ 16477 7877 7876 7875 ] final   -1.99 input    0.00 | X-H torsion
[ 16486 7919 7918 7917 ] final -162.33 input    0.00 | X-H torsion
[ 16490 8466 8465 8464 ] final  -59.67 input    0.00 | X-H torsion
[ 16495 2717 2716 2715 ] final -120.08 input    0.00 | X-H torsion
[ 16498 5484 5483 5482 ] final  -45.61 input    0.00 | X-H torsion
[ 16500 2120 2119 2118 ] final -169.55 input    0.00 | X-H torsion
[ 16505 2753 2752 2751 ] final  156.84 input    0.00 | X-H torsion
[ 16507 5380 5379 5378 ] final   93.41 input    0.00 | X-H torsion
[ 16510 1701 1700 1699 ] final   96.29 input   -0.00 | X-H torsion
[ 16513 5589 5588 5587 ] final   18.66 input    0.00 | X-H torsion
[ 16515 2668 2667 2666 ] final   51.20 input    0.00 | X-H torsion
[ 16517 5327 5326 5325 ] final -110.74 input   -0.00 | X-H torsion
[ 16520 5431 5430 5429 ] final   -6.11 input    0.00 | X-H torsion
[ 16525 5532 5531 5530 ] final  -73.53 input   -0.00 | X-H torsion
[ 16530 8033 8032 8031 ] final -105.97 input    0.00 | X-H torsion
[ 16534 8371 8370 8369 ] final  -45.83 input    0.00 | X-H torsion
[ 16536 4570 4569 4568 ] final  141.24 input    0.00 | X-H torsion
[ 16539 4518 4517 4516 ] final  122.70 input    0.00 | X-H torsion
[ 16542 5228 5227 5226 ] final   53.74 input    0.00 | X-H torsion
[ 16544 5277 5276 5275 ] final  -64.99 input    0.00 | X-H torsion
[ 16548 8418 8417 8416 ] final -103.03 input    0.00 | X-H torsion
[ 16551 2006 2005 2004 ] final  -24.53 input    0.00 | X-H torsion
[ 16556 1821 1820 1819 ] final   -0.93 input    0.00 | X-H torsion

> <Gold.Protein.ActiveResidues>
 THR48   LEU49   GLY50   THR51   GLY52   ARG56   VAL57   MET58   LEU59   TYR69  
 ALA70   MET71   LYS72   ILE73   GLU91   LEU95   VAL104  LYS105  LEU106  MET118 
 VAL119  MET120  GLU121  TYR122  VAL123  PRO124  GLY125  GLY126  GLU127  GLU170 
 ASN171  LEU172  LEU173  ILE174  ASP175  GLN181  VAL182  THR183  ASP184  PHE185 
 ASN326  PHE327  ASP328  TYR330 

> <Gold.Protein.RotatedAtoms>
    3.4352  -14.2907   20.8670 H   0  0  0  0  0  0  0  0  0  0  0  0  # atno 1772 bound_to 1742
    1.0937  -15.0564   21.2453 H   0  0  0  0  0  0  0  0  0  0  0  0  # atno 1801 bound_to 1791
   -1.8232  -14.0442   24.0617 H   0  0  0  0  0  0  0  0  0  0  0  0  # atno 1839 bound_to 1818
   -2.9864  -15.8339   26.1768 H   0  0  0  0  0  0  0  0  0  0  0  0  # atno 1864 bound_to 1854
    1.2926  -18.4889   23.0785 H   0  0  0  0  0  0  0  0  0  0  0  0  # atno 2083 bound_to 2067
    2.7032  -19.9855   20.6506 H   0  0  0  0  0  0  0  0  0  0  0  0  # atno 2134 bound_to 2117
    4.8845  -18.8343   17.9864 H   0  0  0  0  0  0  0  0  0  0  0  0  # atno 2184 bound_to 2168
    5.5498  -22.5713   11.5699 H   0  0  0  0  0  0  0  0  0  0  0  0  # atno 2684 bound_to 2665
    2.5103  -21.0261   13.2628 H   0  0  0  0  0  0  0  0  0  0  0  0  # atno 2724 bound_to 2714
    1.6985  -22.4052   16.2078 H   0  0  0  0  0  0  0  0  0  0  0  0  # atno 2767 bound_to 2750
    1.0164  -23.0381   19.6141 H   0  0  0  0  0  0  0  0  0  0  0  0  # atno 2822 bound_to 2803
    0.3473  -22.4830   23.2028 H   0  0  0  0  0  0  0  0  0  0  0  0  # atno 2884 bound_to 2867
   -9.1348  -21.6092   10.3540 H   0  0  0  0  0  0  0  0  0  0  0  0  # atno 4530 bound_to 4515
   -5.9326  -24.2986   10.4072 H   0  0  0  0  0  0  0  0  0  0  0  0  # atno 4589 bound_to 4567
   -0.5343  -28.2022   16.6726 H   0  0  0  0  0  0  0  0  0  0  0  0  # atno 5299 bound_to 5274
   -0.3626  -24.2449   15.1006 H   0  0  0  0  0  0  0  0  0  0  0  0  # atno 5342 bound_to 5324
   -1.7976  -24.7855   10.8357 H   0  0  0  0  0  0  0  0  0  0  0  0  # atno 5392 bound_to 5377
    1.0186  -21.4596    9.7004 H   0  0  0  0  0  0  0  0  0  0  0  0  # atno 5454 bound_to 5428
    3.7344  -13.6978   12.5448 H   0  0  0  0  0  0  0  0  0  0  0  0  # atno 5462 bound_to 5439
   -0.2764  -18.3699    9.7852 H   0  0  0  0  0  0  0  0  0  0  0  0  # atno 5506 bound_to 5481
   -0.0274  -12.1584    8.7141 H   0  0  0  0  0  0  0  0  0  0  0  0  # atno 5575 bound_to 5565
   -1.4713  -10.5295   10.4735 H   0  0  0  0  0  0  0  0  0  0  0  0  # atno 5596 bound_to 5586
   -3.9824  -10.9590   13.6804 H   0  0  0  0  0  0  0  0  0  0  0  0  # atno 5632 bound_to 5617
   -9.6452  -12.3245   16.9482 H   0  0  0  0  0  0  0  0  0  0  0  0  # atno 7884 bound_to 7874
   -9.5318  -12.9949   15.3110 H   0  0  0  0  0  0  0  0  0  0  0  0  # atno 7924 bound_to 7916
   -9.1985  -13.6949   11.8818 H   0  0  0  0  0  0  0  0  0  0  0  0  # atno 7991 bound_to 7973
   -7.2380  -12.3417   10.1528 H   0  0  0  0  0  0  0  0  0  0  0  0  # atno 8046 bound_to 8030
  -10.2789  -18.1233   14.6520 H   0  0  0  0  0  0  0  0  0  0  0  0  # atno 8477 bound_to 8463
   -7.8108  -17.2563   15.1455 H   0  0  0  0  0  0  0  0  0  0  0  0  # atno 8483 bound_to 8469
   -9.1353  -21.3183   17.2111 H   0  0  0  0  0  0  0  0  0  0  0  0  # atno 8522 bound_to 8507
  -10.9783  -21.6710   19.5013 H   0  0  0  0  0  0  0  0  0  0  0  0  # atno 8569 bound_to 8549
    1.9093   -8.7587   17.6820 H   0  0  0  0  0  0  0  0  0  0  0  0  # atno 15411 bound_to 15403
   -1.4913   -9.1361   21.3804 H   0  0  0  0  0  0  0  0  0  0  0  0  # atno 15475 bound_to 15466
    3.3143  -15.6107   19.7244 LP  0  0  0  0  0  0  0  0  0  0  0  0  # atno 16458 bound_to 1742
   -0.9222  -13.6398   19.0631 LP  0  0  0  0  0  0  0  0  0  0  0  0  # atno 16459 bound_to 1745
   -0.2735  -12.1141   19.5644 LP  0  0  0  0  0  0  0  0  0  0  0  0  # atno 16460 bound_to 1745
    1.0646  -13.3519   20.8467 LP  0  0  0  0  0  0  0  0  0  0  0  0  # atno 16461 bound_to 1791
    1.0625  -15.9401   24.0101 LP  0  0  0  0  0  0  0  0  0  0  0  0  # atno 16462 bound_to 1794
   -0.1048  -16.6238   22.9283 LP  0  0  0  0  0  0  0  0  0  0  0  0  # atno 16463 bound_to 1794
   -0.0802  -13.9818   24.1968 LP  0  0  0  0  0  0  0  0  0  0  0  0  # atno 16464 bound_to 1818
   -0.4554  -18.5109   22.9493 LP  0  0  0  0  0  0  0  0  0  0  0  0  # atno 16465 bound_to 2067
    1.4272  -16.5130   20.6813 LP  0  0  0  0  0  0  0  0  0  0  0  0  # atno 16466 bound_to 2070
    3.0526  -16.9290   21.1113 LP  0  0  0  0  0  0  0  0  0  0  0  0  # atno 16467 bound_to 2070
    1.8437  -18.7960   19.6967 LP  0  0  0  0  0  0  0  0  0  0  0  0  # atno 16468 bound_to 2117
   -4.2692   -9.3169   13.1425 LP  0  0  0  0  0  0  0  0  0  0  0  0  # atno 16469 bound_to 5617
   -7.7409  -13.5424   17.3015 LP  0  0  0  0  0  0  0  0  0  0  0  0  # atno 16474 bound_to 7834
   -7.3981  -12.5646   18.6894 LP  0  0  0  0  0  0  0  0  0  0  0  0  # atno 16475 bound_to 7834
  -10.8090  -12.7324   18.1817 LP  0  0  0  0  0  0  0  0  0  0  0  0  # atno 16476 bound_to 7874
  -10.3178  -16.6304   15.8651 LP  0  0  0  0  0  0  0  0  0  0  0  0  # atno 16477 bound_to 7877
  -10.4922  -16.0027   14.2603 LP  0  0  0  0  0  0  0  0  0  0  0  0  # atno 16478 bound_to 7877
  -10.8274  -14.1491   15.5109 LP  0  0  0  0  0  0  0  0  0  0  0  0  # atno 16479 bound_to 7916
   -7.0195  -17.5369   16.5398 LP  0  0  0  0  0  0  0  0  0  0  0  0  # atno 16480 bound_to 8469
   -8.6495  -17.6240   16.4909 LP  0  0  0  0  0  0  0  0  0  0  0  0  # atno 16481 bound_to 8469
   -2.2055  -10.2817   22.2889 LP  0  0  0  0  0  0  0  0  0  0  0  0  # atno 16484 bound_to 15466
   -1.5148  -10.6788   20.8634 LP  0  0  0  0  0  0  0  0  0  0  0  0  # atno 16485 bound_to 15466
   -8.0100  -11.7210   12.2395 LP  0  0  0  0  0  0  0  0  0  0  0  0  # atno 16486 bound_to 7919
   -9.0576  -11.4926   13.5998 LP  0  0  0  0  0  0  0  0  0  0  0  0  # atno 16487 bound_to 7919
   -8.3609  -14.8689   12.8639 LP  0  0  0  0  0  0  0  0  0  0  0  0  # atno 16488 bound_to 7973
   -9.8879  -19.3242   13.4388 LP  0  0  0  0  0  0  0  0  0  0  0  0  # atno 16489 bound_to 8463
  -10.6322  -17.8643   16.7567 LP  0  0  0  0  0  0  0  0  0  0  0  0  # atno 16490 bound_to 8466
  -11.7107  -19.1698   17.1206 LP  0  0  0  0  0  0  0  0  0  0  0  0  # atno 16491 bound_to 8466
   -9.2331  -19.5629   17.2337 LP  0  0  0  0  0  0  0  0  0  0  0  0  # atno 16492 bound_to 8507
   -0.3995  -23.2509   16.3776 LP  0  0  0  0  0  0  0  0  0  0  0  0  # atno 16495 bound_to 2717
    0.5014  -23.6349   14.9490 LP  0  0  0  0  0  0  0  0  0  0  0  0  # atno 16496 bound_to 2717
   -0.4075  -23.8037   18.9359 LP  0  0  0  0  0  0  0  0  0  0  0  0  # atno 16497 bound_to 2803
   -1.9592  -14.6259   11.2123 LP  0  0  0  0  0  0  0  0  0  0  0  0  # atno 16498 bound_to 5484
   -0.2696  -14.2448   11.2102 LP  0  0  0  0  0  0  0  0  0  0  0  0  # atno 16499 bound_to 5484
    4.0654  -20.2806   16.4107 LP  0  0  0  0  0  0  0  0  0  0  0  0  # atno 16500 bound_to 2120
    3.1470  -20.6795   17.8240 LP  0  0  0  0  0  0  0  0  0  0  0  0  # atno 16501 bound_to 2120
    4.5222  -17.2041   17.4762 LP  0  0  0  0  0  0  0  0  0  0  0  0  # atno 16502 bound_to 2168
    1.5856  -22.4794   13.5571 LP  0  0  0  0  0  0  0  0  0  0  0  0  # atno 16503 bound_to 2714
    2.2327  -21.3177   17.4717 LP  0  0  0  0  0  0  0  0  0  0  0  0  # atno 16504 bound_to 2750
    1.4249  -21.5615   20.8055 LP  0  0  0  0  0  0  0  0  0  0  0  0  # atno 16505 bound_to 2753
    2.9093  -22.0997   20.0937 LP  0  0  0  0  0  0  0  0  0  0  0  0  # atno 16506 bound_to 2753
   -1.6545  -20.9844   12.2212 LP  0  0  0  0  0  0  0  0  0  0  0  0  # atno 16507 bound_to 5380
   -2.3688  -20.4306   10.7437 LP  0  0  0  0  0  0  0  0  0  0  0  0  # atno 16508 bound_to 5380
   -0.7912  -17.6061   11.2730 LP  0  0  0  0  0  0  0  0  0  0  0  0  # atno 16509 bound_to 5481
    4.8352  -12.7018   19.3405 LP  0  0  0  0  0  0  0  0  0  0  0  0  # atno 16510 bound_to 1701
    4.2804  -12.2725   20.9242 LP  0  0  0  0  0  0  0  0  0  0  0  0  # atno 16511 bound_to 1701
   -2.6204  -11.8454   10.5530 LP  0  0  0  0  0  0  0  0  0  0  0  0  # atno 16512 bound_to 5586
   -4.4615  -11.5515   10.7177 LP  0  0  0  0  0  0  0  0  0  0  0  0  # atno 16513 bound_to 5589
   -5.8308  -10.7909   11.4570 LP  0  0  0  0  0  0  0  0  0  0  0  0  # atno 16514 bound_to 5589
    4.6302  -20.2300   13.5651 LP  0  0  0  0  0  0  0  0  0  0  0  0  # atno 16515 bound_to 2668
    4.1340  -20.9405   15.0648 LP  0  0  0  0  0  0  0  0  0  0  0  0  # atno 16516 bound_to 2668
    0.4074  -22.4547   12.4492 LP  0  0  0  0  0  0  0  0  0  0  0  0  # atno 16517 bound_to 5327
    1.0805  -24.0491   12.5178 LP  0  0  0  0  0  0  0  0  0  0  0  0  # atno 16518 bound_to 5327
   -0.3607  -21.4651   10.7724 LP  0  0  0  0  0  0  0  0  0  0  0  0  # atno 16519 bound_to 5428
    0.1663  -19.7623    8.1384 LP  0  0  0  0  0  0  0  0  0  0  0  0  # atno 16520 bound_to 5431
   -0.9767  -18.4742    7.9530 LP  0  0  0  0  0  0  0  0  0  0  0  0  # atno 16521 bound_to 5431
    2.8120  -13.1822   11.3076 LP  0  0  0  0  0  0  0  0  0  0  0  0  # atno 16522 bound_to 5439
    4.3843  -13.5478   11.0607 LP  0  0  0  0  0  0  0  0  0  0  0  0  # atno 16523 bound_to 5439
    0.8892  -11.4347   10.7236 LP  0  0  0  0  0  0  0  0  0  0  0  0  # atno 16525 bound_to 5532
    1.2323  -10.6653    9.2102 LP  0  0  0  0  0  0  0  0  0  0  0  0  # atno 16526 bound_to 5532
   -1.5685  -12.9796    8.5807 LP  0  0  0  0  0  0  0  0  0  0  0  0  # atno 16527 bound_to 5565
   -1.3934  -23.5806   12.0356 LP  0  0  0  0  0  0  0  0  0  0  0  0  # atno 16528 bound_to 5377
   -5.6617  -13.0739    9.9454 LP  0  0  0  0  0  0  0  0  0  0  0  0  # atno 16529 bound_to 8030
   -3.6557  -11.9153    7.1427 LP  0  0  0  0  0  0  0  0  0  0  0  0  # atno 16530 bound_to 8033
   -3.7775  -12.8214    8.6138 LP  0  0  0  0  0  0  0  0  0  0  0  0  # atno 16531 bound_to 8033
    4.9455  -20.9351   11.4328 LP  0  0  0  0  0  0  0  0  0  0  0  0  # atno 16532 bound_to 2665
   -0.2257  -25.8837   14.5238 LP  0  0  0  0  0  0  0  0  0  0  0  0  # atno 16533 bound_to 5324
   -8.4295  -16.6011   11.6628 LP  0  0  0  0  0  0  0  0  0  0  0  0  # atno 16534 bound_to 8371
  -10.0796  -16.4028   12.1507 LP  0  0  0  0  0  0  0  0  0  0  0  0  # atno 16535 bound_to 8371
   -4.0241  -25.5895   12.3343 LP  0  0  0  0  0  0  0  0  0  0  0  0  # atno 16536 bound_to 4570
   -3.6560  -25.1764   10.6930 LP  0  0  0  0  0  0  0  0  0  0  0  0  # atno 16537 bound_to 4570
   -9.5840  -23.2464   10.7538 LP  0  0  0  0  0  0  0  0  0  0  0  0  # atno 16538 bound_to 4515
   -8.6713  -25.8868   10.8697 LP  0  0  0  0  0  0  0  0  0  0  0  0  # atno 16539 bound_to 4518
   -8.1232  -25.0391   12.2772 LP  0  0  0  0  0  0  0  0  0  0  0  0  # atno 16540 bound_to 4518
   -7.1315  -24.6407    9.1700 LP  0  0  0  0  0  0  0  0  0  0  0  0  # atno 16541 bound_to 4567
   -0.2326  -25.3143   19.1929 LP  0  0  0  0  0  0  0  0  0  0  0  0  # atno 16542 bound_to 5228
   -0.8996  -24.7959   17.6808 LP  0  0  0  0  0  0  0  0  0  0  0  0  # atno 16543 bound_to 5228
   -0.1231  -27.7496   13.5680 LP  0  0  0  0  0  0  0  0  0  0  0  0  # atno 16544 bound_to 5277
   -1.7509  -27.3297   13.9847 LP  0  0  0  0  0  0  0  0  0  0  0  0  # atno 16545 bound_to 5277
  -10.5575  -21.4548   13.3750 LP  0  0  0  0  0  0  0  0  0  0  0  0  # atno 16548 bound_to 8418
   -9.4042  -20.8834   12.2159 LP  0  0  0  0  0  0  0  0  0  0  0  0  # atno 16549 bound_to 8418
   -0.6907  -26.8087   17.7156 LP  0  0  0  0  0  0  0  0  0  0  0  0  # atno 16550 bound_to 5274
    0.7972  -21.3084   24.1067 LP  0  0  0  0  0  0  0  0  0  0  0  0  # atno 16551 bound_to 2006
    0.1087  -21.1197   22.5286 LP  0  0  0  0  0  0  0  0  0  0  0  0  # atno 16552 bound_to 2006
  -10.1135  -23.0414   18.8580 LP  0  0  0  0  0  0  0  0  0  0  0  0  # atno 16555 bound_to 8549
   -2.7179  -13.0944   26.0376 LP  0  0  0  0  0  0  0  0  0  0  0  0  # atno 16556 bound_to 1821
   -3.9586  -13.8620   26.9710 LP  0  0  0  0  0  0  0  0  0  0  0  0  # atno 16557 bound_to 1821
   -1.8647  -16.2395   27.4643 LP  0  0  0  0  0  0  0  0  0  0  0  0  # atno 16558 bound_to 1854

> <Gold.Score>
     Fitness  S(hb_ext) S(vdw_ext)  S(hb_int)    S(int)      intcor
     35.05       8.00      21.28       0.00      -2.21      -0.76

> <Gold.Goldscore.Fitness>
35.0545

> <Gold.Goldscore.Internal.Vdw>
-2.5703

> <Gold.Goldscore.Internal.Torsion>
-0.4031

> <Gold.Goldscore.External.Vdw>
21.2821

> <Gold.Goldscore.Internal.HBond>
0.0000

> <Gold.Goldscore.External.HBond>
8.0000

> <Gold.Goldscore.Internal.Correction>
-0.7650

> <Gold.Goldscore.Hbonds>
donor molecule, donor type, donor heavy atom, donor atom, acceptor molecule, acceptor atom, score
      P1  H  1818  1839       L1    11  1.00
      L1  H     8    22       P1  7881  1.00

> <Gold.Goldscore.Internal.Vdw.Weighted>
-2.5703

> <Gold.Goldscore.Internal.Torsion.Weighted>
-0.4031

> <Gold.Goldscore.External.Vdw.Weighted>
29.2629

> <Gold.Goldscore.Internal.HBond.Weighted>
0.0000

> <Gold.Goldscore.External.HBond.Weighted>
8.0000

> <Gold.Goldscore.Internal.Correction.Weighted>
-0.7650

> <Gold.Rescore>
     Score     S(PLP)   S(hbond)     S(cho)   S(metal)  DE(clash)   DE(tors)     intcor
     36.98     -33.03       1.98       0.00       0.00       1.20       0.39       ----

> <Gold.PLP.Fitness>
36.9845

> <Gold.PLP.PLP>
-33.0348

> <Gold.PLP.part.hbond>
-2.0000

> <Gold.PLP.part.metal>
0.0000

> <Gold.PLP.part.buried>
-4.2020

> <Gold.PLP.part.nonpolar>
-28.4161

> <Gold.PLP.part.repulsive>
0.3879

> <Gold.PLP.ligand.clash>
1.1992

> <Gold.PLP.ligand.torsion>
0.3880

> <Gold.PLP.Chemscore.Hbond>
1.9750

> <Gold.PLP.Chemscore.CHOScore>
0.0000

> <Gold.PLP.Chemscore.Metal>
0.0000

> <Gold.Chemscore.Hbonds>
donor molecule, donor type, donor heavy atom, donor atom, acceptor molecule, acceptor atom, score
      L1  H     8    22       P1  7881  1.00
      P1  H  1818  1839       L1    11  1.00

> <Gold.PLP.Chemscore.Internal.Correction>
   9.000000E+99

