#       Name:                CT1002167954
#       Creating user name   hitesit
#       Creation time:       Sun Apr 16 22:50:50 2023


#       File generated by GOLD software.
#

@<TRIPOS>MOLECULE
CT1002167954|ligand_prepared|mol2|1|dock2
    29    30     1
SMALL
NO_CHARGES


@<TRIPOS>ATOM
      1 C1          -5.1777 -16.5204  19.2013 C.3            1 RES1               0.0000
      2 C2          -5.4046 -18.0351  19.0199 C.ar           1 RES1               0.0000
      3 C3          -6.5208 -15.8501  18.9273 C.2            1 RES1               0.0000
      4 C4          -4.6681 -16.3330  20.6260 C.2            1 RES1               0.0000
      5 C5          -4.1261 -15.9261  18.2357 C.3            1 RES1               0.0000
      6 C6          -6.2415 -18.7348  19.8841 C.ar           1 RES1               0.0000
      7 C7          -4.7873 -18.7447  17.9933 C.ar           1 RES1               0.0000
      8 N8          -7.2138 -15.3635  19.9963 N.am           1 RES1               0.0000
      9 O9          -6.9831 -15.7848  17.7949 O.2            1 RES1               0.0000
     10 N10         -5.4636 -15.6495  21.5079 N.am           1 RES1               0.0000
     11 O11         -3.5922 -16.7856  20.9975 O.2            1 RES1               0.0000
     12 C12         -3.8534 -14.4473  18.4609 C.3            1 RES1               0.0000
     13 C13         -6.4559 -20.0940  19.7260 C.ar           1 RES1               0.0000
     14 C14         -5.0028 -20.1040  17.8371 C.ar           1 RES1               0.0000
     15 C15         -6.7269 -15.1829  21.2660 C.2            1 RES1               0.0000
     16 C16         -5.8371 -20.7793  18.7023 C.ar           1 RES1               0.0000
     17 O17         -7.4018 -14.6256  22.1268 O.2            1 RES1               0.0000
     18 H18         -3.1865 -16.4802  18.3524 H              1 RES1               0.0000
     19 H19         -4.4732 -16.0681  17.2048 H              1 RES1               0.0000
     20 H20         -6.7351 -18.2128  20.6970 H              1 RES1               0.0000
     21 H21         -4.1260 -18.2343  17.3013 H              1 RES1               0.0000
     22 H22         -8.1839 -15.1106  19.8370 H              1 RES1               0.0000
     23 H23         -5.0783 -15.4720  22.4300 H              1 RES1               0.0000
     24 H24         -3.1086 -14.0809  17.7575 H              1 RES1               0.0000
     25 H25         -4.7615 -13.8629  18.3279 H              1 RES1               0.0000
     26 H26         -3.4825 -14.2726  19.4688 H              1 RES1               0.0000
     27 H27         -7.1123 -20.6211  20.4104 H              1 RES1               0.0000
     28 H28         -4.5133 -20.6395  17.0303 H              1 RES1               0.0000
     29 H29         -6.0055 -21.8440  18.5784 H              1 RES1               0.0000
@<TRIPOS>BOND
    1    1    2 1     
    2    1    3 1     
    3    1    4 1     
    4    1    5 1     
    5    2    6 ar    
    6    2    7 ar    
    7    3    8 1     
    8    3    9 2     
    9    4   10 1     
   10    4   11 2     
   11    5   12 1     
   12    5   18 1     
   13    5   19 1     
   14    6   13 ar    
   15    6   20 1     
   16    7   14 ar    
   17    7   21 1     
   18    8   15 1     
   19    8   22 1     
   20   10   15 1     
   21   10   23 1     
   22   12   24 1     
   23   12   25 1     
   24   12   26 1     
   25   13   16 ar    
   26   13   27 1     
   27   14   16 ar    
   28   14   28 1     
   29   15   17 2     
   30   16   29 1     
@<TRIPOS>SUBSTRUCTURE
      1 RES1           1
@<TRIPOS>SET
DONOR_HYDROGENS      STATIC     ATOMS    <user>   **** ""
2 22 23
ATOM$RED        STATIC     ATOMS    COLORGROUP SYSTEM
2 22 23
@<TRIPOS>COMMENT
> <Gold.Version>
2022.3.0

> <Gold.Id.Protein>
unknown|3mvj_clean|pdb

> <Gold.Protein.RotatedTorsions>
[ 1772 1742 1743 1744 ] final   91.21 input   69.76 | X-H torsion
[ 1801 1791 1792 1793 ] final  -92.85 input  -10.55 | X-H torsion
[ 1839 1818 1819 1820 ] final -131.80 input   43.70 | X-H torsion
[ 2083 2067 2068 2069 ] final  -94.18 input   63.04 | X-H torsion
[ 2134 2117 2118 2119 ] final  167.95 input   55.90 | X-H torsion
[ 5632 5617 5618 5619 ] final  -68.73 input   93.34 | X-H torsion
[ 7884 7874 7875 7876 ] final   86.50 input   68.03 | X-H torsion
[ 7924 7916 7917 7918 ] final  -41.35 input   66.66 | X-H torsion
[ 8483 8469 8467 8464 ] final   18.09 input   59.99 | X-H torsion
[ 15475 15466 15465 15463 ] final  151.65 input   60.00 | X-H torsion
[ 7991 7973 7974 7975 ] final  -65.41 input   84.71 | X-H torsion
[ 8477 8463 8464 8465 ] final   -0.89 input   59.21 | X-H torsion
[ 8522 8507 8508 8509 ] final -102.38 input -104.23 | X-H torsion
[ 2822 2803 2804 2805 ] final   96.55 input  103.27 | X-H torsion
[ 2184 2168 2169 2170 ] final  -22.48 input  106.62 | X-H torsion
[ 2724 2714 2715 2716 ] final  126.75 input   74.66 | X-H torsion
[ 2767 2750 2751 2752 ] final  -74.91 input   68.39 | X-H torsion
[ 5506 5481 5482 5483 ] final  153.65 input   57.83 | X-H torsion
[ 5596 5586 5587 5588 ] final  -77.58 input -104.43 | X-H torsion
[ 5454 5428 5429 5430 ] final -167.92 input  113.20 | X-H torsion
[ 5462 5439 5438 5436 ] final   31.98 input   59.99 | X-H torsion
[ 5575 5565 5566 5567 ] final  100.09 input  101.53 | X-H torsion
[ 5392 5377 5378 5379 ] final  -56.67 input  130.34 | X-H torsion
[ 8046 8030 8031 8032 ] final -139.95 input   72.86 | X-H torsion
[ 2684 2665 2666 2667 ] final  -62.62 input   26.41 | X-H torsion
[ 5342 5324 5325 5326 ] final  100.10 input   62.58 | X-H torsion
[ 4530 4515 4516 4517 ] final  130.01 input  130.34 | X-H torsion
[ 4589 4567 4568 4569 ] final   67.91 input  104.80 | X-H torsion
[ 5299 5274 5275 5276 ] final   46.88 input   71.10 | X-H torsion
[ 8569 8549 8550 8551 ] final   98.56 input   74.91 | X-H torsion
[ 1864 1854 1855 1856 ] final -161.54 input   57.50 | X-H torsion
[ 15411 15403 15404 15405 ] final   78.19 input  102.24 | X-H torsion
[ 2884 2867 2868 2869 ] final -105.55 input   60.34 | X-H torsion
[ 16459 1745 1744 1743 ] final  152.00 input    0.00 | X-H torsion
[ 16462 1794 1793 1792 ] final   23.94 input   -0.00 | X-H torsion
[ 16466 2070 2069 2068 ] final -124.57 input    0.00 | X-H torsion
[ 16474 7834 7833 7832 ] final  120.84 input    0.00 | X-H torsion
[ 16477 7877 7876 7875 ] final   10.92 input    0.00 | X-H torsion
[ 16486 7919 7918 7917 ] final   80.97 input    0.00 | X-H torsion
[ 16490 8466 8465 8464 ] final  -76.42 input    0.00 | X-H torsion
[ 16495 2717 2716 2715 ] final  -18.26 input    0.00 | X-H torsion
[ 16498 5484 5483 5482 ] final  -43.71 input    0.00 | X-H torsion
[ 16500 2120 2119 2118 ] final  148.95 input    0.00 | X-H torsion
[ 16505 2753 2752 2751 ] final  -49.28 input    0.00 | X-H torsion
[ 16507 5380 5379 5378 ] final -146.34 input    0.00 | X-H torsion
[ 16510 1701 1700 1699 ] final   68.84 input   -0.00 | X-H torsion
[ 16513 5589 5588 5587 ] final   43.30 input    0.00 | X-H torsion
[ 16515 2668 2667 2666 ] final -166.18 input    0.00 | X-H torsion
[ 16517 5327 5326 5325 ] final -174.35 input   -0.00 | X-H torsion
[ 16520 5431 5430 5429 ] final   34.12 input    0.00 | X-H torsion
[ 16525 5532 5531 5530 ] final   39.40 input   -0.00 | X-H torsion
[ 16530 8033 8032 8031 ] final   16.65 input    0.00 | X-H torsion
[ 16534 8371 8370 8369 ] final -105.84 input    0.00 | X-H torsion
[ 16536 4570 4569 4568 ] final   84.08 input    0.00 | X-H torsion
[ 16539 4518 4517 4516 ] final  148.67 input    0.00 | X-H torsion
[ 16542 5228 5227 5226 ] final  -24.26 input    0.00 | X-H torsion
[ 16544 5277 5276 5275 ] final  -54.07 input    0.00 | X-H torsion
[ 16548 8418 8417 8416 ] final -124.09 input    0.00 | X-H torsion
[ 16551 2006 2005 2004 ] final  -39.97 input    0.00 | X-H torsion
[ 16556 1821 1820 1819 ] final  126.03 input    0.00 | X-H torsion

> <Gold.Protein.ActiveResidues>
 THR48   LEU49   GLY50   THR51   GLY52   ARG56   VAL57   MET58   LEU59   TYR69  
 ALA70   MET71   LYS72   ILE73   GLU91   LEU95   VAL104  LYS105  LEU106  MET118 
 VAL119  MET120  GLU121  TYR122  VAL123  PRO124  GLY125  GLY126  GLU127  GLU170 
 ASN171  LEU172  LEU173  ILE174  ASP175  GLN181  VAL182  THR183  ASP184  PHE185 
 ASN326  PHE327  ASP328  TYR330 

> <Gold.Protein.RotatedAtoms>
    3.0358  -15.7180   19.9634 H   0  0  0  0  0  0  0  0  0  0  0  0  # atno 1772 bound_to 1742
    1.4382  -13.4698   21.4242 H   0  0  0  0  0  0  0  0  0  0  0  0  # atno 1801 bound_to 1791
   -0.5858  -14.7242   23.7353 H   0  0  0  0  0  0  0  0  0  0  0  0  # atno 1839 bound_to 1818
   -2.8954  -15.4788   26.3289 H   0  0  0  0  0  0  0  0  0  0  0  0  # atno 1864 bound_to 1854
    0.7851  -19.2750   23.2409 H   0  0  0  0  0  0  0  0  0  0  0  0  # atno 2083 bound_to 2067
    2.5972  -19.2505   20.9813 H   0  0  0  0  0  0  0  0  0  0  0  0  # atno 2134 bound_to 2117
    5.0611  -18.7496   18.0493 H   0  0  0  0  0  0  0  0  0  0  0  0  # atno 2184 bound_to 2168
    4.8844  -20.9464   11.3298 H   0  0  0  0  0  0  0  0  0  0  0  0  # atno 2684 bound_to 2665
    1.4101  -21.2976   13.0041 H   0  0  0  0  0  0  0  0  0  0  0  0  # atno 2724 bound_to 2714
    1.0952  -21.9507   16.7185 H   0  0  0  0  0  0  0  0  0  0  0  0  # atno 2767 bound_to 2750
   -0.3818  -23.9683   19.0222 H   0  0  0  0  0  0  0  0  0  0  0  0  # atno 2822 bound_to 2803
   -0.1410  -23.9846   22.3886 H   0  0  0  0  0  0  0  0  0  0  0  0  # atno 2884 bound_to 2867
   -9.2241  -21.8917   11.2322 H   0  0  0  0  0  0  0  0  0  0  0  0  # atno 4530 bound_to 4515
   -5.7032  -24.1980    9.6200 H   0  0  0  0  0  0  0  0  0  0  0  0  # atno 4589 bound_to 4567
   -0.8370  -28.0404   16.5395 H   0  0  0  0  0  0  0  0  0  0  0  0  # atno 5299 bound_to 5274
   -0.6076  -24.3921   15.2700 H   0  0  0  0  0  0  0  0  0  0  0  0  # atno 5342 bound_to 5324
   -0.8790  -23.9667   11.9217 H   0  0  0  0  0  0  0  0  0  0  0  0  # atno 5392 bound_to 5377
    0.7386  -21.6914   10.9857 H   0  0  0  0  0  0  0  0  0  0  0  0  # atno 5454 bound_to 5428
    3.5782  -13.6585   12.5557 H   0  0  0  0  0  0  0  0  0  0  0  0  # atno 5462 bound_to 5439
   -1.2611  -18.4973   10.5852 H   0  0  0  0  0  0  0  0  0  0  0  0  # atno 5506 bound_to 5481
   -1.5395  -12.9438    8.2853 H   0  0  0  0  0  0  0  0  0  0  0  0  # atno 5575 bound_to 5565
   -2.1770  -12.0326   10.7808 H   0  0  0  0  0  0  0  0  0  0  0  0  # atno 5596 bound_to 5586
   -4.3703  -10.2829   12.5630 H   0  0  0  0  0  0  0  0  0  0  0  0  # atno 5632 bound_to 5617
  -11.0983  -12.6332   17.6413 H   0  0  0  0  0  0  0  0  0  0  0  0  # atno 7884 bound_to 7874
   -9.3569  -13.8754   15.3675 H   0  0  0  0  0  0  0  0  0  0  0  0  # atno 7924 bound_to 7916
   -9.0887  -13.4760   12.2405 H   0  0  0  0  0  0  0  0  0  0  0  0  # atno 7991 bound_to 7973
   -7.3192  -12.8264   10.0378 H   0  0  0  0  0  0  0  0  0  0  0  0  # atno 8046 bound_to 8030
  -10.6947  -18.5218   14.6438 H   0  0  0  0  0  0  0  0  0  0  0  0  # atno 8477 bound_to 8463
   -8.7342  -17.5769   16.2617 H   0  0  0  0  0  0  0  0  0  0  0  0  # atno 8483 bound_to 8469
   -8.5736  -21.0501   17.4251 H   0  0  0  0  0  0  0  0  0  0  0  0  # atno 8522 bound_to 8507
  -10.0839  -23.0491   18.8937 H   0  0  0  0  0  0  0  0  0  0  0  0  # atno 8569 bound_to 8549
    0.9285   -8.7843   18.0922 H   0  0  0  0  0  0  0  0  0  0  0  0  # atno 15411 bound_to 15403
   -2.2001  -10.3107   22.2739 H   0  0  0  0  0  0  0  0  0  0  0  0  # atno 15475 bound_to 15466
    3.7009  -14.2292   20.5990 LP  0  0  0  0  0  0  0  0  0  0  0  0  # atno 16458 bound_to 1742
   -1.1533  -13.2876   19.8361 LP  0  0  0  0  0  0  0  0  0  0  0  0  # atno 16459 bound_to 1745
   -0.0424  -12.4663   18.7914 LP  0  0  0  0  0  0  0  0  0  0  0  0  # atno 16460 bound_to 1745
    0.7316  -14.8850   20.6739 LP  0  0  0  0  0  0  0  0  0  0  0  0  # atno 16461 bound_to 1791
    0.9380  -16.0161   22.7847 LP  0  0  0  0  0  0  0  0  0  0  0  0  # atno 16462 bound_to 1794
    0.0197  -16.5477   24.1537 LP  0  0  0  0  0  0  0  0  0  0  0  0  # atno 16463 bound_to 1794
   -1.2825  -13.3212   24.5140 LP  0  0  0  0  0  0  0  0  0  0  0  0  # atno 16464 bound_to 1818
    0.0312  -17.7571   22.7936 LP  0  0  0  0  0  0  0  0  0  0  0  0  # atno 16465 bound_to 2067
    2.3421  -16.6047   20.0442 LP  0  0  0  0  0  0  0  0  0  0  0  0  # atno 16466 bound_to 2070
    2.1377  -16.8373   21.7484 LP  0  0  0  0  0  0  0  0  0  0  0  0  # atno 16467 bound_to 2070
    1.9463  -19.5070   19.3769 LP  0  0  0  0  0  0  0  0  0  0  0  0  # atno 16468 bound_to 2117
   -3.8953   -9.9686   14.2194 LP  0  0  0  0  0  0  0  0  0  0  0  0  # atno 16469 bound_to 5617
   -7.8943  -13.6520   18.5305 LP  0  0  0  0  0  0  0  0  0  0  0  0  # atno 16474 bound_to 7834
   -7.2447  -12.4550   17.4605 LP  0  0  0  0  0  0  0  0  0  0  0  0  # atno 16475 bound_to 7834
   -9.3724  -12.4271   17.4965 LP  0  0  0  0  0  0  0  0  0  0  0  0  # atno 16476 bound_to 7874
  -10.5112  -16.6082   15.8712 LP  0  0  0  0  0  0  0  0  0  0  0  0  # atno 16477 bound_to 7877
  -10.2988  -16.0249   14.2542 LP  0  0  0  0  0  0  0  0  0  0  0  0  # atno 16478 bound_to 7877
  -10.9988  -13.2864   15.4556 LP  0  0  0  0  0  0  0  0  0  0  0  0  # atno 16479 bound_to 7916
   -7.5644  -17.2473   15.1793 LP  0  0  0  0  0  0  0  0  0  0  0  0  # atno 16480 bound_to 8469
   -7.1749  -17.5909   16.7275 LP  0  0  0  0  0  0  0  0  0  0  0  0  # atno 16481 bound_to 8469
   -1.5008  -10.6555   20.8457 LP  0  0  0  0  0  0  0  0  0  0  0  0  # atno 16484 bound_to 15466
   -1.5056   -9.1219   21.4067 LP  0  0  0  0  0  0  0  0  0  0  0  0  # atno 16485 bound_to 15466
   -8.1993  -11.7736   13.7009 LP  0  0  0  0  0  0  0  0  0  0  0  0  # atno 16486 bound_to 7919
   -8.8684  -11.4401   12.1385 LP  0  0  0  0  0  0  0  0  0  0  0  0  # atno 16487 bound_to 7919
   -8.4691  -15.0847   12.5102 LP  0  0  0  0  0  0  0  0  0  0  0  0  # atno 16488 bound_to 7973
   -9.4866  -18.9395   13.4467 LP  0  0  0  0  0  0  0  0  0  0  0  0  # atno 16489 bound_to 8463
  -10.5985  -17.8712   17.0065 LP  0  0  0  0  0  0  0  0  0  0  0  0  # atno 16490 bound_to 8466
  -11.7444  -19.1629   16.8708 LP  0  0  0  0  0  0  0  0  0  0  0  0  # atno 16491 bound_to 8466
   -9.7625  -19.8158   17.0321 LP  0  0  0  0  0  0  0  0  0  0  0  0  # atno 16492 bound_to 8507
   -0.3099  -22.9154   15.0790 LP  0  0  0  0  0  0  0  0  0  0  0  0  # atno 16495 bound_to 2717
    0.4118  -23.9704   16.2477 LP  0  0  0  0  0  0  0  0  0  0  0  0  # atno 16496 bound_to 2717
    0.9324  -22.9122   19.5032 LP  0  0  0  0  0  0  0  0  0  0  0  0  # atno 16497 bound_to 2803
   -1.9533  -14.6500   11.2266 LP  0  0  0  0  0  0  0  0  0  0  0  0  # atno 16498 bound_to 5484
   -0.2755  -14.2207   11.1959 LP  0  0  0  0  0  0  0  0  0  0  0  0  # atno 16499 bound_to 5484
    3.5043  -20.0337   16.3822 LP  0  0  0  0  0  0  0  0  0  0  0  0  # atno 16500 bound_to 2120
    3.7081  -20.9264   17.8525 LP  0  0  0  0  0  0  0  0  0  0  0  0  # atno 16501 bound_to 2120
    4.3489  -17.2872   17.4144 LP  0  0  0  0  0  0  0  0  0  0  0  0  # atno 16502 bound_to 2168
    2.6610  -22.2140   13.8099 LP  0  0  0  0  0  0  0  0  0  0  0  0  # atno 16503 bound_to 2714
    2.8159  -21.7570   16.9779 LP  0  0  0  0  0  0  0  0  0  0  0  0  # atno 16504 bound_to 2750
    2.8608  -22.3460   20.3940 LP  0  0  0  0  0  0  0  0  0  0  0  0  # atno 16505 bound_to 2753
    1.4734  -21.3152   20.5052 LP  0  0  0  0  0  0  0  0  0  0  0  0  # atno 16506 bound_to 2753
   -1.7639  -19.9547   11.1333 LP  0  0  0  0  0  0  0  0  0  0  0  0  # atno 16507 bound_to 5380
   -2.2594  -21.4603   11.8316 LP  0  0  0  0  0  0  0  0  0  0  0  0  # atno 16508 bound_to 5380
    0.1620  -17.4827   10.4985 LP  0  0  0  0  0  0  0  0  0  0  0  0  # atno 16509 bound_to 5481
    5.1715  -12.7361   19.5744 LP  0  0  0  0  0  0  0  0  0  0  0  0  # atno 16510 bound_to 1701
    3.9440  -12.2383   20.6904 LP  0  0  0  0  0  0  0  0  0  0  0  0  # atno 16511 bound_to 1701
   -1.9337  -10.3828   10.2539 LP  0  0  0  0  0  0  0  0  0  0  0  0  # atno 16512 bound_to 5586
   -4.5945  -11.8208   10.9332 LP  0  0  0  0  0  0  0  0  0  0  0  0  # atno 16513 bound_to 5589
   -5.6978  -10.5217   11.2416 LP  0  0  0  0  0  0  0  0  0  0  0  0  # atno 16514 bound_to 5589
    3.8400  -20.4771   14.9816 LP  0  0  0  0  0  0  0  0  0  0  0  0  # atno 16515 bound_to 2668
    4.9242  -20.6934   13.6483 LP  0  0  0  0  0  0  0  0  0  0  0  0  # atno 16516 bound_to 2668
    0.7070  -22.8830   11.7009 LP  0  0  0  0  0  0  0  0  0  0  0  0  # atno 16517 bound_to 5327
    0.7809  -23.6208   13.2661 LP  0  0  0  0  0  0  0  0  0  0  0  0  # atno 16518 bound_to 5327
   -0.0866  -21.2382    9.5142 LP  0  0  0  0  0  0  0  0  0  0  0  0  # atno 16519 bound_to 5428
   -0.3845  -19.9593    8.2513 LP  0  0  0  0  0  0  0  0  0  0  0  0  # atno 16520 bound_to 5431
   -0.4259  -18.2772    7.8401 LP  0  0  0  0  0  0  0  0  0  0  0  0  # atno 16521 bound_to 5431
    2.8888  -13.1718   11.1646 LP  0  0  0  0  0  0  0  0  0  0  0  0  # atno 16522 bound_to 5439
    4.4649  -13.5978   11.1928 LP  0  0  0  0  0  0  0  0  0  0  0  0  # atno 16523 bound_to 5439
    1.7993  -11.3254    9.6082 LP  0  0  0  0  0  0  0  0  0  0  0  0  # atno 16525 bound_to 5532
    0.3221  -10.7746   10.3256 LP  0  0  0  0  0  0  0  0  0  0  0  0  # atno 16526 bound_to 5532
   -0.1101  -12.2220    8.9943 LP  0  0  0  0  0  0  0  0  0  0  0  0  # atno 16527 bound_to 5565
   -2.2897  -24.3795   10.9759 LP  0  0  0  0  0  0  0  0  0  0  0  0  # atno 16528 bound_to 5377
   -5.5830  -12.6045   10.0568 LP  0  0  0  0  0  0  0  0  0  0  0  0  # atno 16529 bound_to 8030
   -4.0258  -12.0278    8.6121 LP  0  0  0  0  0  0  0  0  0  0  0  0  # atno 16530 bound_to 8033
   -3.4074  -12.7089    7.1445 LP  0  0  0  0  0  0  0  0  0  0  0  0  # atno 16531 bound_to 8033
    5.5909  -22.5114   11.6657 LP  0  0  0  0  0  0  0  0  0  0  0  0  # atno 16532 bound_to 2665
    0.0174  -25.7377   14.3557 LP  0  0  0  0  0  0  0  0  0  0  0  0  # atno 16533 bound_to 5324
   -8.7513  -17.0817   12.3076 LP  0  0  0  0  0  0  0  0  0  0  0  0  # atno 16534 bound_to 8371
   -9.7578  -15.9222   11.5059 LP  0  0  0  0  0  0  0  0  0  0  0  0  # atno 16535 bound_to 8371
   -4.4656  -24.9920   11.9674 LP  0  0  0  0  0  0  0  0  0  0  0  0  # atno 16536 bound_to 4570
   -3.2145  -25.7739   11.0599 LP  0  0  0  0  0  0  0  0  0  0  0  0  # atno 16537 bound_to 4570
   -9.4958  -22.9672    9.8863 LP  0  0  0  0  0  0  0  0  0  0  0  0  # atno 16538 bound_to 4515
   -8.3651  -26.0975   10.9851 LP  0  0  0  0  0  0  0  0  0  0  0  0  # atno 16539 bound_to 4518
   -8.4293  -24.8283   12.1619 LP  0  0  0  0  0  0  0  0  0  0  0  0  # atno 16540 bound_to 4518
   -7.3488  -24.7360    9.9159 LP  0  0  0  0  0  0  0  0  0  0  0  0  # atno 16541 bound_to 4567
   -1.2685  -25.0851   18.9426 LP  0  0  0  0  0  0  0  0  0  0  0  0  # atno 16542 bound_to 5228
    0.1363  -25.0252   17.9311 LP  0  0  0  0  0  0  0  0  0  0  0  0  # atno 16543 bound_to 5228
   -0.1297  -27.8444   13.7025 LP  0  0  0  0  0  0  0  0  0  0  0  0  # atno 16544 bound_to 5277
   -1.7443  -27.2349   13.8502 LP  0  0  0  0  0  0  0  0  0  0  0  0  # atno 16545 bound_to 5277
  -10.2943  -21.4539   13.5508 LP  0  0  0  0  0  0  0  0  0  0  0  0  # atno 16548 bound_to 8418
   -9.6674  -20.8843   12.0400 LP  0  0  0  0  0  0  0  0  0  0  0  0  # atno 16549 bound_to 8418
   -0.3949  -26.9668   17.8456 LP  0  0  0  0  0  0  0  0  0  0  0  0  # atno 16550 bound_to 5274
    0.9963  -21.2907   23.9876 LP  0  0  0  0  0  0  0  0  0  0  0  0  # atno 16551 bound_to 2006
   -0.0904  -21.1374   22.6476 LP  0  0  0  0  0  0  0  0  0  0  0  0  # atno 16552 bound_to 2006
  -10.9989  -21.6772   19.4596 LP  0  0  0  0  0  0  0  0  0  0  0  0  # atno 16555 bound_to 8549
   -4.0199  -13.9187   26.2021 LP  0  0  0  0  0  0  0  0  0  0  0  0  # atno 16556 bound_to 1821
   -2.6566  -13.0377   26.8065 LP  0  0  0  0  0  0  0  0  0  0  0  0  # atno 16557 bound_to 1821
   -1.9515  -16.5780   27.3194 LP  0  0  0  0  0  0  0  0  0  0  0  0  # atno 16558 bound_to 1854

> <Gold.Score>
     Fitness  S(hb_ext) S(vdw_ext)  S(hb_int)    S(int)      intcor
     35.70       6.00      21.60       0.00      -0.00      -0.77

> <Gold.Goldscore.Fitness>
35.6965

> <Gold.Goldscore.Internal.Vdw>
-0.3938

> <Gold.Goldscore.Internal.Torsion>
-0.3793

> <Gold.Goldscore.External.Vdw>
21.6016

> <Gold.Goldscore.Internal.HBond>
0.0000

> <Gold.Goldscore.External.HBond>
5.9988

> <Gold.Goldscore.Internal.Correction>
-0.7686

> <Gold.Goldscore.Hbonds>
donor molecule, donor type, donor heavy atom, donor atom, acceptor molecule, acceptor atom, score
      L1  H     8    22       P1  7881  1.00

> <Gold.Goldscore.Internal.Vdw.Weighted>
-0.3938

> <Gold.Goldscore.Internal.Torsion.Weighted>
-0.3793

> <Gold.Goldscore.External.Vdw.Weighted>
29.7021

> <Gold.Goldscore.Internal.HBond.Weighted>
0.0000

> <Gold.Goldscore.External.HBond.Weighted>
5.9988

> <Gold.Goldscore.Internal.Correction.Weighted>
-0.7686

> <Gold.Rescore>
     Score     S(PLP)   S(hbond)     S(cho)   S(metal)  DE(clash)   DE(tors)     intcor
     25.65     -23.55       0.75       0.00       0.00       0.00       0.08       ----

> <Gold.PLP.Fitness>
25.6485

> <Gold.PLP.PLP>
-23.5521

> <Gold.PLP.part.hbond>
-2.9177

> <Gold.PLP.part.metal>
0.0000

> <Gold.PLP.part.buried>
2.3830

> <Gold.PLP.part.nonpolar>
-29.6558

> <Gold.PLP.part.repulsive>
4.0574

> <Gold.PLP.ligand.clash>
0.0000

> <Gold.PLP.ligand.torsion>
0.0798

> <Gold.PLP.Chemscore.Hbond>
0.7520

> <Gold.PLP.Chemscore.CHOScore>
0.0000

> <Gold.PLP.Chemscore.Metal>
0.0000

> <Gold.Chemscore.Hbonds>
donor molecule, donor type, donor heavy atom, donor atom, acceptor molecule, acceptor atom, score
      L1  H     8    22       P1  7881  0.86

> <Gold.PLP.Chemscore.Internal.Correction>
   9.000000E+99

