#       Name:                CT1002167954
#       Creating user name   hitesit
#       Creation time:       Sun Apr 16 22:50:55 2023


#       File generated by GOLD software.
#

@<TRIPOS>MOLECULE
CT1002167954|ligand_prepared|mol2|1|dock6
    29    30     1
SMALL
NO_CHARGES


@<TRIPOS>ATOM
      1 C1          -5.4460 -17.8399  19.2131 C.3            1 RES1               0.0000
      2 C2          -4.2044 -17.0612  18.7327 C.ar           1 RES1               0.0000
      3 C3          -5.2234 -18.1292  20.6947 C.2            1 RES1               0.0000
      4 C4          -6.6473 -16.9455  18.9274 C.2            1 RES1               0.0000
      5 C5          -5.6645 -19.1827  18.4778 C.3            1 RES1               0.0000
      6 C6          -3.7397 -17.2031  17.4286 C.ar           1 RES1               0.0000
      7 C7          -3.5159 -16.1967  19.5797 C.ar           1 RES1               0.0000
      8 N8          -5.9504 -17.4080  21.5954 N.am           1 RES1               0.0000
      9 O9          -4.3942 -18.9497  21.0680 O.2            1 RES1               0.0000
     10 N10         -7.3553 -16.4607  19.9958 N.am           1 RES1               0.0000
     11 O11         -6.9772 -16.6428  17.7874 O.2            1 RES1               0.0000
     12 C12         -6.6980 -20.0819  19.1376 C.3            1 RES1               0.0000
     13 C13         -2.6289 -16.5040  16.9863 C.ar           1 RES1               0.0000
     14 C14         -2.4052 -15.4987  19.1354 C.ar           1 RES1               0.0000
     15 C15         -7.0429 -16.6264  21.3176 C.2            1 RES1               0.0000
     16 C16         -1.9612 -15.6511  17.8391 C.ar           1 RES1               0.0000
     17 O17         -7.6974 -16.1135  22.2208 O.2            1 RES1               0.0000
     18 H18         -5.9831 -18.9741  17.4490 H              1 RES1               0.0000
     19 H19         -4.7086 -19.7190  18.4305 H              1 RES1               0.0000
     20 H20         -4.2508 -17.8716  16.7438 H              1 RES1               0.0000
     21 H21         -3.8466 -16.0620  20.6039 H              1 RES1               0.0000
     22 H22         -5.6543 -17.4540  22.5652 H              1 RES1               0.0000
     23 H23         -8.1929 -15.9269  19.7864 H              1 RES1               0.0000
     24 H24         -6.8125 -21.0102  18.5819 H              1 RES1               0.0000
     25 H25         -6.4005 -20.3301  20.1543 H              1 RES1               0.0000
     26 H26         -7.6675 -19.5897  19.1787 H              1 RES1               0.0000
     27 H27         -2.2827 -16.6285  15.9655 H              1 RES1               0.0000
     28 H28         -1.8824 -14.8290  19.8102 H              1 RES1               0.0000
     29 H29         -1.0913 -15.1032  17.4923 H              1 RES1               0.0000
@<TRIPOS>BOND
    1    1    2 1     
    2    1    3 1     
    3    1    4 1     
    4    1    5 1     
    5    2    6 ar    
    6    2    7 ar    
    7    3    8 1     
    8    3    9 2     
    9    4   10 1     
   10    4   11 2     
   11    5   12 1     
   12    5   18 1     
   13    5   19 1     
   14    6   13 ar    
   15    6   20 1     
   16    7   14 ar    
   17    7   21 1     
   18    8   15 1     
   19    8   22 1     
   20   10   15 1     
   21   10   23 1     
   22   12   24 1     
   23   12   25 1     
   24   12   26 1     
   25   13   16 ar    
   26   13   27 1     
   27   14   16 ar    
   28   14   28 1     
   29   15   17 2     
   30   16   29 1     
@<TRIPOS>SUBSTRUCTURE
      1 RES1           1
@<TRIPOS>SET
DONOR_HYDROGENS      STATIC     ATOMS    <user>   **** ""
2 22 23
ATOM$RED        STATIC     ATOMS    COLORGROUP SYSTEM
2 22 23
@<TRIPOS>COMMENT
> <Gold.Version>
2022.3.0

> <Gold.Id.Protein>
unknown|3mvj_clean|pdb

> <Gold.Protein.RotatedTorsions>
[ 1772 1742 1743 1744 ] final  -52.98 input   69.76 | X-H torsion
[ 1801 1791 1792 1793 ] final   89.52 input  -10.55 | X-H torsion
[ 1839 1818 1819 1820 ] final  133.94 input   43.70 | X-H torsion
[ 2083 2067 2068 2069 ] final   60.37 input   63.04 | X-H torsion
[ 2134 2117 2118 2119 ] final -116.93 input   55.90 | X-H torsion
[ 5632 5617 5618 5619 ] final   49.97 input   93.34 | X-H torsion
[ 7884 7874 7875 7876 ] final  -44.42 input   68.03 | X-H torsion
[ 7924 7916 7917 7918 ] final  143.07 input   66.66 | X-H torsion
[ 8483 8469 8467 8464 ] final   29.06 input   59.99 | X-H torsion
[ 15475 15466 15465 15463 ] final -173.43 input   60.00 | X-H torsion
[ 7991 7973 7974 7975 ] final  104.43 input   84.71 | X-H torsion
[ 8477 8463 8464 8465 ] final -167.24 input   59.21 | X-H torsion
[ 8522 8507 8508 8509 ] final   90.54 input -104.23 | X-H torsion
[ 2822 2803 2804 2805 ] final   87.73 input  103.27 | X-H torsion
[ 2184 2168 2169 2170 ] final -161.94 input  106.62 | X-H torsion
[ 2724 2714 2715 2716 ] final   56.31 input   74.66 | X-H torsion
[ 2767 2750 2751 2752 ] final  -48.47 input   68.39 | X-H torsion
[ 5506 5481 5482 5483 ] final   28.13 input   57.83 | X-H torsion
[ 5596 5586 5587 5588 ] final -112.20 input -104.43 | X-H torsion
[ 5454 5428 5429 5430 ] final  -53.49 input  113.20 | X-H torsion
[ 5462 5439 5438 5436 ] final  -14.64 input   59.99 | X-H torsion
[ 5575 5565 5566 5567 ] final  -57.53 input  101.53 | X-H torsion
[ 5392 5377 5378 5379 ] final -103.23 input  130.34 | X-H torsion
[ 8046 8030 8031 8032 ] final  -25.73 input   72.86 | X-H torsion
[ 2684 2665 2666 2667 ] final  -94.72 input   26.41 | X-H torsion
[ 5342 5324 5325 5326 ] final  -28.26 input   62.58 | X-H torsion
[ 4530 4515 4516 4517 ] final -150.95 input  130.34 | X-H torsion
[ 4589 4567 4568 4569 ] final -131.37 input  104.80 | X-H torsion
[ 5299 5274 5275 5276 ] final -148.57 input   71.10 | X-H torsion
[ 8569 8549 8550 8551 ] final  100.07 input   74.91 | X-H torsion
[ 1864 1854 1855 1856 ] final    6.46 input   57.50 | X-H torsion
[ 15411 15403 15404 15405 ] final  -23.44 input  102.24 | X-H torsion
[ 2884 2867 2868 2869 ] final  -72.30 input   60.34 | X-H torsion
[ 16459 1745 1744 1743 ] final -150.88 input    0.00 | X-H torsion
[ 16462 1794 1793 1792 ] final -104.51 input   -0.00 | X-H torsion
[ 16466 2070 2069 2068 ] final  -86.23 input    0.00 | X-H torsion
[ 16474 7834 7833 7832 ] final    0.64 input    0.00 | X-H torsion
[ 16477 7877 7876 7875 ] final -141.28 input    0.00 | X-H torsion
[ 16486 7919 7918 7917 ] final  121.69 input    0.00 | X-H torsion
[ 16490 8466 8465 8464 ] final  -52.64 input    0.00 | X-H torsion
[ 16495 2717 2716 2715 ] final -143.94 input    0.00 | X-H torsion
[ 16498 5484 5483 5482 ] final  -93.32 input    0.00 | X-H torsion
[ 16500 2120 2119 2118 ] final  -60.97 input    0.00 | X-H torsion
[ 16505 2753 2752 2751 ] final   25.48 input    0.00 | X-H torsion
[ 16507 5380 5379 5378 ] final  123.15 input    0.00 | X-H torsion
[ 16510 1701 1700 1699 ] final   17.54 input   -0.00 | X-H torsion
[ 16513 5589 5588 5587 ] final  -55.59 input    0.00 | X-H torsion
[ 16515 2668 2667 2666 ] final   79.72 input    0.00 | X-H torsion
[ 16517 5327 5326 5325 ] final  -82.22 input   -0.00 | X-H torsion
[ 16520 5431 5430 5429 ] final  -58.40 input    0.00 | X-H torsion
[ 16525 5532 5531 5530 ] final  135.77 input   -0.00 | X-H torsion
[ 16530 8033 8032 8031 ] final   99.07 input    0.00 | X-H torsion
[ 16534 8371 8370 8369 ] final    2.17 input    0.00 | X-H torsion
[ 16536 4570 4569 4568 ] final  125.81 input    0.00 | X-H torsion
[ 16539 4518 4517 4516 ] final   -6.44 input    0.00 | X-H torsion
[ 16542 5228 5227 5226 ] final   42.79 input    0.00 | X-H torsion
[ 16544 5277 5276 5275 ] final   31.53 input    0.00 | X-H torsion
[ 16548 8418 8417 8416 ] final   96.91 input    0.00 | X-H torsion
[ 16551 2006 2005 2004 ] final    5.05 input    0.00 | X-H torsion
[ 16556 1821 1820 1819 ] final -176.60 input    0.00 | X-H torsion

> <Gold.Protein.ActiveResidues>
 THR48   LEU49   GLY50   THR51   GLY52   ARG56   VAL57   MET58   LEU59   TYR69  
 ALA70   MET71   LYS72   ILE73   GLU91   LEU95   VAL104  LYS105  LEU106  MET118 
 VAL119  MET120  GLU121  TYR122  VAL123  PRO124  GLY125  GLY126  GLU127  GLU170 
 ASN171  LEU172  LEU173  ILE174  ASP175  GLN181  VAL182  THR183  ASP184  PHE185 
 ASN326  PHE327  ASP328  TYR330 

> <Gold.Protein.RotatedAtoms>
    3.3169  -14.3716   20.9495 H   0  0  0  0  0  0  0  0  0  0  0  0  # atno 1772 bound_to 1742
    0.6860  -14.8848   20.6490 H   0  0  0  0  0  0  0  0  0  0  0  0  # atno 1801 bound_to 1791
   -0.1559  -13.6832   24.3858 H   0  0  0  0  0  0  0  0  0  0  0  0  # atno 1839 bound_to 1818
   -1.9078  -16.4503   27.4575 H   0  0  0  0  0  0  0  0  0  0  0  0  # atno 1864 bound_to 1854
    0.4015  -17.6410   22.7625 H   0  0  0  0  0  0  0  0  0  0  0  0  # atno 2083 bound_to 2067
    2.0725  -18.5342   20.3583 H   0  0  0  0  0  0  0  0  0  0  0  0  # atno 2134 bound_to 2117
    3.9605  -17.7441   17.3339 H   0  0  0  0  0  0  0  0  0  0  0  0  # atno 2184 bound_to 2168
    4.8000  -21.2217   10.9321 H   0  0  0  0  0  0  0  0  0  0  0  0  # atno 2684 bound_to 2665
    1.3041  -22.2443   13.3672 H   0  0  0  0  0  0  0  0  0  0  0  0  # atno 2724 bound_to 2714
    1.1136  -21.6873   17.0284 H   0  0  0  0  0  0  0  0  0  0  0  0  # atno 2767 bound_to 2750
   -0.3087  -24.0687   19.0816 H   0  0  0  0  0  0  0  0  0  0  0  0  # atno 2822 bound_to 2803
   -0.5222  -23.8277   22.6868 H   0  0  0  0  0  0  0  0  0  0  0  0  # atno 2884 bound_to 2867
   -9.1547  -21.6899   10.1361 H   0  0  0  0  0  0  0  0  0  0  0  0  # atno 4530 bound_to 4515
   -7.3769  -24.7966    9.6208 H   0  0  0  0  0  0  0  0  0  0  0  0  # atno 4589 bound_to 4567
   -0.2103  -27.1085   17.8837 H   0  0  0  0  0  0  0  0  0  0  0  0  # atno 5299 bound_to 5274
    0.3766  -25.0773   14.2494 H   0  0  0  0  0  0  0  0  0  0  0  0  # atno 5342 bound_to 5324
   -0.7788  -24.5167   11.5016 H   0  0  0  0  0  0  0  0  0  0  0  0  # atno 5392 bound_to 5377
   -0.5473  -21.3370   10.3346 H   0  0  0  0  0  0  0  0  0  0  0  0  # atno 5454 bound_to 5428
    2.9420  -13.4245   12.2570 H   0  0  0  0  0  0  0  0  0  0  0  0  # atno 5462 bound_to 5439
   -0.3272  -17.3377   11.1166 H   0  0  0  0  0  0  0  0  0  0  0  0  # atno 5506 bound_to 5481
   -0.2757  -12.2711    9.2896 H   0  0  0  0  0  0  0  0  0  0  0  0  # atno 5575 bound_to 5565
   -1.6801  -11.9015   10.8997 H   0  0  0  0  0  0  0  0  0  0  0  0  # atno 5596 bound_to 5586
   -4.1386   -9.2814   13.7024 H   0  0  0  0  0  0  0  0  0  0  0  0  # atno 5632 bound_to 5617
   -9.7330  -12.3187   16.8775 H   0  0  0  0  0  0  0  0  0  0  0  0  # atno 7884 bound_to 7874
  -11.0357  -13.3452   15.4621 H   0  0  0  0  0  0  0  0  0  0  0  0  # atno 7924 bound_to 7916
   -8.5318  -15.1297   12.3754 H   0  0  0  0  0  0  0  0  0  0  0  0  # atno 7991 bound_to 7973
   -5.9739  -13.4456    9.8468 H   0  0  0  0  0  0  0  0  0  0  0  0  # atno 8046 bound_to 8030
   -9.5812  -19.1247   13.4077 H   0  0  0  0  0  0  0  0  0  0  0  0  # atno 8477 bound_to 8463
   -8.6751  -17.6125   16.4268 H   0  0  0  0  0  0  0  0  0  0  0  0  # atno 8483 bound_to 8469
   -9.6719  -19.6557   17.1404 H   0  0  0  0  0  0  0  0  0  0  0  0  # atno 8522 bound_to 8507
  -10.0911  -23.0447   18.8722 H   0  0  0  0  0  0  0  0  0  0  0  0  # atno 8569 bound_to 8549
    2.0843   -8.4714   17.4227 H   0  0  0  0  0  0  0  0  0  0  0  0  # atno 15411 bound_to 15403
   -2.1179   -9.7569   22.3207 H   0  0  0  0  0  0  0  0  0  0  0  0  # atno 15475 bound_to 15466
    3.4287  -15.5324   19.6446 LP  0  0  0  0  0  0  0  0  0  0  0  0  # atno 16458 bound_to 1742
   -0.8458  -12.5585   20.0800 LP  0  0  0  0  0  0  0  0  0  0  0  0  # atno 16459 bound_to 1745
   -0.3499  -13.1954   18.5475 LP  0  0  0  0  0  0  0  0  0  0  0  0  # atno 16460 bound_to 1745
    1.4585  -13.5177   21.4230 LP  0  0  0  0  0  0  0  0  0  0  0  0  # atno 16461 bound_to 1791
   -0.2692  -16.7181   23.4794 LP  0  0  0  0  0  0  0  0  0  0  0  0  # atno 16462 bound_to 1794
    1.2270  -15.8458   23.4590 LP  0  0  0  0  0  0  0  0  0  0  0  0  # atno 16463 bound_to 1794
   -1.7002  -14.3325   23.8820 LP  0  0  0  0  0  0  0  0  0  0  0  0  # atno 16464 bound_to 1818
    0.3991  -19.3241   23.2523 LP  0  0  0  0  0  0  0  0  0  0  0  0  # atno 16465 bound_to 2067
    1.7981  -16.5111   20.1816 LP  0  0  0  0  0  0  0  0  0  0  0  0  # atno 16466 bound_to 2070
    2.6817  -16.9310   21.6109 LP  0  0  0  0  0  0  0  0  0  0  0  0  # atno 16467 bound_to 2070
    2.4537  -20.1999   19.9794 LP  0  0  0  0  0  0  0  0  0  0  0  0  # atno 16468 bound_to 2117
   -4.1186  -10.9337   13.1213 LP  0  0  0  0  0  0  0  0  0  0  0  0  # atno 16469 bound_to 5617
   -7.2493  -12.3138   18.3121 LP  0  0  0  0  0  0  0  0  0  0  0  0  # atno 16474 bound_to 7834
   -7.8897  -13.7932   17.6789 LP  0  0  0  0  0  0  0  0  0  0  0  0  # atno 16475 bound_to 7834
  -10.7221  -12.7381   18.2515 LP  0  0  0  0  0  0  0  0  0  0  0  0  # atno 16476 bound_to 7874
   -9.9129  -16.1204   14.3775 LP  0  0  0  0  0  0  0  0  0  0  0  0  # atno 16477 bound_to 7877
  -10.8970  -16.5126   15.7479 LP  0  0  0  0  0  0  0  0  0  0  0  0  # atno 16478 bound_to 7877
   -9.3539  -13.8060   15.3629 LP  0  0  0  0  0  0  0  0  0  0  0  0  # atno 16479 bound_to 7916
   -7.7411  -17.2497   15.1444 LP  0  0  0  0  0  0  0  0  0  0  0  0  # atno 16480 bound_to 8469
   -7.0576  -17.5526   16.5961 LP  0  0  0  0  0  0  0  0  0  0  0  0  # atno 16481 bound_to 8469
   -1.7748  -10.9363   21.2534 LP  0  0  0  0  0  0  0  0  0  0  0  0  # atno 16484 bound_to 15466
   -1.3143   -9.3989   20.9519 LP  0  0  0  0  0  0  0  0  0  0  0  0  # atno 16485 bound_to 15466
   -7.7879  -11.8713   13.2714 LP  0  0  0  0  0  0  0  0  0  0  0  0  # atno 16486 bound_to 7919
   -9.2797  -11.3423   12.5680 LP  0  0  0  0  0  0  0  0  0  0  0  0  # atno 16487 bound_to 7919
   -9.0182  -13.4540   12.3771 LP  0  0  0  0  0  0  0  0  0  0  0  0  # atno 16488 bound_to 7973
  -10.5613  -18.3576   14.6397 LP  0  0  0  0  0  0  0  0  0  0  0  0  # atno 16489 bound_to 8463
  -10.6603  -17.8780   16.6551 LP  0  0  0  0  0  0  0  0  0  0  0  0  # atno 16490 bound_to 8466
  -11.6826  -19.1561   17.2221 LP  0  0  0  0  0  0  0  0  0  0  0  0  # atno 16491 bound_to 8466
   -8.7273  -21.1300   17.3004 LP  0  0  0  0  0  0  0  0  0  0  0  0  # atno 16492 bound_to 8507
   -0.1737  -23.5016   16.4977 LP  0  0  0  0  0  0  0  0  0  0  0  0  # atno 16495 bound_to 2717
    0.2756  -23.3841   14.8290 LP  0  0  0  0  0  0  0  0  0  0  0  0  # atno 16496 bound_to 2717
    0.8624  -22.8160   19.4463 LP  0  0  0  0  0  0  0  0  0  0  0  0  # atno 16497 bound_to 2803
   -1.8053  -14.0222   10.8921 LP  0  0  0  0  0  0  0  0  0  0  0  0  # atno 16498 bound_to 5484
   -0.4235  -14.8486   11.5304 LP  0  0  0  0  0  0  0  0  0  0  0  0  # atno 16499 bound_to 5484
    4.0976  -20.9684   17.6370 LP  0  0  0  0  0  0  0  0  0  0  0  0  # atno 16500 bound_to 2120
    3.1148  -19.9917   16.5977 LP  0  0  0  0  0  0  0  0  0  0  0  0  # atno 16501 bound_to 2120
    5.4288  -18.2738   18.1164 LP  0  0  0  0  0  0  0  0  0  0  0  0  # atno 16502 bound_to 2168
    2.7646  -21.2888   13.4550 LP  0  0  0  0  0  0  0  0  0  0  0  0  # atno 16503 bound_to 2714
    2.7981  -22.0117   16.6784 LP  0  0  0  0  0  0  0  0  0  0  0  0  # atno 16504 bound_to 2750
    2.6110  -21.5417   19.7644 LP  0  0  0  0  0  0  0  0  0  0  0  0  # atno 16505 bound_to 2753
    1.7232  -22.1195   21.1348 LP  0  0  0  0  0  0  0  0  0  0  0  0  # atno 16506 bound_to 2753
   -1.4559  -20.5956   12.1372 LP  0  0  0  0  0  0  0  0  0  0  0  0  # atno 16507 bound_to 5380
   -2.5674  -20.8194   10.8277 LP  0  0  0  0  0  0  0  0  0  0  0  0  # atno 16508 bound_to 5380
   -0.7421  -18.6054    9.9840 LP  0  0  0  0  0  0  0  0  0  0  0  0  # atno 16509 bound_to 5481
    5.3938  -12.6533   20.2856 LP  0  0  0  0  0  0  0  0  0  0  0  0  # atno 16510 bound_to 1701
    3.7218  -12.3210   19.9791 LP  0  0  0  0  0  0  0  0  0  0  0  0  # atno 16511 bound_to 1701
   -2.4172  -10.5103   10.1382 LP  0  0  0  0  0  0  0  0  0  0  0  0  # atno 16512 bound_to 5586
   -4.7972  -10.5730   10.5674 LP  0  0  0  0  0  0  0  0  0  0  0  0  # atno 16513 bound_to 5589
   -5.4951  -11.7695   11.6073 LP  0  0  0  0  0  0  0  0  0  0  0  0  # atno 16514 bound_to 5589
    4.3289  -19.9661   13.7117 LP  0  0  0  0  0  0  0  0  0  0  0  0  # atno 16515 bound_to 2668
    4.4353  -21.2044   14.9181 LP  0  0  0  0  0  0  0  0  0  0  0  0  # atno 16516 bound_to 2668
    0.3882  -22.5592   12.8624 LP  0  0  0  0  0  0  0  0  0  0  0  0  # atno 16517 bound_to 5327
    1.0997  -23.9446   12.1046 LP  0  0  0  0  0  0  0  0  0  0  0  0  # atno 16518 bound_to 5327
    1.1722  -21.5851   10.1516 LP  0  0  0  0  0  0  0  0  0  0  0  0  # atno 16519 bound_to 5428
    0.4533  -19.0844    7.9373 LP  0  0  0  0  0  0  0  0  0  0  0  0  # atno 16520 bound_to 5431
   -1.2637  -19.1521    8.1541 LP  0  0  0  0  0  0  0  0  0  0  0  0  # atno 16521 bound_to 5431
    3.4974  -13.2419   10.7386 LP  0  0  0  0  0  0  0  0  0  0  0  0  # atno 16522 bound_to 5439
    4.4972  -13.7634   11.9197 LP  0  0  0  0  0  0  0  0  0  0  0  0  # atno 16523 bound_to 5439
    0.8535  -10.4886    9.3409 LP  0  0  0  0  0  0  0  0  0  0  0  0  # atno 16525 bound_to 5532
    1.2679  -11.6114   10.5929 LP  0  0  0  0  0  0  0  0  0  0  0  0  # atno 16526 bound_to 5532
   -1.3290  -12.8709    8.0256 LP  0  0  0  0  0  0  0  0  0  0  0  0  # atno 16527 bound_to 5565
   -2.3874  -23.8429   11.3858 LP  0  0  0  0  0  0  0  0  0  0  0  0  # atno 16528 bound_to 5377
   -6.8860  -12.0048   10.2418 LP  0  0  0  0  0  0  0  0  0  0  0  0  # atno 16529 bound_to 8030
   -3.6329  -13.0727    8.3752 LP  0  0  0  0  0  0  0  0  0  0  0  0  # atno 16530 bound_to 8033
   -3.8003  -11.6641    7.3813 LP  0  0  0  0  0  0  0  0  0  0  0  0  # atno 16531 bound_to 8033
    5.6729  -22.2443   12.0516 LP  0  0  0  0  0  0  0  0  0  0  0  0  # atno 16532 bound_to 2665
   -0.9592  -25.0577   15.3685 LP  0  0  0  0  0  0  0  0  0  0  0  0  # atno 16533 bound_to 5324
   -8.7804  -16.1135   11.2950 LP  0  0  0  0  0  0  0  0  0  0  0  0  # atno 16534 bound_to 8371
   -9.7287  -16.8905   12.5185 LP  0  0  0  0  0  0  0  0  0  0  0  0  # atno 16535 bound_to 8371
   -4.1840  -25.4227   12.3074 LP  0  0  0  0  0  0  0  0  0  0  0  0  # atno 16536 bound_to 4570
   -3.4961  -25.3431   10.7198 LP  0  0  0  0  0  0  0  0  0  0  0  0  # atno 16537 bound_to 4570
   -9.5644  -23.1665   10.9691 LP  0  0  0  0  0  0  0  0  0  0  0  0  # atno 16538 bound_to 4515
   -8.7175  -24.7463   11.9393 LP  0  0  0  0  0  0  0  0  0  0  0  0  # atno 16539 bound_to 4518
   -8.0769  -26.1796   11.2076 LP  0  0  0  0  0  0  0  0  0  0  0  0  # atno 16540 bound_to 4518
   -5.7630  -24.1689    9.9151 LP  0  0  0  0  0  0  0  0  0  0  0  0  # atno 16541 bound_to 4567
   -0.3885  -25.3049   19.2469 LP  0  0  0  0  0  0  0  0  0  0  0  0  # atno 16542 bound_to 5228
   -0.7437  -24.8053   17.6269 LP  0  0  0  0  0  0  0  0  0  0  0  0  # atno 16543 bound_to 5228
   -0.9872  -28.0333   14.4862 LP  0  0  0  0  0  0  0  0  0  0  0  0  # atno 16544 bound_to 5277
   -0.8868  -27.0461   13.0665 LP  0  0  0  0  0  0  0  0  0  0  0  0  # atno 16545 bound_to 5277
   -9.2256  -20.9178   12.4542 LP  0  0  0  0  0  0  0  0  0  0  0  0  # atno 16548 bound_to 8418
  -10.7361  -21.4204   13.1366 LP  0  0  0  0  0  0  0  0  0  0  0  0  # atno 16549 bound_to 8418
   -1.0073  -27.8776   16.5319 LP  0  0  0  0  0  0  0  0  0  0  0  0  # atno 16550 bound_to 5274
    0.3600  -21.3227   24.1718 LP  0  0  0  0  0  0  0  0  0  0  0  0  # atno 16551 bound_to 2006
    0.5458  -21.1054   22.4635 LP  0  0  0  0  0  0  0  0  0  0  0  0  # atno 16552 bound_to 2006
  -10.9917  -21.6816   19.4809 LP  0  0  0  0  0  0  0  0  0  0  0  0  # atno 16555 bound_to 8549
   -3.9277  -13.8411   27.0247 LP  0  0  0  0  0  0  0  0  0  0  0  0  # atno 16556 bound_to 1821
   -2.7489  -13.1153   25.9839 LP  0  0  0  0  0  0  0  0  0  0  0  0  # atno 16557 bound_to 1821
   -2.8927  -15.6520   26.2438 LP  0  0  0  0  0  0  0  0  0  0  0  0  # atno 16558 bound_to 1854

> <Gold.Score>
     Fitness  S(hb_ext) S(vdw_ext)  S(hb_int)    S(int)      intcor
     33.74       6.00      20.68       0.00      -0.70      -0.76

> <Gold.Goldscore.Fitness>
33.7382

> <Gold.Goldscore.Internal.Vdw>
-0.8603

> <Gold.Goldscore.Internal.Torsion>
-0.6080

> <Gold.Goldscore.External.Vdw>
20.6848

> <Gold.Goldscore.Internal.HBond>
0.0000

> <Gold.Goldscore.External.HBond>
6.0000

> <Gold.Goldscore.Internal.Correction>
-0.7650

> <Gold.Goldscore.Hbonds>
donor molecule, donor type, donor heavy atom, donor atom, acceptor molecule, acceptor atom, score
      L1  H    10    23       P1  7881  1.00

> <Gold.Goldscore.Internal.Vdw.Weighted>
-0.8603

> <Gold.Goldscore.Internal.Torsion.Weighted>
-0.6080

> <Gold.Goldscore.External.Vdw.Weighted>
28.4416

> <Gold.Goldscore.Internal.HBond.Weighted>
0.0000

> <Gold.Goldscore.External.HBond.Weighted>
6.0000

> <Gold.Goldscore.Internal.Correction.Weighted>
-0.7650

> <Gold.Rescore>
     Score     S(PLP)   S(hbond)     S(cho)   S(metal)  DE(clash)   DE(tors)     intcor
     14.36     -13.85       1.00       0.00       0.00       0.00       1.25       ----

> <Gold.PLP.Fitness>
14.3638

> <Gold.PLP.PLP>
-13.8546

> <Gold.PLP.part.hbond>
-2.2064

> <Gold.PLP.part.metal>
0.0000

> <Gold.PLP.part.buried>
6.8708

> <Gold.PLP.part.nonpolar>
-28.1858

> <Gold.PLP.part.repulsive>
4.4250

> <Gold.PLP.ligand.clash>
0.0000

> <Gold.PLP.ligand.torsion>
1.2454

> <Gold.PLP.Chemscore.Hbond>
1.0000

> <Gold.PLP.Chemscore.CHOScore>
0.0000

> <Gold.PLP.Chemscore.Metal>
0.0000

> <Gold.Chemscore.Hbonds>
donor molecule, donor type, donor heavy atom, donor atom, acceptor molecule, acceptor atom, score
      L1  H    10    23       P1  7881  1.00

> <Gold.PLP.Chemscore.Internal.Correction>
   9.000000E+99

