#       Name:                CT1002167954
#       Creating user name   hitesit
#       Creation time:       Sun Apr 16 22:50:59 2023


#       File generated by GOLD software.
#

@<TRIPOS>MOLECULE
CT1002167954|ligand_prepared|mol2|1|dock9
    29    30     1
SMALL
NO_CHARGES


@<TRIPOS>ATOM
      1 C1          -5.0184 -15.7898  20.7661 C.3            1 RES1               0.0000
      2 C2          -4.1391 -15.8017  19.4990 C.ar           1 RES1               0.0000
      3 C3          -4.5476 -14.6040  21.6031 C.2            1 RES1               0.0000
      4 C4          -6.4604 -15.6773  20.2837 C.2            1 RES1               0.0000
      5 C5          -4.8994 -17.0728  21.6213 C.3            1 RES1               0.0000
      6 C6          -3.5364 -14.6329  19.0437 C.ar           1 RES1               0.0000
      7 C7          -3.9198 -16.9722  18.7776 C.ar           1 RES1               0.0000
      8 N8          -5.3506 -13.5026  21.6462 N.am           1 RES1               0.0000
      9 O9          -3.4696 -14.6201  22.1844 O.2            1 RES1               0.0000
     10 N10         -7.1537 -14.5365  20.5928 N.am           1 RES1               0.0000
     11 O11         -6.9971 -16.5592  19.6246 O.2            1 RES1               0.0000
     12 C12         -5.5158 -16.9463  23.0055 C.3            1 RES1               0.0000
     13 C13         -2.7407 -14.6346  17.9101 C.ar           1 RES1               0.0000
     14 C14         -3.1239 -16.9717  17.6439 C.ar           1 RES1               0.0000
     15 C15         -6.6543 -13.4309  21.2258 C.2            1 RES1               0.0000
     16 C16         -2.5336 -15.8039  17.2097 C.ar           1 RES1               0.0000
     17 O17         -7.3249 -12.4210  21.4196 O.2            1 RES1               0.0000
     18 H18         -5.3900 -17.8978  21.0903 H              1 RES1               0.0000
     19 H19         -3.8379 -17.3278  21.7295 H              1 RES1               0.0000
     20 H20         -3.6899 -13.7026  19.5805 H              1 RES1               0.0000
     21 H21         -4.3750 -17.9025  19.1000 H              1 RES1               0.0000
     22 H22         -4.9441 -12.6536  22.0261 H              1 RES1               0.0000
     23 H23         -8.1328 -14.5089  20.3264 H              1 RES1               0.0000
     24 H24         -5.4049 -17.8738  23.5634 H              1 RES1               0.0000
     25 H25         -5.0344 -16.1512  23.5710 H              1 RES1               0.0000
     26 H26         -6.5773 -16.7178  22.9356 H              1 RES1               0.0000
     27 H27         -2.2795 -13.7127  17.5717 H              1 RES1               0.0000
     28 H28         -2.9642 -17.8941  17.0955 H              1 RES1               0.0000
     29 H29         -1.9099 -15.8051  16.3219 H              1 RES1               0.0000
@<TRIPOS>BOND
    1    1    2 1     
    2    1    3 1     
    3    1    4 1     
    4    1    5 1     
    5    2    6 ar    
    6    2    7 ar    
    7    3    8 1     
    8    3    9 2     
    9    4   10 1     
   10    4   11 2     
   11    5   12 1     
   12    5   18 1     
   13    5   19 1     
   14    6   13 ar    
   15    6   20 1     
   16    7   14 ar    
   17    7   21 1     
   18    8   15 1     
   19    8   22 1     
   20   10   15 1     
   21   10   23 1     
   22   12   24 1     
   23   12   25 1     
   24   12   26 1     
   25   13   16 ar    
   26   13   27 1     
   27   14   16 ar    
   28   14   28 1     
   29   15   17 2     
   30   16   29 1     
@<TRIPOS>SUBSTRUCTURE
      1 RES1           1
@<TRIPOS>SET
DONOR_HYDROGENS      STATIC     ATOMS    <user>   **** ""
2 22 23
ATOM$RED        STATIC     ATOMS    COLORGROUP SYSTEM
2 22 23
@<TRIPOS>COMMENT
> <Gold.Version>
2022.3.0

> <Gold.Id.Protein>
unknown|3mvj_clean|pdb

> <Gold.Protein.RotatedTorsions>
[ 1772 1742 1743 1744 ] final   58.51 input   69.76 | X-H torsion
[ 1801 1791 1792 1793 ] final   28.83 input  -10.55 | X-H torsion
[ 1839 1818 1819 1820 ] final   12.76 input   43.70 | X-H torsion
[ 2083 2067 2068 2069 ] final   -7.27 input   63.04 | X-H torsion
[ 2134 2117 2118 2119 ] final   69.96 input   55.90 | X-H torsion
[ 5632 5617 5618 5619 ] final   27.25 input   93.34 | X-H torsion
[ 7884 7874 7875 7876 ] final  -82.43 input   68.03 | X-H torsion
[ 7924 7916 7917 7918 ] final   45.57 input   66.66 | X-H torsion
[ 8483 8469 8467 8464 ] final -172.04 input   59.99 | X-H torsion
[ 15475 15466 15465 15463 ] final  -13.12 input   60.00 | X-H torsion
[ 7991 7973 7974 7975 ] final    0.33 input   84.71 | X-H torsion
[ 8477 8463 8464 8465 ] final -122.19 input   59.21 | X-H torsion
[ 8522 8507 8508 8509 ] final   33.58 input -104.23 | X-H torsion
[ 2822 2803 2804 2805 ] final   34.37 input  103.27 | X-H torsion
[ 2184 2168 2169 2170 ] final  123.50 input  106.62 | X-H torsion
[ 2724 2714 2715 2716 ] final  163.25 input   74.66 | X-H torsion
[ 2767 2750 2751 2752 ] final  -10.36 input   68.39 | X-H torsion
[ 5506 5481 5482 5483 ] final   28.30 input   57.83 | X-H torsion
[ 5596 5586 5587 5588 ] final  -70.68 input -104.43 | X-H torsion
[ 5454 5428 5429 5430 ] final  -94.93 input  113.20 | X-H torsion
[ 5462 5439 5438 5436 ] final   58.58 input   59.99 | X-H torsion
[ 5575 5565 5566 5567 ] final  -34.88 input  101.53 | X-H torsion
[ 5392 5377 5378 5379 ] final   62.84 input  130.34 | X-H torsion
[ 8046 8030 8031 8032 ] final -145.11 input   72.86 | X-H torsion
[ 2684 2665 2666 2667 ] final  -46.72 input   26.41 | X-H torsion
[ 5342 5324 5325 5326 ] final -135.71 input   62.58 | X-H torsion
[ 4530 4515 4516 4517 ] final -160.76 input  130.34 | X-H torsion
[ 4589 4567 4568 4569 ] final  -38.64 input  104.80 | X-H torsion
[ 5299 5274 5275 5276 ] final  125.95 input   71.10 | X-H torsion
[ 8569 8549 8550 8551 ] final  166.32 input   74.91 | X-H torsion
[ 1864 1854 1855 1856 ] final -143.60 input   57.50 | X-H torsion
[ 15411 15403 15404 15405 ] final   41.77 input  102.24 | X-H torsion
[ 2884 2867 2868 2869 ] final  -98.56 input   60.34 | X-H torsion
[ 16459 1745 1744 1743 ] final  -57.66 input    0.00 | X-H torsion
[ 16462 1794 1793 1792 ] final   57.66 input   -0.00 | X-H torsion
[ 16466 2070 2069 2068 ] final   92.81 input    0.00 | X-H torsion
[ 16474 7834 7833 7832 ] final  -54.84 input    0.00 | X-H torsion
[ 16477 7877 7876 7875 ] final   47.81 input    0.00 | X-H torsion
[ 16486 7919 7918 7917 ] final   92.81 input    0.00 | X-H torsion
[ 16490 8466 8465 8464 ] final -136.41 input    0.00 | X-H torsion
[ 16495 2717 2716 2715 ] final   78.75 input    0.00 | X-H torsion
[ 16498 5484 5483 5482 ] final -177.19 input    0.00 | X-H torsion
[ 16500 2120 2119 2118 ] final  178.59 input    0.00 | X-H torsion
[ 16505 2753 2752 2751 ] final  125.16 input    0.00 | X-H torsion
[ 16507 5380 5379 5378 ] final   97.03 input    0.00 | X-H torsion
[ 16510 1701 1700 1699 ] final  -19.69 input   -0.00 | X-H torsion
[ 16513 5589 5588 5587 ] final  -11.25 input    0.00 | X-H torsion
[ 16515 2668 2667 2666 ] final  -56.25 input    0.00 | X-H torsion
[ 16517 5327 5326 5325 ] final -115.31 input   -0.00 | X-H torsion
[ 16520 5431 5430 5429 ] final  142.03 input    0.00 | X-H torsion
[ 16525 5532 5531 5530 ] final  137.81 input   -0.00 | X-H torsion
[ 16530 8033 8032 8031 ] final  -85.78 input    0.00 | X-H torsion
[ 16534 8371 8370 8369 ] final  -32.34 input    0.00 | X-H torsion
[ 16536 4570 4569 4568 ] final  108.28 input    0.00 | X-H torsion
[ 16539 4518 4517 4516 ] final -133.59 input    0.00 | X-H torsion
[ 16542 5228 5227 5226 ] final   71.72 input    0.00 | X-H torsion
[ 16544 5277 5276 5275 ] final -161.72 input    0.00 | X-H torsion
[ 16548 8418 8417 8416 ] final   19.69 input    0.00 | X-H torsion
[ 16551 2006 2005 2004 ] final  143.44 input    0.00 | X-H torsion
[ 16556 1821 1820 1819 ] final   28.12 input    0.00 | X-H torsion

> <Gold.Protein.ActiveResidues>
 THR48   LEU49   GLY50   THR51   GLY52   ARG56   VAL57   MET58   LEU59   TYR69  
 ALA70   MET71   LYS72   ILE73   GLU91   LEU95   VAL104  LYS105  LEU106  MET118 
 VAL119  MET120  GLU121  TYR122  VAL123  PRO124  GLY125  GLY126  GLU127  GLU170 
 ASN171  LEU172  LEU173  ILE174  ASP175  GLN181  VAL182  THR183  ASP184  PHE185 
 ASN326  PHE327  ASP328  TYR330 

> <Gold.Protein.RotatedAtoms>
    2.7947  -15.6279   20.3928 H   0  0  0  0  0  0  0  0  0  0  0  0  # atno 1772 bound_to 1742
    1.1973  -15.0052   21.3792 H   0  0  0  0  0  0  0  0  0  0  0  0  # atno 1801 bound_to 1791
   -1.6987  -13.6018   24.3344 H   0  0  0  0  0  0  0  0  0  0  0  0  # atno 1839 bound_to 1818
   -2.7752  -15.2917   26.4994 H   0  0  0  0  0  0  0  0  0  0  0  0  # atno 1864 bound_to 1854
    1.2255  -18.1555   22.9819 H   0  0  0  0  0  0  0  0  0  0  0  0  # atno 2083 bound_to 2067
    2.5238  -20.2262   20.0617 H   0  0  0  0  0  0  0  0  0  0  0  0  # atno 2134 bound_to 2117
    4.8060  -17.1466   17.5949 H   0  0  0  0  0  0  0  0  0  0  0  0  # atno 2184 bound_to 2168
    4.9692  -20.8977   11.5553 H   0  0  0  0  0  0  0  0  0  0  0  0  # atno 2684 bound_to 2665
    1.8663  -20.9851   13.0271 H   0  0  0  0  0  0  0  0  0  0  0  0  # atno 2724 bound_to 2714
    1.4458  -21.3841   17.3967 H   0  0  0  0  0  0  0  0  0  0  0  0  # atno 2767 bound_to 2750
    0.3478  -24.2952   19.4863 H   0  0  0  0  0  0  0  0  0  0  0  0  # atno 2822 bound_to 2803
   -0.2335  -23.9715   22.4434 H   0  0  0  0  0  0  0  0  0  0  0  0  # atno 2884 bound_to 2867
   -9.1401  -21.6316   10.2735 H   0  0  0  0  0  0  0  0  0  0  0  0  # atno 4530 bound_to 4515
   -6.6339  -24.5555   10.6661 H   0  0  0  0  0  0  0  0  0  0  0  0  # atno 4589 bound_to 4567
    0.0277  -28.1032   17.2566 H   0  0  0  0  0  0  0  0  0  0  0  0  # atno 5299 bound_to 5274
   -0.6010  -25.8845   14.8669 H   0  0  0  0  0  0  0  0  0  0  0  0  # atno 5342 bound_to 5324
   -2.3299  -23.6933   11.5263 H   0  0  0  0  0  0  0  0  0  0  0  0  # atno 5392 bound_to 5377
   -0.2880  -21.4980   10.8795 H   0  0  0  0  0  0  0  0  0  0  0  0  # atno 5454 bound_to 5428
    3.9896  -13.7487   12.4660 H   0  0  0  0  0  0  0  0  0  0  0  0  # atno 5462 bound_to 5439
   -0.3293  -17.3382   11.1180 H   0  0  0  0  0  0  0  0  0  0  0  0  # atno 5506 bound_to 5481
   -0.5406  -12.4021    9.4773 H   0  0  0  0  0  0  0  0  0  0  0  0  # atno 5575 bound_to 5565
   -2.2766  -12.0228   10.7440 H   0  0  0  0  0  0  0  0  0  0  0  0  # atno 5596 bound_to 5586
   -4.2391   -9.2386   13.3684 H   0  0  0  0  0  0  0  0  0  0  0  0  # atno 5632 bound_to 5617
   -9.3978  -12.3817   17.3358 H   0  0  0  0  0  0  0  0  0  0  0  0  # atno 7884 bound_to 7874
   -9.8501  -12.7676   15.3188 H   0  0  0  0  0  0  0  0  0  0  0  0  # atno 7924 bound_to 7916
   -9.1878  -14.1818   11.6069 H   0  0  0  0  0  0  0  0  0  0  0  0  # atno 7991 bound_to 7973
   -7.3257  -12.7489   10.0567 H   0  0  0  0  0  0  0  0  0  0  0  0  # atno 8046 bound_to 8030
  -10.1511  -19.4750   13.5441 H   0  0  0  0  0  0  0  0  0  0  0  0  # atno 8477 bound_to 8463
   -6.8936  -17.4059   16.0104 H   0  0  0  0  0  0  0  0  0  0  0  0  # atno 8483 bound_to 8469
  -10.0507  -20.4085   16.9563 H   0  0  0  0  0  0  0  0  0  0  0  0  # atno 8522 bound_to 8507
  -10.6132  -22.4701   18.3117 H   0  0  0  0  0  0  0  0  0  0  0  0  # atno 8569 bound_to 8549
    1.4508   -8.9231   17.9741 H   0  0  0  0  0  0  0  0  0  0  0  0  # atno 15411 bound_to 15403
   -1.2857   -9.9907   20.6912 H   0  0  0  0  0  0  0  0  0  0  0  0  # atno 15475 bound_to 15466
    3.9343  -14.3164   20.1834 LP  0  0  0  0  0  0  0  0  0  0  0  0  # atno 16458 bound_to 1742
   -0.0836  -12.2011   19.1443 LP  0  0  0  0  0  0  0  0  0  0  0  0  # atno 16459 bound_to 1745
   -1.1121  -13.5528   19.4833 LP  0  0  0  0  0  0  0  0  0  0  0  0  # atno 16460 bound_to 1745
    0.9644  -13.4013   20.7173 LP  0  0  0  0  0  0  0  0  0  0  0  0  # atno 16461 bound_to 1791
    1.1886  -15.8688   23.1943 LP  0  0  0  0  0  0  0  0  0  0  0  0  # atno 16462 bound_to 1794
   -0.2309  -16.6950   23.7442 LP  0  0  0  0  0  0  0  0  0  0  0  0  # atno 16463 bound_to 1794
   -0.2012  -14.4116   23.9319 LP  0  0  0  0  0  0  0  0  0  0  0  0  # atno 16464 bound_to 1818
   -0.3911  -18.8307   23.0419 LP  0  0  0  0  0  0  0  0  0  0  0  0  # atno 16465 bound_to 2067
    2.6695  -16.9296   21.6187 LP  0  0  0  0  0  0  0  0  0  0  0  0  # atno 16466 bound_to 2070
    1.8103  -16.5124   20.1739 LP  0  0  0  0  0  0  0  0  0  0  0  0  # atno 16467 bound_to 2070
    2.0173  -18.5633   20.2663 LP  0  0  0  0  0  0  0  0  0  0  0  0  # atno 16468 bound_to 2117
   -4.0217  -10.9750   13.4432 LP  0  0  0  0  0  0  0  0  0  0  0  0  # atno 16469 bound_to 5617
   -7.2320  -12.4185   17.5130 LP  0  0  0  0  0  0  0  0  0  0  0  0  # atno 16474 bound_to 7834
   -7.9070  -13.6885   18.4780 LP  0  0  0  0  0  0  0  0  0  0  0  0  # atno 16475 bound_to 7834
  -11.0535  -12.6758   17.7985 LP  0  0  0  0  0  0  0  0  0  0  0  0  # atno 16476 bound_to 7874
  -11.0022  -16.4702   15.6707 LP  0  0  0  0  0  0  0  0  0  0  0  0  # atno 16477 bound_to 7877
   -9.8077  -16.1629   14.4547 LP  0  0  0  0  0  0  0  0  0  0  0  0  # atno 16478 bound_to 7877
  -10.5156  -14.3718   15.5033 LP  0  0  0  0  0  0  0  0  0  0  0  0  # atno 16479 bound_to 7916
   -8.2438  -17.6902   16.8734 LP  0  0  0  0  0  0  0  0  0  0  0  0  # atno 16480 bound_to 8469
   -8.3487  -17.3201   15.2864 LP  0  0  0  0  0  0  0  0  0  0  0  0  # atno 16481 bound_to 8469
   -1.8594   -9.2458   22.0192 LP  0  0  0  0  0  0  0  0  0  0  0  0  # atno 16484 bound_to 15466
   -2.0678  -10.8540   21.8273 LP  0  0  0  0  0  0  0  0  0  0  0  0  # atno 16485 bound_to 15466
   -8.0515  -11.8135   13.6086 LP  0  0  0  0  0  0  0  0  0  0  0  0  # atno 16486 bound_to 7919
   -9.0162  -11.4002   12.2307 LP  0  0  0  0  0  0  0  0  0  0  0  0  # atno 16487 bound_to 7919
   -8.3714  -14.3888   13.1350 LP  0  0  0  0  0  0  0  0  0  0  0  0  # atno 16488 bound_to 7973
  -10.0113  -18.0196   14.5080 LP  0  0  0  0  0  0  0  0  0  0  0  0  # atno 16489 bound_to 8463
  -10.8565  -18.2972   17.7148 LP  0  0  0  0  0  0  0  0  0  0  0  0  # atno 16490 bound_to 8466
  -11.4864  -18.7369   16.1624 LP  0  0  0  0  0  0  0  0  0  0  0  0  # atno 16491 bound_to 8466
   -8.3703  -20.4204   17.4739 LP  0  0  0  0  0  0  0  0  0  0  0  0  # atno 16492 bound_to 8507
    0.6267  -23.8115   15.1317 LP  0  0  0  0  0  0  0  0  0  0  0  0  # atno 16495 bound_to 2717
   -0.5248  -23.0743   16.1950 LP  0  0  0  0  0  0  0  0  0  0  0  0  # atno 16496 bound_to 2717
    0.2332  -22.5989   19.0584 LP  0  0  0  0  0  0  0  0  0  0  0  0  # atno 16497 bound_to 2803
   -0.6777  -13.7614   10.8871 LP  0  0  0  0  0  0  0  0  0  0  0  0  # atno 16498 bound_to 5484
   -1.5511  -15.1093   11.5354 LP  0  0  0  0  0  0  0  0  0  0  0  0  # atno 16499 bound_to 5484
    3.9174  -20.1928   16.3619 LP  0  0  0  0  0  0  0  0  0  0  0  0  # atno 16500 bound_to 2120
    3.2951  -20.7674   17.8728 LP  0  0  0  0  0  0  0  0  0  0  0  0  # atno 16501 bound_to 2120
    4.5992  -18.8600   17.8603 LP  0  0  0  0  0  0  0  0  0  0  0  0  # atno 16502 bound_to 2168
    2.2151  -22.5194   13.7875 LP  0  0  0  0  0  0  0  0  0  0  0  0  # atno 16503 bound_to 2714
    2.4770  -22.3048   16.3223 LP  0  0  0  0  0  0  0  0  0  0  0  0  # atno 16504 bound_to 2750
    1.5029  -21.2750   20.4376 LP  0  0  0  0  0  0  0  0  0  0  0  0  # atno 16505 bound_to 2753
    2.8313  -22.3862   20.4616 LP  0  0  0  0  0  0  0  0  0  0  0  0  # atno 16506 bound_to 2753
   -1.6239  -20.9389   12.2214 LP  0  0  0  0  0  0  0  0  0  0  0  0  # atno 16507 bound_to 5380
   -2.3993  -20.4761   10.7434 LP  0  0  0  0  0  0  0  0  0  0  0  0  # atno 16508 bound_to 5380
   -0.7400  -18.6049    9.9826 LP  0  0  0  0  0  0  0  0  0  0  0  0  # atno 16509 bound_to 5481
    5.1529  -12.5071   20.7612 LP  0  0  0  0  0  0  0  0  0  0  0  0  # atno 16510 bound_to 1701
    3.9627  -12.4673   19.5035 LP  0  0  0  0  0  0  0  0  0  0  0  0  # atno 16511 bound_to 1701
   -1.8367  -10.3923   10.2897 LP  0  0  0  0  0  0  0  0  0  0  0  0  # atno 16512 bound_to 5586
   -4.4682  -11.1374   10.5496 LP  0  0  0  0  0  0  0  0  0  0  0  0  # atno 16513 bound_to 5589
   -5.8241  -11.2050   11.6252 LP  0  0  0  0  0  0  0  0  0  0  0  0  # atno 16514 bound_to 5589
    4.8497  -21.3053   14.4285 LP  0  0  0  0  0  0  0  0  0  0  0  0  # atno 16515 bound_to 2668
    3.9144  -19.8653   14.2013 LP  0  0  0  0  0  0  0  0  0  0  0  0  # atno 16516 bound_to 2668
    0.4185  -22.4559   12.3810 LP  0  0  0  0  0  0  0  0  0  0  0  0  # atno 16517 bound_to 5327
    1.0694  -24.0479   12.5860 LP  0  0  0  0  0  0  0  0  0  0  0  0  # atno 16518 bound_to 5327
    0.9184  -21.4275    9.6181 LP  0  0  0  0  0  0  0  0  0  0  0  0  # atno 16519 bound_to 5428
   -1.2302  -18.8566    8.0771 LP  0  0  0  0  0  0  0  0  0  0  0  0  # atno 16520 bound_to 5431
    0.4198  -19.3799    8.0143 LP  0  0  0  0  0  0  0  0  0  0  0  0  # atno 16521 bound_to 5431
    2.7395  -13.2194   11.5691 LP  0  0  0  0  0  0  0  0  0  0  0  0  # atno 16522 bound_to 5439
    4.1998  -13.4593   10.8787 LP  0  0  0  0  0  0  0  0  0  0  0  0  # atno 16523 bound_to 5439
    0.8279  -10.4813    9.3567 LP  0  0  0  0  0  0  0  0  0  0  0  0  # atno 16525 bound_to 5532
    1.2935  -11.6187   10.5771 LP  0  0  0  0  0  0  0  0  0  0  0  0  # atno 16526 bound_to 5532
   -1.0735  -12.7446    7.8446 LP  0  0  0  0  0  0  0  0  0  0  0  0  # atno 16527 bound_to 5565
   -0.8740  -24.6463   11.3618 LP  0  0  0  0  0  0  0  0  0  0  0  0  # atno 16528 bound_to 5377
   -5.5767  -12.6796   10.0384 LP  0  0  0  0  0  0  0  0  0  0  0  0  # atno 16529 bound_to 8030
   -3.7727  -11.7036    7.3261 LP  0  0  0  0  0  0  0  0  0  0  0  0  # atno 16530 bound_to 8033
   -3.6605  -13.0331    8.4305 LP  0  0  0  0  0  0  0  0  0  0  0  0  # atno 16531 bound_to 8033
    5.5087  -22.5586   11.4470 LP  0  0  0  0  0  0  0  0  0  0  0  0  # atno 16532 bound_to 2665
    0.0109  -24.2566   14.7557 LP  0  0  0  0  0  0  0  0  0  0  0  0  # atno 16533 bound_to 5324
   -8.4767  -16.4557   11.5288 LP  0  0  0  0  0  0  0  0  0  0  0  0  # atno 16534 bound_to 8371
  -10.0324  -16.5483   12.2847 LP  0  0  0  0  0  0  0  0  0  0  0  0  # atno 16535 bound_to 8371
   -4.3349  -25.2305   12.2078 LP  0  0  0  0  0  0  0  0  0  0  0  0  # atno 16536 bound_to 4570
   -3.3452  -25.5353   10.8194 LP  0  0  0  0  0  0  0  0  0  0  0  0  # atno 16537 bound_to 4570
   -9.5788  -23.2242   10.8333 LP  0  0  0  0  0  0  0  0  0  0  0  0  # atno 16538 bound_to 4515
   -7.7144  -25.9250   11.8385 LP  0  0  0  0  0  0  0  0  0  0  0  0  # atno 16539 bound_to 4518
   -9.0800  -25.0008   11.3085 LP  0  0  0  0  0  0  0  0  0  0  0  0  # atno 16540 bound_to 4518
   -6.4670  -24.3973    8.9247 LP  0  0  0  0  0  0  0  0  0  0  0  0  # atno 16541 bound_to 4567
   -0.0054  -25.3092   19.0460 LP  0  0  0  0  0  0  0  0  0  0  0  0  # atno 16542 bound_to 5228
   -1.1268  -24.8010   17.8277 LP  0  0  0  0  0  0  0  0  0  0  0  0  # atno 16543 bound_to 5228
   -1.0746  -26.9978   13.1149 LP  0  0  0  0  0  0  0  0  0  0  0  0  # atno 16544 bound_to 5277
   -0.7994  -28.0815   14.4378 LP  0  0  0  0  0  0  0  0  0  0  0  0  # atno 16545 bound_to 5277
  -10.1952  -20.9720   11.9798 LP  0  0  0  0  0  0  0  0  0  0  0  0  # atno 16548 bound_to 8418
   -9.7665  -21.3662   13.6111 LP  0  0  0  0  0  0  0  0  0  0  0  0  # atno 16549 bound_to 8418
   -1.2399  -26.9055   17.1448 LP  0  0  0  0  0  0  0  0  0  0  0  0  # atno 16550 bound_to 5274
   -0.0494  -21.1330   22.6168 LP  0  0  0  0  0  0  0  0  0  0  0  0  # atno 16551 bound_to 2006
    0.9552  -21.2951   24.0184 LP  0  0  0  0  0  0  0  0  0  0  0  0  # atno 16552 bound_to 2006
  -10.4749  -22.2503   20.0357 LP  0  0  0  0  0  0  0  0  0  0  0  0  # atno 16555 bound_to 8549
   -2.9836  -13.2701   25.7422 LP  0  0  0  0  0  0  0  0  0  0  0  0  # atno 16556 bound_to 1821
   -3.6930  -13.6863   27.2665 LP  0  0  0  0  0  0  0  0  0  0  0  0  # atno 16557 bound_to 1821
   -2.0661  -16.7563   27.1569 LP  0  0  0  0  0  0  0  0  0  0  0  0  # atno 16558 bound_to 1854

> <Gold.Score>
     Fitness  S(hb_ext) S(vdw_ext)  S(hb_int)    S(int)      intcor
     26.90       5.89      15.97       0.00      -0.95      -0.76

> <Gold.Goldscore.Fitness>
26.8989

> <Gold.Goldscore.Internal.Vdw>
-1.0950

> <Gold.Goldscore.Internal.Torsion>
-0.6207

> <Gold.Goldscore.External.Vdw>
15.9698

> <Gold.Goldscore.Internal.HBond>
0.0000

> <Gold.Goldscore.External.HBond>
5.8911

> <Gold.Goldscore.Internal.Correction>
-0.7650

> <Gold.Goldscore.Hbonds>
donor molecule, donor type, donor heavy atom, donor atom, acceptor molecule, acceptor atom, score
      L1  H    10    23       P1  7881  0.98

> <Gold.Goldscore.Internal.Vdw.Weighted>
-1.0950

> <Gold.Goldscore.Internal.Torsion.Weighted>
-0.6207

> <Gold.Goldscore.External.Vdw.Weighted>
21.9585

> <Gold.Goldscore.Internal.HBond.Weighted>
0.0000

> <Gold.Goldscore.External.HBond.Weighted>
5.8911

> <Gold.Goldscore.Internal.Correction.Weighted>
-0.7650

> <Gold.Rescore>
     Score     S(PLP)   S(hbond)     S(cho)   S(metal)  DE(clash)   DE(tors)     intcor
     33.91     -33.71       0.90       0.00       0.00       2.00       0.24       ----

> <Gold.PLP.Fitness>
33.9100

> <Gold.PLP.PLP>
-33.7095

> <Gold.PLP.part.hbond>
-3.0000

> <Gold.PLP.part.metal>
0.0000

> <Gold.PLP.part.buried>
-5.0200

> <Gold.PLP.part.nonpolar>
-26.6758

> <Gold.PLP.part.repulsive>
0.5345

> <Gold.PLP.ligand.clash>
2.0026

> <Gold.PLP.ligand.torsion>
0.2425

> <Gold.PLP.Chemscore.Hbond>
0.8960

> <Gold.PLP.Chemscore.CHOScore>
0.0000

> <Gold.PLP.Chemscore.Metal>
0.0000

> <Gold.Chemscore.Hbonds>
donor molecule, donor type, donor heavy atom, donor atom, acceptor molecule, acceptor atom, score
      L1  H    10    23       P1  7881  1.00

> <Gold.PLP.Chemscore.Internal.Correction>
   9.000000E+99

