#       Name:                CT1002167954
#       Creating user name   hitesit
#       Creation time:       Sun Apr 16 22:50:54 2023


#       File generated by GOLD software.
#

@<TRIPOS>MOLECULE
CT1002167954|ligand_prepared|mol2|1|dock5
    29    30     1
SMALL
NO_CHARGES


@<TRIPOS>ATOM
      1 C1          -4.5136 -16.7585  18.2536 C.3            1 RES1               0.0000
      2 C2          -3.9221 -17.6657  17.1555 C.ar           1 RES1               0.0000
      3 C3          -5.3682 -15.7181  17.5356 C.2            1 RES1               0.0000
      4 C4          -5.3001 -17.6740  19.1853 C.2            1 RES1               0.0000
      5 C5          -3.4471 -16.0212  19.0965 C.3            1 RES1               0.0000
      6 C6          -4.4582 -18.9269  16.9134 C.ar           1 RES1               0.0000
      7 C7          -2.8441 -17.2548  16.3759 C.ar           1 RES1               0.0000
      8 N8          -6.7233 -15.8480  17.6176 N.am           1 RES1               0.0000
      9 O9          -4.8608 -14.8203  16.8748 O.2            1 RES1               0.0000
     10 N10         -6.6598 -17.5143  19.2452 N.am           1 RES1               0.0000
     11 O11         -4.7566 -18.5432  19.8557 O.2            1 RES1               0.0000
     12 C12         -4.0034 -15.3622  20.3488 C.3            1 RES1               0.0000
     13 C13         -3.9374 -19.7466  15.9258 C.ar           1 RES1               0.0000
     14 C14         -2.3247 -18.0761  15.3890 C.ar           1 RES1               0.0000
     15 C15         -7.4104 -16.6634  18.4805 C.2            1 RES1               0.0000
     16 C16         -2.8707 -19.3217  15.1627 C.ar           1 RES1               0.0000
     17 O17         -8.6350 -16.6157  18.5530 O.2            1 RES1               0.0000
     18 H18         -2.6711 -16.7388  19.3902 H              1 RES1               0.0000
     19 H19         -2.9741 -15.2523  18.4733 H              1 RES1               0.0000
     20 H20         -5.2962 -19.2794  17.5055 H              1 RES1               0.0000
     21 H21         -2.3978 -16.2794  16.5370 H              1 RES1               0.0000
     22 H22         -7.2770 -15.2870  16.9780 H              1 RES1               0.0000
     23 H23         -7.1585 -18.0824  19.9226 H              1 RES1               0.0000
     24 H24         -3.2139 -14.8592  20.9033 H              1 RES1               0.0000
     25 H25         -4.7605 -14.6240  20.0924 H              1 RES1               0.0000
     26 H26         -4.4593 -16.1017  21.0039 H              1 RES1               0.0000
     27 H27         -4.3699 -20.7265  15.7526 H              1 RES1               0.0000
     28 H28         -1.4847 -17.7379  14.7913 H              1 RES1               0.0000
     29 H29         -2.4632 -19.9638  14.3889 H              1 RES1               0.0000
@<TRIPOS>BOND
    1    1    2 1     
    2    1    3 1     
    3    1    4 1     
    4    1    5 1     
    5    2    6 ar    
    6    2    7 ar    
    7    3    8 1     
    8    3    9 2     
    9    4   10 1     
   10    4   11 2     
   11    5   12 1     
   12    5   18 1     
   13    5   19 1     
   14    6   13 ar    
   15    6   20 1     
   16    7   14 ar    
   17    7   21 1     
   18    8   15 1     
   19    8   22 1     
   20   10   15 1     
   21   10   23 1     
   22   12   24 1     
   23   12   25 1     
   24   12   26 1     
   25   13   16 ar    
   26   13   27 1     
   27   14   16 ar    
   28   14   28 1     
   29   15   17 2     
   30   16   29 1     
@<TRIPOS>SUBSTRUCTURE
      1 RES1           1
@<TRIPOS>SET
DONOR_HYDROGENS      STATIC     ATOMS    <user>   **** ""
2 22 23
ATOM$RED        STATIC     ATOMS    COLORGROUP SYSTEM
2 22 23
@<TRIPOS>COMMENT
> <Gold.Version>
2022.3.0

> <Gold.Id.Protein>
unknown|3mvj_clean|pdb

> <Gold.Protein.RotatedTorsions>
[ 1772 1742 1743 1744 ] final   -1.87 input   69.76 | X-H torsion
[ 1801 1791 1792 1793 ] final   53.67 input  -10.55 | X-H torsion
[ 1839 1818 1819 1820 ] final -161.38 input   43.70 | X-H torsion
[ 2083 2067 2068 2069 ] final    5.51 input   63.04 | X-H torsion
[ 2134 2117 2118 2119 ] final  -56.72 input   55.90 | X-H torsion
[ 5632 5617 5618 5619 ] final  128.76 input   93.34 | X-H torsion
[ 7884 7874 7875 7876 ] final -141.32 input   68.03 | X-H torsion
[ 7924 7916 7917 7918 ] final  146.91 input   66.66 | X-H torsion
[ 8483 8469 8467 8464 ] final -153.00 input   59.99 | X-H torsion
[ 15475 15466 15465 15463 ] final  -92.08 input   60.00 | X-H torsion
[ 7991 7973 7974 7975 ] final -154.40 input   84.71 | X-H torsion
[ 8477 8463 8464 8465 ] final   29.93 input   59.21 | X-H torsion
[ 8522 8507 8508 8509 ] final -170.48 input -104.23 | X-H torsion
[ 2822 2803 2804 2805 ] final  -53.89 input  103.27 | X-H torsion
[ 2184 2168 2169 2170 ] final   -6.93 input  106.62 | X-H torsion
[ 2724 2714 2715 2716 ] final  144.96 input   74.66 | X-H torsion
[ 2767 2750 2751 2752 ] final  110.81 input   68.39 | X-H torsion
[ 5506 5481 5482 5483 ] final -144.51 input   57.83 | X-H torsion
[ 5596 5586 5587 5588 ] final -108.36 input -104.43 | X-H torsion
[ 5454 5428 5429 5430 ] final  151.58 input  113.20 | X-H torsion
[ 5462 5439 5438 5436 ] final  -46.45 input   59.99 | X-H torsion
[ 5575 5565 5566 5567 ] final  -62.59 input  101.53 | X-H torsion
[ 5392 5377 5378 5379 ] final   19.66 input  130.34 | X-H torsion
[ 8046 8030 8031 8032 ] final   60.30 input   72.86 | X-H torsion
[ 2684 2665 2666 2667 ] final  -78.47 input   26.41 | X-H torsion
[ 5342 5324 5325 5326 ] final  101.39 input   62.58 | X-H torsion
[ 4530 4515 4516 4517 ] final  -60.17 input  130.34 | X-H torsion
[ 4589 4567 4568 4569 ] final  173.08 input  104.80 | X-H torsion
[ 5299 5274 5275 5276 ] final  168.73 input   71.10 | X-H torsion
[ 8569 8549 8550 8551 ] final   91.31 input   74.91 | X-H torsion
[ 1864 1854 1855 1856 ] final  -37.78 input   57.50 | X-H torsion
[ 15411 15403 15404 15405 ] final   48.17 input  102.24 | X-H torsion
[ 2884 2867 2868 2869 ] final  -70.21 input   60.34 | X-H torsion
[ 16459 1745 1744 1743 ] final   81.20 input    0.00 | X-H torsion
[ 16462 1794 1793 1792 ] final    2.77 input   -0.00 | X-H torsion
[ 16466 2070 2069 2068 ] final  167.44 input    0.00 | X-H torsion
[ 16474 7834 7833 7832 ] final  -61.95 input    0.00 | X-H torsion
[ 16477 7877 7876 7875 ] final -156.32 input    0.00 | X-H torsion
[ 16486 7919 7918 7917 ] final    5.36 input    0.00 | X-H torsion
[ 16490 8466 8465 8464 ] final  -37.95 input    0.00 | X-H torsion
[ 16495 2717 2716 2715 ] final  122.76 input    0.00 | X-H torsion
[ 16498 5484 5483 5482 ] final  -46.02 input    0.00 | X-H torsion
[ 16500 2120 2119 2118 ] final -136.54 input    0.00 | X-H torsion
[ 16505 2753 2752 2751 ] final  -41.15 input    0.00 | X-H torsion
[ 16507 5380 5379 5378 ] final  108.90 input    0.00 | X-H torsion
[ 16510 1701 1700 1699 ] final  -64.06 input   -0.00 | X-H torsion
[ 16513 5589 5588 5587 ] final   39.80 input    0.00 | X-H torsion
[ 16515 2668 2667 2666 ] final  131.12 input    0.00 | X-H torsion
[ 16517 5327 5326 5325 ] final  -80.63 input   -0.00 | X-H torsion
[ 16520 5431 5430 5429 ] final  131.26 input    0.00 | X-H torsion
[ 16525 5532 5531 5530 ] final   83.37 input   -0.00 | X-H torsion
[ 16530 8033 8032 8031 ] final -144.76 input    0.00 | X-H torsion
[ 16534 8371 8370 8369 ] final   17.50 input    0.00 | X-H torsion
[ 16536 4570 4569 4568 ] final -166.74 input    0.00 | X-H torsion
[ 16539 4518 4517 4516 ] final -147.18 input    0.00 | X-H torsion
[ 16542 5228 5227 5226 ] final -172.43 input    0.00 | X-H torsion
[ 16544 5277 5276 5275 ] final  121.29 input    0.00 | X-H torsion
[ 16548 8418 8417 8416 ] final  151.16 input    0.00 | X-H torsion
[ 16551 2006 2005 2004 ] final  156.61 input    0.00 | X-H torsion
[ 16556 1821 1820 1819 ] final -166.76 input    0.00 | X-H torsion

> <Gold.Protein.ActiveResidues>
 THR48   LEU49   GLY50   THR51   GLY52   ARG56   VAL57   MET58   LEU59   TYR69  
 ALA70   MET71   LYS72   ILE73   GLU91   LEU95   VAL104  LYS105  LEU106  MET118 
 VAL119  MET120  GLU121  TYR122  VAL123  PRO124  GLY125  GLY126  GLU127  GLU170 
 ASN171  LEU172  LEU173  ILE174  ASP175  GLN181  VAL182  THR183  ASP184  PHE185 
 ASN326  PHE327  ASP328  TYR330 

> <Gold.Protein.RotatedAtoms>
    2.8418  -14.9720   20.9989 H   0  0  0  0  0  0  0  0  0  0  0  0  # atno 1772 bound_to 1742
    0.9705  -15.0726   21.0780 H   0  0  0  0  0  0  0  0  0  0  0  0  # atno 1801 bound_to 1791
   -0.2309  -14.4932   23.8965 H   0  0  0  0  0  0  0  0  0  0  0  0  # atno 1839 bound_to 1818
   -1.9072  -15.7778   27.5311 H   0  0  0  0  0  0  0  0  0  0  0  0  # atno 1864 bound_to 1854
    1.1300  -17.9894   22.9278 H   0  0  0  0  0  0  0  0  0  0  0  0  # atno 2083 bound_to 2067
    1.8392  -18.8783   19.5686 H   0  0  0  0  0  0  0  0  0  0  0  0  # atno 2134 bound_to 2117
    5.2407  -18.6015   18.1003 H   0  0  0  0  0  0  0  0  0  0  0  0  # atno 2184 bound_to 2168
    4.8268  -21.0555   11.1184 H   0  0  0  0  0  0  0  0  0  0  0  0  # atno 2684 bound_to 2665
    1.6163  -21.1090   12.9945 H   0  0  0  0  0  0  0  0  0  0  0  0  # atno 2724 bound_to 2714
    2.8565  -21.8273   16.9293 H   0  0  0  0  0  0  0  0  0  0  0  0  # atno 2767 bound_to 2750
    1.0669  -23.2981   19.6917 H   0  0  0  0  0  0  0  0  0  0  0  0  # atno 2822 bound_to 2803
   -0.5399  -23.8105   22.7077 H   0  0  0  0  0  0  0  0  0  0  0  0  # atno 2884 bound_to 2867
   -9.4727  -22.8474    9.7901 H   0  0  0  0  0  0  0  0  0  0  0  0  # atno 4530 bound_to 4515
   -6.9015  -24.6108    8.9534 H   0  0  0  0  0  0  0  0  0  0  0  0  # atno 4589 bound_to 4567
    0.0970  -27.6450   17.7048 H   0  0  0  0  0  0  0  0  0  0  0  0  # atno 5299 bound_to 5274
   -0.6209  -24.4041   15.2781 H   0  0  0  0  0  0  0  0  0  0  0  0  # atno 5342 bound_to 5324
   -1.8554  -23.4749   11.9149 H   0  0  0  0  0  0  0  0  0  0  0  0  # atno 5392 bound_to 5377
    1.1357  -21.6570   10.5225 H   0  0  0  0  0  0  0  0  0  0  0  0  # atno 5454 bound_to 5428
    2.7453  -13.2750   11.8075 H   0  0  0  0  0  0  0  0  0  0  0  0  # atno 5462 bound_to 5439
   -0.6646  -18.5829    9.8984 H   0  0  0  0  0  0  0  0  0  0  0  0  # atno 5506 bound_to 5481
   -0.2268  -12.2474    9.2328 H   0  0  0  0  0  0  0  0  0  0  0  0  # atno 5575 bound_to 5565
   -1.7317  -11.9301   10.8928 H   0  0  0  0  0  0  0  0  0  0  0  0  # atno 5596 bound_to 5586
   -3.8860  -10.2352   14.2575 H   0  0  0  0  0  0  0  0  0  0  0  0  # atno 5632 bound_to 5617
   -9.5802  -12.5794   18.1550 H   0  0  0  0  0  0  0  0  0  0  0  0  # atno 7884 bound_to 7874
  -11.0490  -13.4024   15.4677 H   0  0  0  0  0  0  0  0  0  0  0  0  # atno 7924 bound_to 7916
   -8.4784  -14.0229   13.1596 H   0  0  0  0  0  0  0  0  0  0  0  0  # atno 7991 bound_to 7973
   -5.6490  -12.3074   10.1128 H   0  0  0  0  0  0  0  0  0  0  0  0  # atno 8046 bound_to 8030
  -10.3675  -18.1807   14.6709 H   0  0  0  0  0  0  0  0  0  0  0  0  # atno 8477 bound_to 8463
   -6.9643  -17.3403   15.7160 H   0  0  0  0  0  0  0  0  0  0  0  0  # atno 8483 bound_to 8469
   -8.4205  -20.0562   17.5475 H   0  0  0  0  0  0  0  0  0  0  0  0  # atno 8522 bound_to 8507
  -10.0539  -23.0637   18.9993 H   0  0  0  0  0  0  0  0  0  0  0  0  # atno 8569 bound_to 8549
    1.3584   -8.9201   18.0091 H   0  0  0  0  0  0  0  0  0  0  0  0  # atno 15411 bound_to 15403
   -1.5318   -9.1179   21.4622 H   0  0  0  0  0  0  0  0  0  0  0  0  # atno 15475 bound_to 15466
    3.8887  -14.9513   19.5967 LP  0  0  0  0  0  0  0  0  0  0  0  0  # atno 16458 bound_to 1742
   -0.8408  -13.6208   18.9428 LP  0  0  0  0  0  0  0  0  0  0  0  0  # atno 16459 bound_to 1745
   -0.3549  -12.1331   19.6848 LP  0  0  0  0  0  0  0  0  0  0  0  0  # atno 16460 bound_to 1745
    1.1836  -13.3362   21.0084 LP  0  0  0  0  0  0  0  0  0  0  0  0  # atno 16461 bound_to 1791
    0.6936  -16.1591   22.6393 LP  0  0  0  0  0  0  0  0  0  0  0  0  # atno 16462 bound_to 1794
    0.2641  -16.4048   24.2991 LP  0  0  0  0  0  0  0  0  0  0  0  0  # atno 16463 bound_to 1794
   -1.6273  -13.5456   24.3573 LP  0  0  0  0  0  0  0  0  0  0  0  0  # atno 16464 bound_to 1818
   -0.2996  -18.9900   23.0938 LP  0  0  0  0  0  0  0  0  0  0  0  0  # atno 16465 bound_to 2067
    3.0582  -16.8548   20.6462 LP  0  0  0  0  0  0  0  0  0  0  0  0  # atno 16466 bound_to 2070
    1.4216  -16.5872   21.1464 LP  0  0  0  0  0  0  0  0  0  0  0  0  # atno 16467 bound_to 2070
    2.6794  -19.8671   20.7433 LP  0  0  0  0  0  0  0  0  0  0  0  0  # atno 16468 bound_to 2117
   -4.3620  -10.0145   12.5863 LP  0  0  0  0  0  0  0  0  0  0  0  0  # atno 16469 bound_to 5617
   -7.2539  -12.4804   17.4281 LP  0  0  0  0  0  0  0  0  0  0  0  0  # atno 16474 bound_to 7834
   -7.8851  -13.6266   18.5629 LP  0  0  0  0  0  0  0  0  0  0  0  0  # atno 16475 bound_to 7834
  -10.8732  -12.4803   16.9886 LP  0  0  0  0  0  0  0  0  0  0  0  0  # atno 16476 bound_to 7874
  -10.1129  -16.0614   14.2884 LP  0  0  0  0  0  0  0  0  0  0  0  0  # atno 16477 bound_to 7877
  -10.6971  -16.5717   15.8370 LP  0  0  0  0  0  0  0  0  0  0  0  0  # atno 16478 bound_to 7877
   -9.3409  -13.7499   15.3573 LP  0  0  0  0  0  0  0  0  0  0  0  0  # atno 16479 bound_to 7916
   -7.9457  -17.6939   16.9652 LP  0  0  0  0  0  0  0  0  0  0  0  0  # atno 16480 bound_to 8469
   -8.5756  -17.3824   15.4911 LP  0  0  0  0  0  0  0  0  0  0  0  0  # atno 16481 bound_to 8469
   -2.2045  -10.3693   22.2555 LP  0  0  0  0  0  0  0  0  0  0  0  0  # atno 16484 bound_to 15466
   -1.4750  -10.6095   20.8144 LP  0  0  0  0  0  0  0  0  0  0  0  0  # atno 16485 bound_to 15466
   -9.1816  -11.4432   13.4707 LP  0  0  0  0  0  0  0  0  0  0  0  0  # atno 16486 bound_to 7919
   -7.8860  -11.7704   12.3687 LP  0  0  0  0  0  0  0  0  0  0  0  0  # atno 16487 bound_to 7919
   -9.0709  -14.5454   11.6038 LP  0  0  0  0  0  0  0  0  0  0  0  0  # atno 16488 bound_to 7973
   -9.8024  -19.2687   13.4205 LP  0  0  0  0  0  0  0  0  0  0  0  0  # atno 16489 bound_to 8463
  -10.7432  -17.9373   16.4585 LP  0  0  0  0  0  0  0  0  0  0  0  0  # atno 16490 bound_to 8466
  -11.5997  -19.0968   17.4187 LP  0  0  0  0  0  0  0  0  0  0  0  0  # atno 16491 bound_to 8466
   -9.9067  -20.7525   16.9167 LP  0  0  0  0  0  0  0  0  0  0  0  0  # atno 16492 bound_to 8507
    0.6684  -24.0458   15.7355 LP  0  0  0  0  0  0  0  0  0  0  0  0  # atno 16495 bound_to 2717
   -0.5666  -22.8400   15.5912 LP  0  0  0  0  0  0  0  0  0  0  0  0  # atno 16496 bound_to 2717
   -0.4560  -23.5545   18.8616 LP  0  0  0  0  0  0  0  0  0  0  0  0  # atno 16497 bound_to 2803
   -1.9604  -14.6207   11.2092 LP  0  0  0  0  0  0  0  0  0  0  0  0  # atno 16498 bound_to 5484
   -0.2684  -14.2501   11.2133 LP  0  0  0  0  0  0  0  0  0  0  0  0  # atno 16499 bound_to 5484
    4.3578  -20.5569   16.6940 LP  0  0  0  0  0  0  0  0  0  0  0  0  # atno 16500 bound_to 2120
    2.8546  -20.4032   17.5406 LP  0  0  0  0  0  0  0  0  0  0  0  0  # atno 16501 bound_to 2120
    4.1726  -17.4325   17.3644 LP  0  0  0  0  0  0  0  0  0  0  0  0  # atno 16502 bound_to 2168
    2.4594  -22.3984   13.8193 LP  0  0  0  0  0  0  0  0  0  0  0  0  # atno 16503 bound_to 2714
    1.1132  -21.8764   16.7741 LP  0  0  0  0  0  0  0  0  0  0  0  0  # atno 16504 bound_to 2750
    2.8922  -22.2786   20.2962 LP  0  0  0  0  0  0  0  0  0  0  0  0  # atno 16505 bound_to 2753
    1.4420  -21.3826   20.6030 LP  0  0  0  0  0  0  0  0  0  0  0  0  # atno 16506 bound_to 2753
   -1.5352  -20.7847   12.2015 LP  0  0  0  0  0  0  0  0  0  0  0  0  # atno 16507 bound_to 5380
   -2.4881  -20.6304   10.7634 LP  0  0  0  0  0  0  0  0  0  0  0  0  # atno 16508 bound_to 5380
   -0.4154  -17.3998   11.1634 LP  0  0  0  0  0  0  0  0  0  0  0  0  # atno 16509 bound_to 5481
    4.5645  -12.3276   20.9835 LP  0  0  0  0  0  0  0  0  0  0  0  0  # atno 16510 bound_to 1701
    4.5511  -12.6467   19.2812 LP  0  0  0  0  0  0  0  0  0  0  0  0  # atno 16511 bound_to 1701
   -2.3670  -10.4825   10.1449 LP  0  0  0  0  0  0  0  0  0  0  0  0  # atno 16512 bound_to 5586
   -4.5686  -11.7887   10.8998 LP  0  0  0  0  0  0  0  0  0  0  0  0  # atno 16513 bound_to 5589
   -5.7236  -10.5537   11.2749 LP  0  0  0  0  0  0  0  0  0  0  0  0  # atno 16514 bound_to 5589
    3.8661  -19.8899   14.2985 LP  0  0  0  0  0  0  0  0  0  0  0  0  # atno 16515 bound_to 2668
    4.8981  -21.2806   14.3313 LP  0  0  0  0  0  0  0  0  0  0  0  0  # atno 16516 bound_to 2668
    0.3897  -22.5704   12.8835 LP  0  0  0  0  0  0  0  0  0  0  0  0  # atno 16517 bound_to 5327
    1.0982  -23.9334   12.0834 LP  0  0  0  0  0  0  0  0  0  0  0  0  # atno 16518 bound_to 5327
   -0.4753  -21.2719    9.9676 LP  0  0  0  0  0  0  0  0  0  0  0  0  # atno 16519 bound_to 5428
   -1.2614  -19.0107    8.1189 LP  0  0  0  0  0  0  0  0  0  0  0  0  # atno 16520 bound_to 5431
    0.4510  -19.2258    7.9725 LP  0  0  0  0  0  0  0  0  0  0  0  0  # atno 16521 bound_to 5431
    3.9940  -13.3809   10.7698 LP  0  0  0  0  0  0  0  0  0  0  0  0  # atno 16522 bound_to 5439
    4.1987  -13.7750   12.3413 LP  0  0  0  0  0  0  0  0  0  0  0  0  # atno 16523 bound_to 5439
    1.5047  -10.8773    9.2436 LP  0  0  0  0  0  0  0  0  0  0  0  0  # atno 16525 bound_to 5532
    0.6168  -11.2227   10.6901 LP  0  0  0  0  0  0  0  0  0  0  0  0  # atno 16526 bound_to 5532
   -1.3762  -12.8937    8.0804 LP  0  0  0  0  0  0  0  0  0  0  0  0  # atno 16527 bound_to 5565
   -1.3370  -24.8594   10.9826 LP  0  0  0  0  0  0  0  0  0  0  0  0  # atno 16528 bound_to 5377
   -7.2007  -13.1072    9.9841 LP  0  0  0  0  0  0  0  0  0  0  0  0  # atno 16529 bound_to 8030
   -3.4636  -12.4503    7.0541 LP  0  0  0  0  0  0  0  0  0  0  0  0  # atno 16530 bound_to 8033
   -3.9696  -12.2865    8.7024 LP  0  0  0  0  0  0  0  0  0  0  0  0  # atno 16531 bound_to 8033
    5.6469  -22.4055   11.8709 LP  0  0  0  0  0  0  0  0  0  0  0  0  # atno 16532 bound_to 2665
    0.0306  -25.7258   14.3476 LP  0  0  0  0  0  0  0  0  0  0  0  0  # atno 16533 bound_to 5324
   -8.9780  -15.9995   11.2579 LP  0  0  0  0  0  0  0  0  0  0  0  0  # atno 16534 bound_to 8371
   -9.5311  -17.0045   12.5556 LP  0  0  0  0  0  0  0  0  0  0  0  0  # atno 16535 bound_to 8371
   -3.4602  -25.9819   12.0106 LP  0  0  0  0  0  0  0  0  0  0  0  0  # atno 16536 bound_to 4570
   -4.2199  -24.7840   11.0167 LP  0  0  0  0  0  0  0  0  0  0  0  0  # atno 16537 bound_to 4570
   -9.2502  -22.0231   11.3109 LP  0  0  0  0  0  0  0  0  0  0  0  0  # atno 16538 bound_to 4515
   -7.7607  -26.0411   11.6760 LP  0  0  0  0  0  0  0  0  0  0  0  0  # atno 16539 bound_to 4518
   -9.0338  -24.8848   11.4709 LP  0  0  0  0  0  0  0  0  0  0  0  0  # atno 16540 bound_to 4518
   -6.2135  -24.3448   10.5475 LP  0  0  0  0  0  0  0  0  0  0  0  0  # atno 16541 bound_to 4567
   -0.2279  -24.8933   17.6562 LP  0  0  0  0  0  0  0  0  0  0  0  0  # atno 16542 bound_to 5228
   -0.9043  -25.2170   19.2175 LP  0  0  0  0  0  0  0  0  0  0  0  0  # atno 16543 bound_to 5228
   -1.7507  -27.2741   13.9080 LP  0  0  0  0  0  0  0  0  0  0  0  0  # atno 16544 bound_to 5277
   -0.1233  -27.8053   13.6447 LP  0  0  0  0  0  0  0  0  0  0  0  0  # atno 16545 bound_to 5277
   -9.2222  -21.1400   13.2121 LP  0  0  0  0  0  0  0  0  0  0  0  0  # atno 16548 bound_to 8418
  -10.7395  -21.1982   12.3788 LP  0  0  0  0  0  0  0  0  0  0  0  0  # atno 16549 bound_to 8418
   -1.3076  -27.3533   16.7068 LP  0  0  0  0  0  0  0  0  0  0  0  0  # atno 16550 bound_to 5274
    0.1247  -21.1186   22.5219 LP  0  0  0  0  0  0  0  0  0  0  0  0  # atno 16551 bound_to 2006
    0.7812  -21.3095   24.1133 LP  0  0  0  0  0  0  0  0  0  0  0  0  # atno 16552 bound_to 2006
  -11.0286  -21.6627   19.3550 LP  0  0  0  0  0  0  0  0  0  0  0  0  # atno 16555 bound_to 8549
   -3.8452  -13.7861   27.1353 LP  0  0  0  0  0  0  0  0  0  0  0  0  # atno 16556 bound_to 1821
   -2.8313  -13.1703   25.8733 LP  0  0  0  0  0  0  0  0  0  0  0  0  # atno 16557 bound_to 1821
   -2.8933  -16.2930   26.1737 LP  0  0  0  0  0  0  0  0  0  0  0  0  # atno 16558 bound_to 1854

> <Gold.Score>
     Fitness  S(hb_ext) S(vdw_ext)  S(hb_int)    S(int)      intcor
     30.55       0.17      23.13       0.00      -1.42      -0.76

> <Gold.Goldscore.Fitness>
30.5497

> <Gold.Goldscore.Internal.Vdw>
-1.5934

> <Gold.Goldscore.Internal.Torsion>
-0.5890

> <Gold.Goldscore.External.Vdw>
23.1283

> <Gold.Goldscore.Internal.HBond>
0.0000

> <Gold.Goldscore.External.HBond>
0.1658

> <Gold.Goldscore.Internal.Correction>
-0.7650

> <Gold.Goldscore.Hbonds>
donor molecule, donor type, donor heavy atom, donor atom, acceptor molecule, acceptor atom, score
      L1  H    10    23       P1  8514  0.03

> <Gold.Goldscore.Internal.Vdw.Weighted>
-1.5934

> <Gold.Goldscore.Internal.Torsion.Weighted>
-0.5890

> <Gold.Goldscore.External.Vdw.Weighted>
31.8014

> <Gold.Goldscore.Internal.HBond.Weighted>
0.0000

> <Gold.Goldscore.External.HBond.Weighted>
0.1658

> <Gold.Goldscore.Internal.Correction.Weighted>
-0.7650

> <Gold.Rescore>
     Score     S(PLP)   S(hbond)     S(cho)   S(metal)  DE(clash)   DE(tors)     intcor
      9.42     -11.86       0.00       0.00       0.00       0.96       0.74       ----

> <Gold.PLP.Fitness>
9.4177

> <Gold.PLP.PLP>
-11.8594

> <Gold.PLP.part.hbond>
-2.2485

> <Gold.PLP.part.metal>
0.0000

> <Gold.PLP.part.buried>
14.0835

> <Gold.PLP.part.nonpolar>
-30.2146

> <Gold.PLP.part.repulsive>
5.0225

> <Gold.PLP.ligand.clash>
0.9570

> <Gold.PLP.ligand.torsion>
0.7424

> <Gold.PLP.Chemscore.Hbond>
0.0000

> <Gold.PLP.Chemscore.CHOScore>
0.0000

> <Gold.PLP.Chemscore.Metal>
0.0000

> <Gold.PLP.Chemscore.Internal.Correction>
   9.000000E+99

