#       Name:                CT1002167954
#       Creating user name   hitesit
#       Creation time:       Sun Apr 16 22:50:51 2023


#       File generated by GOLD software.
#

@<TRIPOS>MOLECULE
CT1002167954|ligand_prepared|mol2|1|dock3
    29    30     1
SMALL
NO_CHARGES


@<TRIPOS>ATOM
      1 C1          -5.4560 -16.8753  18.8575 C.3            1 RES1               0.0000
      2 C2          -4.7095 -17.7442  17.8248 C.ar           1 RES1               0.0000
      3 C3          -4.7204 -17.0570  20.1819 C.2            1 RES1               0.0000
      4 C4          -5.4236 -15.4495  18.3183 C.2            1 RES1               0.0000
      5 C5          -6.9359 -17.2766  19.0585 C.3            1 RES1               0.0000
      6 C6          -4.9153 -19.1197  17.7750 C.ar           1 RES1               0.0000
      7 C7          -3.8155 -17.1854  16.9153 C.ar           1 RES1               0.0000
      8 N8          -3.9462 -16.0239  20.6216 N.am           1 RES1               0.0000
      9 O9          -4.7871 -18.1056  20.8113 O.2            1 RES1               0.0000
     10 N10         -4.7157 -14.5121  19.0240 N.am           1 RES1               0.0000
     11 O11         -5.9909 -15.1330  17.2799 O.2            1 RES1               0.0000
     12 C12         -7.6967 -16.3601  20.0036 C.3            1 RES1               0.0000
     13 C13         -4.2538 -19.9076  16.8476 C.ar           1 RES1               0.0000
     14 C14         -3.1547 -17.9752  15.9890 C.ar           1 RES1               0.0000
     15 C15         -3.9502 -14.7415  20.1347 C.2            1 RES1               0.0000
     16 C16         -3.3735 -19.3359  15.9538 C.ar           1 RES1               0.0000
     17 O17         -3.2982 -13.8570  20.6822 O.2            1 RES1               0.0000
     18 H18         -7.4381 -17.2737  18.0832 H              1 RES1               0.0000
     19 H19         -6.9739 -18.2999  19.4521 H              1 RES1               0.0000
     20 H20         -5.6025 -19.5877  18.4720 H              1 RES1               0.0000
     21 H21         -3.6270 -16.1172  16.9253 H              1 RES1               0.0000
     22 H22         -3.3049 -16.2233  21.3827 H              1 RES1               0.0000
     23 H23         -4.7641 -13.5546  18.6905 H              1 RES1               0.0000
     24 H24         -8.7293 -16.6863  20.1092 H              1 RES1               0.0000
     25 H25         -7.2392 -16.3583  20.9908 H              1 RES1               0.0000
     26 H26         -7.7007 -15.3382  19.6300 H              1 RES1               0.0000
     27 H27         -4.4284 -20.9782  16.8250 H              1 RES1               0.0000
     28 H28         -2.4623 -17.5211  15.2878 H              1 RES1               0.0000
     29 H29         -2.8557 -19.9533  15.2273 H              1 RES1               0.0000
@<TRIPOS>BOND
    1    1    2 1     
    2    1    3 1     
    3    1    4 1     
    4    1    5 1     
    5    2    6 ar    
    6    2    7 ar    
    7    3    8 1     
    8    3    9 2     
    9    4   10 1     
   10    4   11 2     
   11    5   12 1     
   12    5   18 1     
   13    5   19 1     
   14    6   13 ar    
   15    6   20 1     
   16    7   14 ar    
   17    7   21 1     
   18    8   15 1     
   19    8   22 1     
   20   10   15 1     
   21   10   23 1     
   22   12   24 1     
   23   12   25 1     
   24   12   26 1     
   25   13   16 ar    
   26   13   27 1     
   27   14   16 ar    
   28   14   28 1     
   29   15   17 2     
   30   16   29 1     
@<TRIPOS>SUBSTRUCTURE
      1 RES1           1
@<TRIPOS>SET
DONOR_HYDROGENS      STATIC     ATOMS    <user>   **** ""
2 22 23
ATOM$RED        STATIC     ATOMS    COLORGROUP SYSTEM
2 22 23
@<TRIPOS>COMMENT
> <Gold.Version>
2022.3.0

> <Gold.Id.Protein>
unknown|3mvj_clean|pdb

> <Gold.Protein.RotatedTorsions>
[ 1772 1742 1743 1744 ] final   39.96 input   69.76 | X-H torsion
[ 1801 1791 1792 1793 ] final -130.41 input  -10.55 | X-H torsion
[ 1839 1818 1819 1820 ] final  153.87 input   43.70 | X-H torsion
[ 2083 2067 2068 2069 ] final -109.10 input   63.04 | X-H torsion
[ 2134 2117 2118 2119 ] final  118.16 input   55.90 | X-H torsion
[ 5632 5617 5618 5619 ] final -177.06 input   93.34 | X-H torsion
[ 7884 7874 7875 7876 ] final   85.50 input   68.03 | X-H torsion
[ 7924 7916 7917 7918 ] final -101.38 input   66.66 | X-H torsion
[ 8483 8469 8467 8464 ] final -165.64 input   59.99 | X-H torsion
[ 15475 15466 15465 15463 ] final  138.93 input   60.00 | X-H torsion
[ 7991 7973 7974 7975 ] final  113.25 input   84.71 | X-H torsion
[ 8477 8463 8464 8465 ] final  -10.66 input   59.21 | X-H torsion
[ 8522 8507 8508 8509 ] final -121.14 input -104.23 | X-H torsion
[ 2822 2803 2804 2805 ] final   88.42 input  103.27 | X-H torsion
[ 2184 2168 2169 2170 ] final    5.82 input  106.62 | X-H torsion
[ 2724 2714 2715 2716 ] final  -21.94 input   74.66 | X-H torsion
[ 2767 2750 2751 2752 ] final  162.95 input   68.39 | X-H torsion
[ 5506 5481 5482 5483 ] final  165.36 input   57.83 | X-H torsion
[ 5596 5586 5587 5588 ] final  130.61 input -104.43 | X-H torsion
[ 5454 5428 5429 5430 ] final  -66.62 input  113.20 | X-H torsion
[ 5462 5439 5438 5436 ] final  -11.38 input   59.99 | X-H torsion
[ 5575 5565 5566 5567 ] final -128.88 input  101.53 | X-H torsion
[ 5392 5377 5378 5379 ] final -152.01 input  130.34 | X-H torsion
[ 8046 8030 8031 8032 ] final   32.34 input   72.86 | X-H torsion
[ 2684 2665 2666 2667 ] final   -1.47 input   26.41 | X-H torsion
[ 5342 5324 5325 5326 ] final    3.73 input   62.58 | X-H torsion
[ 4530 4515 4516 4517 ] final  -93.32 input  130.34 | X-H torsion
[ 4589 4567 4568 4569 ] final -149.81 input  104.80 | X-H torsion
[ 5299 5274 5275 5276 ] final  141.23 input   71.10 | X-H torsion
[ 8569 8549 8550 8551 ] final   81.78 input   74.91 | X-H torsion
[ 1864 1854 1855 1856 ] final -121.37 input   57.50 | X-H torsion
[ 15411 15403 15404 15405 ] final -118.02 input  102.24 | X-H torsion
[ 2884 2867 2868 2869 ] final -156.40 input   60.34 | X-H torsion
[ 16459 1745 1744 1743 ] final  -33.90 input    0.00 | X-H torsion
[ 16462 1794 1793 1792 ] final -166.59 input   -0.00 | X-H torsion
[ 16466 2070 2069 2068 ] final  111.95 input    0.00 | X-H torsion
[ 16474 7834 7833 7832 ] final   -3.36 input    0.00 | X-H torsion
[ 16477 7877 7876 7875 ] final   -0.58 input    0.00 | X-H torsion
[ 16486 7919 7918 7917 ] final   38.91 input    0.00 | X-H torsion
[ 16490 8466 8465 8464 ] final   58.60 input    0.00 | X-H torsion
[ 16495 2717 2716 2715 ] final  166.92 input    0.00 | X-H torsion
[ 16498 5484 5483 5482 ] final -157.54 input    0.00 | X-H torsion
[ 16500 2120 2119 2118 ] final  -28.37 input    0.00 | X-H torsion
[ 16505 2753 2752 2751 ] final  -76.05 input    0.00 | X-H torsion
[ 16507 5380 5379 5378 ] final   94.04 input    0.00 | X-H torsion
[ 16510 1701 1700 1699 ] final   92.55 input   -0.00 | X-H torsion
[ 16513 5589 5588 5587 ] final  -65.69 input    0.00 | X-H torsion
[ 16515 2668 2667 2666 ] final -123.39 input    0.00 | X-H torsion
[ 16517 5327 5326 5325 ] final -144.08 input   -0.00 | X-H torsion
[ 16520 5431 5430 5429 ] final  101.74 input    0.00 | X-H torsion
[ 16525 5532 5531 5530 ] final  -92.18 input   -0.00 | X-H torsion
[ 16530 8033 8032 8031 ] final  158.21 input    0.00 | X-H torsion
[ 16534 8371 8370 8369 ] final  -90.88 input    0.00 | X-H torsion
[ 16536 4570 4569 4568 ] final  128.70 input    0.00 | X-H torsion
[ 16539 4518 4517 4516 ] final   93.03 input    0.00 | X-H torsion
[ 16542 5228 5227 5226 ] final -168.20 input    0.00 | X-H torsion
[ 16544 5277 5276 5275 ] final  -13.63 input    0.00 | X-H torsion
[ 16548 8418 8417 8416 ] final -177.12 input    0.00 | X-H torsion
[ 16551 2006 2005 2004 ] final   71.81 input    0.00 | X-H torsion
[ 16556 1821 1820 1819 ] final -127.77 input    0.00 | X-H torsion

> <Gold.Protein.ActiveResidues>
 THR48   LEU49   GLY50   THR51   GLY52   ARG56   VAL57   MET58   LEU59   TYR69  
 ALA70   MET71   LYS72   ILE73   GLU91   LEU95   VAL104  LYS105  LEU106  MET118 
 VAL119  MET120  GLU121  TYR122  VAL123  PRO124  GLY125  GLY126  GLU127  GLU170 
 ASN171  LEU172  LEU173  ILE174  ASP175  GLN181  VAL182  THR183  ASP184  PHE185 
 ASN326  PHE327  ASP328  TYR330 

> <Gold.Protein.RotatedAtoms>
    2.7358  -15.4773   20.6295 H   0  0  0  0  0  0  0  0  0  0  0  0  # atno 1772 bound_to 1742
    1.1318  -13.3038   20.9690 H   0  0  0  0  0  0  0  0  0  0  0  0  # atno 1801 bound_to 1791
   -0.0620  -13.9368   24.2402 H   0  0  0  0  0  0  0  0  0  0  0  0  # atno 1839 bound_to 1818
   -2.5812  -15.1627   26.7557 H   0  0  0  0  0  0  0  0  0  0  0  0  # atno 1864 bound_to 1854
    0.5652  -19.3498   23.2395 H   0  0  0  0  0  0  0  0  0  0  0  0  # atno 2083 bound_to 2067
    2.7090  -19.9363   20.7016 H   0  0  0  0  0  0  0  0  0  0  0  0  # atno 2134 bound_to 2117
    5.3592  -18.4471   18.1220 H   0  0  0  0  0  0  0  0  0  0  0  0  # atno 2184 bound_to 2168
    5.2941  -21.1058   12.1192 H   0  0  0  0  0  0  0  0  0  0  0  0  # atno 2684 bound_to 2665
    2.2918  -22.5078   13.8133 H   0  0  0  0  0  0  0  0  0  0  0  0  # atno 2724 bound_to 2714
    2.5742  -22.2953   16.3695 H   0  0  0  0  0  0  0  0  0  0  0  0  # atno 2767 bound_to 2750
   -0.3150  -24.0613   19.0768 H   0  0  0  0  0  0  0  0  0  0  0  0  # atno 2822 bound_to 2803
    0.5630  -23.7566   22.2016 H   0  0  0  0  0  0  0  0  0  0  0  0  # atno 2884 bound_to 2867
   -9.3405  -22.3774    9.6797 H   0  0  0  0  0  0  0  0  0  0  0  0  # atno 4530 bound_to 4515
   -7.2911  -24.7594    9.3474 H   0  0  0  0  0  0  0  0  0  0  0  0  # atno 4589 bound_to 4567
    0.0980  -27.9666   17.4346 H   0  0  0  0  0  0  0  0  0  0  0  0  # atno 5299 bound_to 5274
    0.3387  -24.6220   14.4030 H   0  0  0  0  0  0  0  0  0  0  0  0  # atno 5342 bound_to 5324
   -1.2154  -24.8582   11.0256 H   0  0  0  0  0  0  0  0  0  0  0  0  # atno 5392 bound_to 5377
   -0.5102  -21.3849   10.5271 H   0  0  0  0  0  0  0  0  0  0  0  0  # atno 5454 bound_to 5428
    2.9757  -13.4416   12.2945 H   0  0  0  0  0  0  0  0  0  0  0  0  # atno 5462 bound_to 5439
   -1.1961  -18.5696   10.4321 H   0  0  0  0  0  0  0  0  0  0  0  0  # atno 5506 bound_to 5481
   -0.0954  -12.2046    8.2679 H   0  0  0  0  0  0  0  0  0  0  0  0  # atno 5575 bound_to 5565
   -1.5528  -10.4706   10.4249 H   0  0  0  0  0  0  0  0  0  0  0  0  # atno 5596 bound_to 5586
   -3.9530  -10.9034   13.8008 H   0  0  0  0  0  0  0  0  0  0  0  0  # atno 5632 bound_to 5617
  -11.0998  -12.6301   17.6263 H   0  0  0  0  0  0  0  0  0  0  0  0  # atno 7884 bound_to 7874
  -10.0250  -14.4435   15.4677 H   0  0  0  0  0  0  0  0  0  0  0  0  # atno 7924 bound_to 7916
   -8.4800  -15.1040   12.4975 H   0  0  0  0  0  0  0  0  0  0  0  0  # atno 7991 bound_to 7973
   -5.5488  -12.7128   10.0115 H   0  0  0  0  0  0  0  0  0  0  0  0  # atno 8046 bound_to 8030
  -10.7651  -18.6483   14.5980 H   0  0  0  0  0  0  0  0  0  0  0  0  # atno 8477 bound_to 8463
   -6.9062  -17.3826   15.9091 H   0  0  0  0  0  0  0  0  0  0  0  0  # atno 8483 bound_to 8469
   -8.4183  -20.8096   17.4958 H   0  0  0  0  0  0  0  0  0  0  0  0  # atno 8522 bound_to 8507
  -10.0262  -23.0657   19.1423 H   0  0  0  0  0  0  0  0  0  0  0  0  # atno 8569 bound_to 8549
    1.3695   -7.4545   17.0400 H   0  0  0  0  0  0  0  0  0  0  0  0  # atno 15411 bound_to 15403
   -2.1881  -10.4973   22.1844 H   0  0  0  0  0  0  0  0  0  0  0  0  # atno 15475 bound_to 15466
    3.9913  -14.4622   19.9543 LP  0  0  0  0  0  0  0  0  0  0  0  0  # atno 16458 bound_to 1742
   -0.0388  -12.4022   18.8533 LP  0  0  0  0  0  0  0  0  0  0  0  0  # atno 16459 bound_to 1745
   -1.1569  -13.3517   19.7743 LP  0  0  0  0  0  0  0  0  0  0  0  0  # atno 16460 bound_to 1745
    1.0277  -15.0454   21.1137 LP  0  0  0  0  0  0  0  0  0  0  0  0  # atno 16461 bound_to 1791
    0.1354  -16.4800   24.2392 LP  0  0  0  0  0  0  0  0  0  0  0  0  # atno 16462 bound_to 1794
    0.8223  -16.0839   22.6993 LP  0  0  0  0  0  0  0  0  0  0  0  0  # atno 16463 bound_to 1794
   -1.7914  -14.0862   24.0234 LP  0  0  0  0  0  0  0  0  0  0  0  0  # atno 16464 bound_to 1818
    0.2421  -17.6853   22.7948 LP  0  0  0  0  0  0  0  0  0  0  0  0  # atno 16465 bound_to 2067
    2.8853  -16.9448   21.4287 LP  0  0  0  0  0  0  0  0  0  0  0  0  # atno 16466 bound_to 2070
    1.5945  -16.4972   20.3639 LP  0  0  0  0  0  0  0  0  0  0  0  0  # atno 16467 bound_to 2070
    1.8381  -18.8437   19.6474 LP  0  0  0  0  0  0  0  0  0  0  0  0  # atno 16468 bound_to 2117
   -4.2975   -9.3705   13.0265 LP  0  0  0  0  0  0  0  0  0  0  0  0  # atno 16469 bound_to 5617
   -7.2368  -12.2973   18.2553 LP  0  0  0  0  0  0  0  0  0  0  0  0  # atno 16474 bound_to 7834
   -7.9021  -13.8097   17.7357 LP  0  0  0  0  0  0  0  0  0  0  0  0  # atno 16475 bound_to 7834
   -9.3710  -12.4302   17.5113 LP  0  0  0  0  0  0  0  0  0  0  0  0  # atno 16476 bound_to 7874
  -10.3389  -16.6287   15.8678 LP  0  0  0  0  0  0  0  0  0  0  0  0  # atno 16477 bound_to 7877
  -10.4711  -16.0043   14.2576 LP  0  0  0  0  0  0  0  0  0  0  0  0  # atno 16478 bound_to 7877
  -10.3442  -12.7299   15.3574 LP  0  0  0  0  0  0  0  0  0  0  0  0  # atno 16479 bound_to 7916
   -8.1471  -17.6942   16.9150 LP  0  0  0  0  0  0  0  0  0  0  0  0  # atno 16480 bound_to 8469
   -8.4328  -17.3396   15.3468 LP  0  0  0  0  0  0  0  0  0  0  0  0  # atno 16481 bound_to 8469
   -1.4176  -10.4889   20.7513 LP  0  0  0  0  0  0  0  0  0  0  0  0  # atno 16484 bound_to 15466
   -1.6008   -9.1006   21.5913 LP  0  0  0  0  0  0  0  0  0  0  0  0  # atno 16485 bound_to 15466
   -8.7909  -11.5888   13.7465 LP  0  0  0  0  0  0  0  0  0  0  0  0  # atno 16486 bound_to 7919
   -8.2767  -11.6248   12.0929 LP  0  0  0  0  0  0  0  0  0  0  0  0  # atno 16487 bound_to 7919
   -9.0694  -13.4794   12.2567 LP  0  0  0  0  0  0  0  0  0  0  0  0  # atno 16488 bound_to 7973
   -9.4187  -18.8175   13.4909 LP  0  0  0  0  0  0  0  0  0  0  0  0  # atno 16489 bound_to 8463
  -11.5999  -18.8897   16.2847 LP  0  0  0  0  0  0  0  0  0  0  0  0  # atno 16490 bound_to 8466
  -10.7430  -18.1444   17.5925 LP  0  0  0  0  0  0  0  0  0  0  0  0  # atno 16491 bound_to 8466
   -9.9088  -20.0424   16.9654 LP  0  0  0  0  0  0  0  0  0  0  0  0  # atno 16492 bound_to 8507
    0.3620  -23.9405   16.3002 LP  0  0  0  0  0  0  0  0  0  0  0  0  # atno 16495 bound_to 2717
   -0.2601  -22.9452   15.0265 LP  0  0  0  0  0  0  0  0  0  0  0  0  # atno 16496 bound_to 2717
    0.8684  -22.8230   19.4509 LP  0  0  0  0  0  0  0  0  0  0  0  0  # atno 16497 bound_to 2803
   -0.9525  -13.6853   10.8098 LP  0  0  0  0  0  0  0  0  0  0  0  0  # atno 16498 bound_to 5484
   -1.2763  -15.1855   11.6127 LP  0  0  0  0  0  0  0  0  0  0  0  0  # atno 16499 bound_to 5484
    3.6702  -20.9164   17.8627 LP  0  0  0  0  0  0  0  0  0  0  0  0  # atno 16500 bound_to 2120
    3.5422  -20.0437   16.3720 LP  0  0  0  0  0  0  0  0  0  0  0  0  # atno 16501 bound_to 2120
    4.0564  -17.5840   17.3431 LP  0  0  0  0  0  0  0  0  0  0  0  0  # atno 16502 bound_to 2168
    1.7992  -21.0312   13.0191 LP  0  0  0  0  0  0  0  0  0  0  0  0  # atno 16503 bound_to 2714
    1.3861  -21.4239   17.3153 LP  0  0  0  0  0  0  0  0  0  0  0  0  # atno 16504 bound_to 2750
    2.6644  -22.4889   20.7130 LP  0  0  0  0  0  0  0  0  0  0  0  0  # atno 16505 bound_to 2753
    1.6698  -21.1723   20.1862 LP  0  0  0  0  0  0  0  0  0  0  0  0  # atno 16506 bound_to 2753
   -1.6491  -20.9765   12.2215 LP  0  0  0  0  0  0  0  0  0  0  0  0  # atno 16507 bound_to 5380
   -2.3742  -20.4385   10.7434 LP  0  0  0  0  0  0  0  0  0  0  0  0  # atno 16508 bound_to 5380
    0.0991  -17.4127   10.6467 LP  0  0  0  0  0  0  0  0  0  0  0  0  # atno 16509 bound_to 5481
    4.8866  -12.7096   19.3627 LP  0  0  0  0  0  0  0  0  0  0  0  0  # atno 16510 bound_to 1701
    4.2290  -12.2647   20.9020 LP  0  0  0  0  0  0  0  0  0  0  0  0  # atno 16511 bound_to 1701
   -2.5411  -11.9028   10.6002 LP  0  0  0  0  0  0  0  0  0  0  0  0  # atno 16512 bound_to 5586
   -4.9101  -10.4833   10.6172 LP  0  0  0  0  0  0  0  0  0  0  0  0  # atno 16513 bound_to 5589
   -5.3821  -11.8591   11.5576 LP  0  0  0  0  0  0  0  0  0  0  0  0  # atno 16514 bound_to 5589
    4.1886  -20.9995   15.0504 LP  0  0  0  0  0  0  0  0  0  0  0  0  # atno 16515 bound_to 2668
    4.5755  -20.1710   13.5794 LP  0  0  0  0  0  0  0  0  0  0  0  0  # atno 16516 bound_to 2668
    0.5319  -22.5770   11.9840 LP  0  0  0  0  0  0  0  0  0  0  0  0  # atno 16517 bound_to 5327
    0.9560  -23.9268   12.9830 LP  0  0  0  0  0  0  0  0  0  0  0  0  # atno 16518 bound_to 5327
    1.1360  -21.5383    9.9631 LP  0  0  0  0  0  0  0  0  0  0  0  0  # atno 16519 bound_to 5428
   -1.1928  -19.4356    8.2159 LP  0  0  0  0  0  0  0  0  0  0  0  0  # atno 16520 bound_to 5431
    0.3824  -18.8009    7.8755 LP  0  0  0  0  0  0  0  0  0  0  0  0  # atno 16521 bound_to 5431
    3.4464  -13.2310   10.7513 LP  0  0  0  0  0  0  0  0  0  0  0  0  # atno 16522 bound_to 5439
    4.5142  -13.7570   11.8692 LP  0  0  0  0  0  0  0  0  0  0  0  0  # atno 16523 bound_to 5439
    0.6649  -11.2668   10.7060 LP  0  0  0  0  0  0  0  0  0  0  0  0  # atno 16525 bound_to 5532
    1.4565  -10.8332    9.2277 LP  0  0  0  0  0  0  0  0  0  0  0  0  # atno 16526 bound_to 5532
   -1.5029  -12.9351    9.0111 LP  0  0  0  0  0  0  0  0  0  0  0  0  # atno 16527 bound_to 5565
   -1.9615  -23.5097   11.8502 LP  0  0  0  0  0  0  0  0  0  0  0  0  # atno 16528 bound_to 5377
   -7.2978  -12.7145   10.0822 LP  0  0  0  0  0  0  0  0  0  0  0  0  # atno 16529 bound_to 8030
   -3.3964  -13.1050    7.5545 LP  0  0  0  0  0  0  0  0  0  0  0  0  # atno 16530 bound_to 8033
   -4.0368  -11.6317    8.2020 LP  0  0  0  0  0  0  0  0  0  0  0  0  # atno 16531 bound_to 8033
    5.1935  -22.3567   10.9000 LP  0  0  0  0  0  0  0  0  0  0  0  0  # atno 16532 bound_to 2665
   -0.9216  -25.5095   15.2161 LP  0  0  0  0  0  0  0  0  0  0  0  0  # atno 16533 bound_to 5324
   -8.5975  -17.0053   12.1616 LP  0  0  0  0  0  0  0  0  0  0  0  0  # atno 16534 bound_to 8371
   -9.9116  -15.9987   11.6519 LP  0  0  0  0  0  0  0  0  0  0  0  0  # atno 16535 bound_to 8371
   -4.1557  -25.4545   12.3169 LP  0  0  0  0  0  0  0  0  0  0  0  0  # atno 16536 bound_to 4570
   -3.5245  -25.3114   10.7103 LP  0  0  0  0  0  0  0  0  0  0  0  0  # atno 16537 bound_to 4570
   -9.3807  -22.4875   11.4199 LP  0  0  0  0  0  0  0  0  0  0  0  0  # atno 16538 bound_to 4515
   -8.9502  -25.5445   10.9120 LP  0  0  0  0  0  0  0  0  0  0  0  0  # atno 16539 bound_to 4518
   -7.8443  -25.3813   12.2350 LP  0  0  0  0  0  0  0  0  0  0  0  0  # atno 16540 bound_to 4518
   -5.8443  -24.2040   10.1742 LP  0  0  0  0  0  0  0  0  0  0  0  0  # atno 16541 bound_to 4567
   -0.2868  -24.8787   17.6363 LP  0  0  0  0  0  0  0  0  0  0  0  0  # atno 16542 bound_to 5228
   -0.8454  -25.2316   19.2374 LP  0  0  0  0  0  0  0  0  0  0  0  0  # atno 16543 bound_to 5228
   -0.3955  -28.0775   14.1856 LP  0  0  0  0  0  0  0  0  0  0  0  0  # atno 16544 bound_to 5277
   -1.4785  -27.0018   13.3670 LP  0  0  0  0  0  0  0  0  0  0  0  0  # atno 16545 bound_to 5277
   -9.5376  -21.2961   13.5285 LP  0  0  0  0  0  0  0  0  0  0  0  0  # atno 16548 bound_to 8418
  -10.4241  -21.0421   12.0624 LP  0  0  0  0  0  0  0  0  0  0  0  0  # atno 16549 bound_to 8418
   -1.3087  -27.0390   16.9709 LP  0  0  0  0  0  0  0  0  0  0  0  0  # atno 16550 bound_to 5274
   -0.3748  -21.2572   23.5686 LP  0  0  0  0  0  0  0  0  0  0  0  0  # atno 16551 bound_to 2006
    1.2807  -21.1709   23.0666 LP  0  0  0  0  0  0  0  0  0  0  0  0  # atno 16552 bound_to 2006
  -11.0560  -21.6607   19.2135 LP  0  0  0  0  0  0  0  0  0  0  0  0  # atno 16555 bound_to 8549
   -3.4011  -13.4983   27.3678 LP  0  0  0  0  0  0  0  0  0  0  0  0  # atno 16556 bound_to 1821
   -3.2755  -13.4581   25.6408 LP  0  0  0  0  0  0  0  0  0  0  0  0  # atno 16557 bound_to 1821
   -2.2509  -16.8792   26.9127 LP  0  0  0  0  0  0  0  0  0  0  0  0  # atno 16558 bound_to 1854

> <Gold.Score>
     Fitness  S(hb_ext) S(vdw_ext)  S(hb_int)    S(int)      intcor
     30.61       3.44      20.76       0.00      -1.38      -0.76

> <Gold.Goldscore.Fitness>
30.6097

> <Gold.Goldscore.Internal.Vdw>
-1.7553

> <Gold.Goldscore.Internal.Torsion>
-0.3904

> <Gold.Goldscore.External.Vdw>
20.7648

> <Gold.Goldscore.Internal.HBond>
0.0000

> <Gold.Goldscore.External.HBond>
3.4389

> <Gold.Goldscore.Internal.Correction>
-0.7650

> <Gold.Goldscore.Hbonds>
donor molecule, donor type, donor heavy atom, donor atom, acceptor molecule, acceptor atom, score
      L1  H    10    23       P1  5625  0.57

> <Gold.Goldscore.Internal.Vdw.Weighted>
-1.7553

> <Gold.Goldscore.Internal.Torsion.Weighted>
-0.3904

> <Gold.Goldscore.External.Vdw.Weighted>
28.5516

> <Gold.Goldscore.Internal.HBond.Weighted>
0.0000

> <Gold.Goldscore.External.HBond.Weighted>
3.4389

> <Gold.Goldscore.Internal.Correction.Weighted>
-0.7650

> <Gold.Rescore>
     Score     S(PLP)   S(hbond)     S(cho)   S(metal)  DE(clash)   DE(tors)     intcor
     22.93     -21.78       0.99       0.00       0.00       0.15       0.84       ----

> <Gold.PLP.Fitness>
22.9326

> <Gold.PLP.PLP>
-21.7765

> <Gold.PLP.part.hbond>
-1.0000

> <Gold.PLP.part.metal>
0.0000

> <Gold.PLP.part.buried>
6.5155

> <Gold.PLP.part.nonpolar>
-27.9333

> <Gold.PLP.part.repulsive>
0.5241

> <Gold.PLP.ligand.clash>
0.1456

> <Gold.PLP.ligand.torsion>
0.8372

> <Gold.PLP.Chemscore.Hbond>
0.9920

> <Gold.PLP.Chemscore.CHOScore>
0.0000

> <Gold.PLP.Chemscore.Metal>
0.0000

> <Gold.Chemscore.Hbonds>
donor molecule, donor type, donor heavy atom, donor atom, acceptor molecule, acceptor atom, score
      L1  H    10    23       P1  5625  1.00

> <Gold.PLP.Chemscore.Internal.Correction>
   9.000000E+99

