#       Name:                CT1002167954
#       Creating user name   hitesit
#       Creation time:       Sun Apr 16 22:50:49 2023


#       File generated by GOLD software.
#

@<TRIPOS>MOLECULE
CT1002167954|ligand_prepared|mol2|1|dock1
    29    30     1
SMALL
NO_CHARGES


@<TRIPOS>ATOM
      1 C1          -5.2839 -16.6187  20.1457 C.3            1 RES1               0.0000
      2 C2          -5.3590 -18.0398  19.5511 C.ar           1 RES1               0.0000
      3 C3          -6.5804 -15.9189  19.7482 C.2            1 RES1               0.0000
      4 C4          -5.1077 -16.7943  21.6499 C.2            1 RES1               0.0000
      5 C5          -4.0936 -15.7833  19.6195 C.3            1 RES1               0.0000
      6 C6          -4.5223 -18.4151  18.5044 C.ar           1 RES1               0.0000
      7 C7          -6.2564 -18.9856  20.0398 C.ar           1 RES1               0.0000
      8 N8          -7.5200 -15.7308  20.7186 N.am           1 RES1               0.0000
      9 O9          -6.7914 -15.5729  18.5924 O.2            1 RES1               0.0000
     10 N10         -6.1207 -16.3694  22.4691 N.am           1 RES1               0.0000
     11 O11         -4.1078 -17.3120  22.1323 O.2            1 RES1               0.0000
     12 C12         -3.9491 -14.4287  20.2949 C.3            1 RES1               0.0000
     13 C13         -4.5785 -19.6906  17.9675 C.ar           1 RES1               0.0000
     14 C14         -6.3111 -20.2605  19.5013 C.ar           1 RES1               0.0000
     15 C15         -7.3320 -15.8737  22.0699 C.2            1 RES1               0.0000
     16 C16         -5.4725 -20.6142  18.4658 C.ar           1 RES1               0.0000
     17 O17         -8.2140 -15.5638  22.8656 O.2            1 RES1               0.0000
     18 H18         -3.1685 -16.3533  19.7697 H              1 RES1               0.0000
     19 H19         -4.2205 -15.6283  18.5409 H              1 RES1               0.0000
     20 H20         -3.8140 -17.7010  18.0976 H              1 RES1               0.0000
     21 H21         -6.9265 -18.7292  20.8533 H              1 RES1               0.0000
     22 H22         -8.4483 -15.4588  20.4112 H              1 RES1               0.0000
     23 H23         -5.9566 -16.4279  23.4691 H              1 RES1               0.0000
     24 H24         -3.0994 -13.8839  19.8889 H              1 RES1               0.0000
     25 H25         -4.8419 -13.8253  20.1442 H              1 RES1               0.0000
     26 H26         -3.7961 -14.5460  21.3657 H              1 RES1               0.0000
     27 H27         -3.9173 -19.9636  17.1517 H              1 RES1               0.0000
     28 H28         -7.0167 -20.9840  19.8962 H              1 RES1               0.0000
     29 H29         -5.5161 -21.6135  18.0453 H              1 RES1               0.0000
@<TRIPOS>BOND
    1    1    2 1     
    2    1    3 1     
    3    1    4 1     
    4    1    5 1     
    5    2    6 ar    
    6    2    7 ar    
    7    3    8 1     
    8    3    9 2     
    9    4   10 1     
   10    4   11 2     
   11    5   12 1     
   12    5   18 1     
   13    5   19 1     
   14    6   13 ar    
   15    6   20 1     
   16    7   14 ar    
   17    7   21 1     
   18    8   15 1     
   19    8   22 1     
   20   10   15 1     
   21   10   23 1     
   22   12   24 1     
   23   12   25 1     
   24   12   26 1     
   25   13   16 ar    
   26   13   27 1     
   27   14   16 ar    
   28   14   28 1     
   29   15   17 2     
   30   16   29 1     
@<TRIPOS>SUBSTRUCTURE
      1 RES1           1
@<TRIPOS>SET
DONOR_HYDROGENS      STATIC     ATOMS    <user>   **** ""
2 22 23
ATOM$RED        STATIC     ATOMS    COLORGROUP SYSTEM
2 22 23
@<TRIPOS>COMMENT
> <Gold.Version>
2022.3.0

> <Gold.Id.Protein>
unknown|3mvj_clean|pdb

> <Gold.Protein.RotatedTorsions>
[ 1772 1742 1743 1744 ] final   11.82 input   69.76 | X-H torsion
[ 1801 1791 1792 1793 ] final -155.39 input  -10.55 | X-H torsion
[ 1839 1818 1819 1820 ] final  155.47 input   43.70 | X-H torsion
[ 2083 2067 2068 2069 ] final  103.88 input   63.04 | X-H torsion
[ 2134 2117 2118 2119 ] final -176.15 input   55.90 | X-H torsion
[ 5632 5617 5618 5619 ] final  -94.63 input   93.34 | X-H torsion
[ 7884 7874 7875 7876 ] final   67.93 input   68.03 | X-H torsion
[ 7924 7916 7917 7918 ] final -159.33 input   66.66 | X-H torsion
[ 8483 8469 8467 8464 ] final -173.64 input   59.99 | X-H torsion
[ 15475 15466 15465 15463 ] final -166.00 input   60.00 | X-H torsion
[ 7991 7973 7974 7975 ] final  -25.99 input   84.71 | X-H torsion
[ 8477 8463 8464 8465 ] final  156.63 input   59.21 | X-H torsion
[ 8522 8507 8508 8509 ] final -101.51 input -104.23 | X-H torsion
[ 2822 2803 2804 2805 ] final  131.74 input  103.27 | X-H torsion
[ 2184 2168 2169 2170 ] final   -2.75 input  106.62 | X-H torsion
[ 2724 2714 2715 2716 ] final  111.51 input   74.66 | X-H torsion
[ 2767 2750 2751 2752 ] final  173.49 input   68.39 | X-H torsion
[ 5506 5481 5482 5483 ] final  170.44 input   57.83 | X-H torsion
[ 5596 5586 5587 5588 ] final   47.54 input -104.43 | X-H torsion
[ 5454 5428 5429 5430 ] final    1.98 input  113.20 | X-H torsion
[ 5462 5439 5438 5436 ] final -113.04 input   59.99 | X-H torsion
[ 5575 5565 5566 5567 ] final -156.16 input  101.53 | X-H torsion
[ 5392 5377 5378 5379 ] final  -45.24 input  130.34 | X-H torsion
[ 8046 8030 8031 8032 ] final   14.92 input   72.86 | X-H torsion
[ 2684 2665 2666 2667 ] final  -62.79 input   26.41 | X-H torsion
[ 5342 5324 5325 5326 ] final   88.44 input   62.58 | X-H torsion
[ 4530 4515 4516 4517 ] final  153.47 input  130.34 | X-H torsion
[ 4589 4567 4568 4569 ] final  126.52 input  104.80 | X-H torsion
[ 5299 5274 5275 5276 ] final -177.21 input   71.10 | X-H torsion
[ 8569 8549 8550 8551 ] final   19.81 input   74.91 | X-H torsion
[ 1864 1854 1855 1856 ] final -156.38 input   57.50 | X-H torsion
[ 15411 15403 15404 15405 ] final   44.39 input  102.24 | X-H torsion
[ 2884 2867 2868 2869 ] final -170.48 input   60.34 | X-H torsion
[ 16459 1745 1744 1743 ] final -116.88 input    0.00 | X-H torsion
[ 16462 1794 1793 1792 ] final  173.64 input   -0.00 | X-H torsion
[ 16466 2070 2069 2068 ] final  -28.94 input    0.00 | X-H torsion
[ 16474 7834 7833 7832 ] final  115.79 input    0.00 | X-H torsion
[ 16477 7877 7876 7875 ] final   11.56 input    0.00 | X-H torsion
[ 16486 7919 7918 7917 ] final   24.15 input    0.00 | X-H torsion
[ 16490 8466 8465 8464 ] final  171.67 input    0.00 | X-H torsion
[ 16495 2717 2716 2715 ] final   52.06 input    0.00 | X-H torsion
[ 16498 5484 5483 5482 ] final -112.80 input    0.00 | X-H torsion
[ 16500 2120 2119 2118 ] final  -97.21 input    0.00 | X-H torsion
[ 16505 2753 2752 2751 ] final -108.87 input    0.00 | X-H torsion
[ 16507 5380 5379 5378 ] final  166.71 input    0.00 | X-H torsion
[ 16510 1701 1700 1699 ] final  -82.64 input   -0.00 | X-H torsion
[ 16513 5589 5588 5587 ] final   28.71 input    0.00 | X-H torsion
[ 16515 2668 2667 2666 ] final  125.84 input    0.00 | X-H torsion
[ 16517 5327 5326 5325 ] final  121.37 input   -0.00 | X-H torsion
[ 16520 5431 5430 5429 ] final   -5.35 input    0.00 | X-H torsion
[ 16525 5532 5531 5530 ] final   17.22 input   -0.00 | X-H torsion
[ 16530 8033 8032 8031 ] final -119.44 input    0.00 | X-H torsion
[ 16534 8371 8370 8369 ] final -144.64 input    0.00 | X-H torsion
[ 16536 4570 4569 4568 ] final -128.82 input    0.00 | X-H torsion
[ 16539 4518 4517 4516 ] final -119.01 input    0.00 | X-H torsion
[ 16542 5228 5227 5226 ] final  117.98 input    0.00 | X-H torsion
[ 16544 5277 5276 5275 ] final  -10.84 input    0.00 | X-H torsion
[ 16548 8418 8417 8416 ] final   -6.93 input    0.00 | X-H torsion
[ 16551 2006 2005 2004 ] final  121.75 input    0.00 | X-H torsion
[ 16556 1821 1820 1819 ] final  145.17 input    0.00 | X-H torsion

> <Gold.Protein.ActiveResidues>
 THR48   LEU49   GLY50   THR51   GLY52   ARG56   VAL57   MET58   LEU59   TYR69  
 ALA70   MET71   LYS72   ILE73   GLU91   LEU95   VAL104  LYS105  LEU106  MET118 
 VAL119  MET120  GLU121  TYR122  VAL123  PRO124  GLY125  GLY126  GLU127  GLU170 
 ASN171  LEU172  LEU173  ILE174  ASP175  GLN181  VAL182  THR183  ASP184  PHE185 
 ASN326  PHE327  ASP328  TYR330 

> <Gold.Protein.RotatedAtoms>
    2.7716  -15.1522   20.9124 H   0  0  0  0  0  0  0  0  0  0  0  0  # atno 1772 bound_to 1742
    0.9048  -13.3986   20.6727 H   0  0  0  0  0  0  0  0  0  0  0  0  # atno 1801 bound_to 1791
   -0.0590  -13.9579   24.2278 H   0  0  0  0  0  0  0  0  0  0  0  0  # atno 1839 bound_to 1818
   -2.8651  -15.4184   26.3734 H   0  0  0  0  0  0  0  0  0  0  0  0  # atno 1864 bound_to 1854
   -0.2116  -17.8938   22.7707 H   0  0  0  0  0  0  0  0  0  0  0  0  # atno 2083 bound_to 2067
    2.5039  -19.0256   20.9460 H   0  0  0  0  0  0  0  0  0  0  0  0  # atno 2134 bound_to 2117
    5.2828  -18.5538   18.1095 H   0  0  0  0  0  0  0  0  0  0  0  0  # atno 2184 bound_to 2168
    4.8837  -20.9472   11.3276 H   0  0  0  0  0  0  0  0  0  0  0  0  # atno 2684 bound_to 2665
    1.2855  -21.4921   13.0438 H   0  0  0  0  0  0  0  0  0  0  0  0  # atno 2724 bound_to 2714
    2.4445  -22.3575   16.2917 H   0  0  0  0  0  0  0  0  0  0  0  0  # atno 2767 bound_to 2750
   -0.5058  -23.4678   18.8582 H   0  0  0  0  0  0  0  0  0  0  0  0  # atno 2822 bound_to 2803
    0.7213  -23.6091   22.2271 H   0  0  0  0  0  0  0  0  0  0  0  0  # atno 2884 bound_to 2867
   -9.1610  -21.6773   10.9542 H   0  0  0  0  0  0  0  0  0  0  0  0  # atno 4530 bound_to 4515
   -6.2309  -24.3706    8.9341 H   0  0  0  0  0  0  0  0  0  0  0  0  # atno 4589 bound_to 4567
    0.0330  -27.4625   17.8018 H   0  0  0  0  0  0  0  0  0  0  0  0  # atno 5299 bound_to 5274
   -0.4807  -24.2998   15.1865 H   0  0  0  0  0  0  0  0  0  0  0  0  # atno 5342 bound_to 5324
   -0.9813  -23.8383   11.9858 H   0  0  0  0  0  0  0  0  0  0  0  0  # atno 5392 bound_to 5377
   -0.2227  -21.2291    9.5875 H   0  0  0  0  0  0  0  0  0  0  0  0  # atno 5454 bound_to 5428
    3.1790  -13.1901   10.8797 H   0  0  0  0  0  0  0  0  0  0  0  0  # atno 5462 bound_to 5439
   -1.1592  -18.5935   10.3666 H   0  0  0  0  0  0  0  0  0  0  0  0  # atno 5506 bound_to 5481
   -0.3262  -12.3310    7.9401 H   0  0  0  0  0  0  0  0  0  0  0  0  # atno 5575 bound_to 5565
   -2.6696  -10.6878   10.1297 H   0  0  0  0  0  0  0  0  0  0  0  0  # atno 5596 bound_to 5586
   -4.2938  -10.6486   12.7052 H   0  0  0  0  0  0  0  0  0  0  0  0  # atno 5632 bound_to 5617
  -11.0826  -12.5716   17.3654 H   0  0  0  0  0  0  0  0  0  0  0  0  # atno 7884 bound_to 7874
  -10.8333  -14.1692   15.5117 H   0  0  0  0  0  0  0  0  0  0  0  0  # atno 7924 bound_to 7916
   -9.2140  -13.8192   11.7740 H   0  0  0  0  0  0  0  0  0  0  0  0  # atno 7991 bound_to 7973
   -5.5918  -12.9714    9.9501 H   0  0  0  0  0  0  0  0  0  0  0  0  # atno 8046 bound_to 8030
   -9.3217  -18.6652   13.5716 H   0  0  0  0  0  0  0  0  0  0  0  0  # atno 8477 bound_to 8463
   -6.8923  -17.4118   16.0357 H   0  0  0  0  0  0  0  0  0  0  0  0  # atno 8483 bound_to 8469
   -8.5826  -21.0598   17.4213 H   0  0  0  0  0  0  0  0  0  0  0  0  # atno 8522 bound_to 8507
  -10.1878  -22.6477   19.9251 H   0  0  0  0  0  0  0  0  0  0  0  0  # atno 8569 bound_to 8549
    1.4132   -8.9230   17.9891 H   0  0  0  0  0  0  0  0  0  0  0  0  # atno 15411 bound_to 15403
   -2.0806   -9.6453   22.2915 H   0  0  0  0  0  0  0  0  0  0  0  0  # atno 15475 bound_to 15466
    3.9566  -14.7769   19.6804 LP  0  0  0  0  0  0  0  0  0  0  0  0  # atno 16458 bound_to 1742
   -0.5232  -12.2244   19.8782 LP  0  0  0  0  0  0  0  0  0  0  0  0  # atno 16459 bound_to 1745
   -0.6725  -13.5295   18.7493 LP  0  0  0  0  0  0  0  0  0  0  0  0  # atno 16460 bound_to 1745
    1.2470  -14.9539   21.4000 LP  0  0  0  0  0  0  0  0  0  0  0  0  # atno 16461 bound_to 1791
    0.3805  -16.3369   24.3279 LP  0  0  0  0  0  0  0  0  0  0  0  0  # atno 16462 bound_to 1794
    0.5773  -16.2270   22.6106 LP  0  0  0  0  0  0  0  0  0  0  0  0  # atno 16463 bound_to 1794
   -1.7944  -14.0656   24.0355 LP  0  0  0  0  0  0  0  0  0  0  0  0  # atno 16464 bound_to 1818
    0.9871  -19.0817   23.2445 LP  0  0  0  0  0  0  0  0  0  0  0  0  # atno 16465 bound_to 2067
    1.3926  -16.5420   20.9055 LP  0  0  0  0  0  0  0  0  0  0  0  0  # atno 16466 bound_to 2070
    3.0872  -16.9000   20.8871 LP  0  0  0  0  0  0  0  0  0  0  0  0  # atno 16467 bound_to 2070
    2.0365  -19.7246   19.4109 LP  0  0  0  0  0  0  0  0  0  0  0  0  # atno 16468 bound_to 2117
   -3.9690   -9.6161   14.0823 LP  0  0  0  0  0  0  0  0  0  0  0  0  # atno 16469 bound_to 5617
   -7.8770  -13.6050   18.5882 LP  0  0  0  0  0  0  0  0  0  0  0  0  # atno 16474 bound_to 7834
   -7.2620  -12.5020   17.4028 LP  0  0  0  0  0  0  0  0  0  0  0  0  # atno 16475 bound_to 7834
   -9.3879  -12.4880   17.7692 LP  0  0  0  0  0  0  0  0  0  0  0  0  # atno 16476 bound_to 7874
  -10.5207  -16.6067   15.8704 LP  0  0  0  0  0  0  0  0  0  0  0  0  # atno 16477 bound_to 7877
  -10.2892  -16.0264   14.2550 LP  0  0  0  0  0  0  0  0  0  0  0  0  # atno 16478 bound_to 7877
   -9.5522  -12.9986   15.3142 LP  0  0  0  0  0  0  0  0  0  0  0  0  # atno 16479 bound_to 7916
   -8.2672  -17.6888   16.8615 LP  0  0  0  0  0  0  0  0  0  0  0  0  # atno 16480 bound_to 8469
   -8.3267  -17.3156   15.2728 LP  0  0  0  0  0  0  0  0  0  0  0  0  # atno 16481 bound_to 8469
   -1.8348  -10.9552   21.3581 LP  0  0  0  0  0  0  0  0  0  0  0  0  # atno 16484 bound_to 15466
   -1.2919   -9.4924   20.8765 LP  0  0  0  0  0  0  0  0  0  0  0  0  # atno 16485 bound_to 15466
   -8.9823  -11.5209   13.6555 LP  0  0  0  0  0  0  0  0  0  0  0  0  # atno 16486 bound_to 7919
   -8.0853  -11.6927   12.1838 LP  0  0  0  0  0  0  0  0  0  0  0  0  # atno 16487 bound_to 7919
   -8.3455  -14.7463   12.9702 LP  0  0  0  0  0  0  0  0  0  0  0  0  # atno 16488 bound_to 7973
  -10.8118  -18.8012   14.4815 LP  0  0  0  0  0  0  0  0  0  0  0  0  # atno 16489 bound_to 8463
  -11.3548  -18.8686   17.7086 LP  0  0  0  0  0  0  0  0  0  0  0  0  # atno 16490 bound_to 8466
  -10.9881  -18.1655   16.1687 LP  0  0  0  0  0  0  0  0  0  0  0  0  # atno 16491 bound_to 8466
   -9.7540  -19.8066   17.0357 LP  0  0  0  0  0  0  0  0  0  0  0  0  # atno 16492 bound_to 8507
    0.4338  -23.5538   14.8945 LP  0  0  0  0  0  0  0  0  0  0  0  0  # atno 16495 bound_to 2717
   -0.3320  -23.3319   16.4322 LP  0  0  0  0  0  0  0  0  0  0  0  0  # atno 16496 bound_to 2717
    1.0513  -23.3919   19.6603 LP  0  0  0  0  0  0  0  0  0  0  0  0  # atno 16497 bound_to 2803
   -1.5947  -13.8347   10.8131 LP  0  0  0  0  0  0  0  0  0  0  0  0  # atno 16498 bound_to 5484
   -0.6342  -15.0361   11.6093 LP  0  0  0  0  0  0  0  0  0  0  0  0  # atno 16499 bound_to 5484
    4.3866  -20.8466   17.1990 LP  0  0  0  0  0  0  0  0  0  0  0  0  # atno 16500 bound_to 2120
    2.8258  -20.1136   17.0356 LP  0  0  0  0  0  0  0  0  0  0  0  0  # atno 16501 bound_to 2120
    4.1314  -17.4793   17.3553 LP  0  0  0  0  0  0  0  0  0  0  0  0  # atno 16502 bound_to 2168
    2.7828  -22.0239   13.7711 LP  0  0  0  0  0  0  0  0  0  0  0  0  # atno 16503 bound_to 2714
    1.5115  -21.3638   17.3905 LP  0  0  0  0  0  0  0  0  0  0  0  0  # atno 16504 bound_to 2750
    2.2844  -22.4709   21.0208 LP  0  0  0  0  0  0  0  0  0  0  0  0  # atno 16505 bound_to 2753
    2.0498  -21.1904   19.8783 LP  0  0  0  0  0  0  0  0  0  0  0  0  # atno 16506 bound_to 2753
   -1.4348  -20.1069   11.7203 LP  0  0  0  0  0  0  0  0  0  0  0  0  # atno 16507 bound_to 5380
   -2.5885  -21.3081   11.2446 LP  0  0  0  0  0  0  0  0  0  0  0  0  # atno 16508 bound_to 5380
    0.0634  -17.3896   10.7101 LP  0  0  0  0  0  0  0  0  0  0  0  0  # atno 16509 bound_to 5481
    4.2953  -12.2749   20.9299 LP  0  0  0  0  0  0  0  0  0  0  0  0  # atno 16510 bound_to 1701
    4.8202  -12.6994   19.3348 LP  0  0  0  0  0  0  0  0  0  0  0  0  # atno 16511 bound_to 1701
   -1.4543  -11.6914   10.8875 LP  0  0  0  0  0  0  0  0  0  0  0  0  # atno 16512 bound_to 5586
   -4.5016  -11.6729   10.7995 LP  0  0  0  0  0  0  0  0  0  0  0  0  # atno 16513 bound_to 5589
   -5.7907  -10.6696   11.3753 LP  0  0  0  0  0  0  0  0  0  0  0  0  # atno 16514 bound_to 5589
    3.8999  -19.8711   14.2288 LP  0  0  0  0  0  0  0  0  0  0  0  0  # atno 16515 bound_to 2668
    4.8643  -21.2994   14.4010 LP  0  0  0  0  0  0  0  0  0  0  0  0  # atno 16516 bound_to 2668
    1.0499  -23.7287   11.8285 LP  0  0  0  0  0  0  0  0  0  0  0  0  # atno 16517 bound_to 5327
    0.4380  -22.7751   13.1385 LP  0  0  0  0  0  0  0  0  0  0  0  0  # atno 16518 bound_to 5327
    0.8545  -21.6907   10.8830 LP  0  0  0  0  0  0  0  0  0  0  0  0  # atno 16519 bound_to 5428
    0.1577  -19.7694    8.1411 LP  0  0  0  0  0  0  0  0  0  0  0  0  # atno 16520 bound_to 5431
   -0.9681  -18.4671    7.9503 LP  0  0  0  0  0  0  0  0  0  0  0  0  # atno 16521 bound_to 5431
    4.5563  -13.7050   11.5763 LP  0  0  0  0  0  0  0  0  0  0  0  0  # atno 16522 bound_to 5439
    3.1995  -13.5364   12.4694 LP  0  0  0  0  0  0  0  0  0  0  0  0  # atno 16523 bound_to 5439
    1.7923  -11.5066    9.8876 LP  0  0  0  0  0  0  0  0  0  0  0  0  # atno 16525 bound_to 5532
    0.3292  -10.5933   10.0462 LP  0  0  0  0  0  0  0  0  0  0  0  0  # atno 16526 bound_to 5532
   -1.2803  -12.8131    9.3273 LP  0  0  0  0  0  0  0  0  0  0  0  0  # atno 16527 bound_to 5565
   -2.1899  -24.5048   10.9134 LP  0  0  0  0  0  0  0  0  0  0  0  0  # atno 16528 bound_to 5377
   -7.2561  -12.4641   10.1417 LP  0  0  0  0  0  0  0  0  0  0  0  0  # atno 16529 bound_to 8030
   -3.5809  -12.0896    7.0696 LP  0  0  0  0  0  0  0  0  0  0  0  0  # atno 16530 bound_to 8033
   -3.8523  -12.6471    8.6869 LP  0  0  0  0  0  0  0  0  0  0  0  0  # atno 16531 bound_to 8033
    5.5916  -22.5106   11.6679 LP  0  0  0  0  0  0  0  0  0  0  0  0  # atno 16532 bound_to 2665
   -0.1085  -25.8292   14.4385 LP  0  0  0  0  0  0  0  0  0  0  0  0  # atno 16533 bound_to 5324
   -9.2773  -17.0917   12.5406 LP  0  0  0  0  0  0  0  0  0  0  0  0  # atno 16534 bound_to 8371
   -9.2318  -15.9123   11.2729 LP  0  0  0  0  0  0  0  0  0  0  0  0  # atno 16535 bound_to 8371
   -3.2145  -25.9818   11.5041 LP  0  0  0  0  0  0  0  0  0  0  0  0  # atno 16536 bound_to 4570
   -4.4656  -24.7841   11.5231 LP  0  0  0  0  0  0  0  0  0  0  0  0  # atno 16537 bound_to 4570
   -9.5581  -23.1790   10.1610 LP  0  0  0  0  0  0  0  0  0  0  0  0  # atno 16538 bound_to 4515
   -7.7073  -25.7719   11.9961 LP  0  0  0  0  0  0  0  0  0  0  0  0  # atno 16539 bound_to 4518
   -9.0871  -25.1539   11.1509 LP  0  0  0  0  0  0  0  0  0  0  0  0  # atno 16540 bound_to 4518
   -6.8489  -24.5725   10.5658 LP  0  0  0  0  0  0  0  0  0  0  0  0  # atno 16541 bound_to 4567
    0.2894  -25.1898   18.4445 LP  0  0  0  0  0  0  0  0  0  0  0  0  # atno 16542 bound_to 5228
   -1.4216  -24.9205   18.4292 LP  0  0  0  0  0  0  0  0  0  0  0  0  # atno 16543 bound_to 5228
   -0.4259  -28.0847   14.2141 LP  0  0  0  0  0  0  0  0  0  0  0  0  # atno 16544 bound_to 5277
   -1.4481  -26.9946   13.3386 LP  0  0  0  0  0  0  0  0  0  0  0  0  # atno 16545 bound_to 5277
  -10.5413  -21.0883   12.1401 LP  0  0  0  0  0  0  0  0  0  0  0  0  # atno 16548 bound_to 8418
   -9.4205  -21.2499   13.4508 LP  0  0  0  0  0  0  0  0  0  0  0  0  # atno 16549 bound_to 8418
   -1.2451  -27.5317   16.6120 LP  0  0  0  0  0  0  0  0  0  0  0  0  # atno 16550 bound_to 5274
   -0.2745  -21.1654   22.8502 LP  0  0  0  0  0  0  0  0  0  0  0  0  # atno 16551 bound_to 2006
    1.1804  -21.2626   23.7851 LP  0  0  0  0  0  0  0  0  0  0  0  0  # atno 16552 bound_to 2006
  -10.8960  -22.0745   18.4386 LP  0  0  0  0  0  0  0  0  0  0  0  0  # atno 16555 bound_to 8549
   -4.0686  -13.9431   26.4848 LP  0  0  0  0  0  0  0  0  0  0  0  0  # atno 16556 bound_to 1821
   -2.6079  -13.0132   26.5238 LP  0  0  0  0  0  0  0  0  0  0  0  0  # atno 16557 bound_to 1821
   -1.9804  -16.6354   27.2770 LP  0  0  0  0  0  0  0  0  0  0  0  0  # atno 16558 bound_to 1854

> <Gold.Score>
     Fitness  S(hb_ext) S(vdw_ext)  S(hb_int)    S(int)      intcor
     35.32       6.00      21.79       0.00      -0.65      -0.82

> <Gold.Goldscore.Fitness>
35.3212

> <Gold.Goldscore.Internal.Vdw>
-1.0584

> <Gold.Goldscore.Internal.Torsion>
-0.4057

> <Gold.Goldscore.External.Vdw>
21.7946

> <Gold.Goldscore.Internal.HBond>
0.0000

> <Gold.Goldscore.External.HBond>
6.0000

> <Gold.Goldscore.Internal.Correction>
-0.8177

> <Gold.Goldscore.Hbonds>
donor molecule, donor type, donor heavy atom, donor atom, acceptor molecule, acceptor atom, score
      L1  H     8    22       P1  7881  1.00

> <Gold.Goldscore.Internal.Vdw.Weighted>
-1.0584

> <Gold.Goldscore.Internal.Torsion.Weighted>
-0.4057

> <Gold.Goldscore.External.Vdw.Weighted>
29.9675

> <Gold.Goldscore.Internal.HBond.Weighted>
0.0000

> <Gold.Goldscore.External.HBond.Weighted>
6.0000

> <Gold.Goldscore.Internal.Correction.Weighted>
-0.8177

> <Gold.Rescore>
     Score     S(PLP)   S(hbond)     S(cho)   S(metal)  DE(clash)   DE(tors)     intcor
     31.11     -28.40       1.00       0.00       0.00       0.00       0.15       ----

> <Gold.PLP.Fitness>
31.1095

> <Gold.PLP.PLP>
-28.4048

> <Gold.PLP.part.hbond>
-1.0000

> <Gold.PLP.part.metal>
0.0000

> <Gold.PLP.part.buried>
-0.9907

> <Gold.PLP.part.nonpolar>
-27.5462

> <Gold.PLP.part.repulsive>
0.4432

> <Gold.PLP.ligand.clash>
0.0000

> <Gold.PLP.ligand.torsion>
0.1477

> <Gold.PLP.Chemscore.Hbond>
1.0000

> <Gold.PLP.Chemscore.CHOScore>
0.0000

> <Gold.PLP.Chemscore.Metal>
0.0000

> <Gold.Chemscore.Hbonds>
donor molecule, donor type, donor heavy atom, donor atom, acceptor molecule, acceptor atom, score
      L1  H     8    22       P1  7881  0.70

> <Gold.PLP.Chemscore.Internal.Correction>
   9.000000E+99

