#       Name:                CT1002167954
#       Creating user name   hitesit
#       Creation time:       Sun Apr 16 22:51:04 2023


#       File generated by GOLD software.
#

@<TRIPOS>MOLECULE
CT1002167954|ligand_prepared|mol2|1|dock8
    29    30     1
SMALL
NO_CHARGES


@<TRIPOS>ATOM
      1 C1         124.7846 138.9392  95.5500 C.3            1 RES1               0.0000
      2 C2         125.1696 139.7202  96.8230 C.ar           1 RES1               0.0000
      3 C3         125.9282 139.1423  94.5604 C.2            1 RES1               0.0000
      4 C4         124.5856 137.4907  95.9820 C.2            1 RES1               0.0000
      5 C5         123.4728 139.4258  94.8912 C.3            1 RES1               0.0000
      6 C6         124.2543 140.5697  97.4372 C.ar           1 RES1               0.0000
      7 C7         126.4332 139.5998  97.3952 C.ar           1 RES1               0.0000
      8 N8         126.7696 138.0913  94.3429 N.am           1 RES1               0.0000
      9 O9         126.1124 140.2205  94.0092 O.2            1 RES1               0.0000
     10 N10        125.4572 136.5507  95.4979 N.am           1 RES1               0.0000
     11 O11        123.6919 137.1573  96.7505 O.2            1 RES1               0.0000
     12 C12        123.2252 138.8381  93.5108 C.3            1 RES1               0.0000
     13 C13        124.5889 141.2710  98.5837 C.ar           1 RES1               0.0000
     14 C14        126.7659 140.3023  98.5417 C.ar           1 RES1               0.0000
     15 C15        126.5588 136.7900  94.7224 C.2            1 RES1               0.0000
     16 C16        125.8446 141.1375  99.1369 C.ar           1 RES1               0.0000
     17 O17        127.3265 135.8986  94.3716 O.2            1 RES1               0.0000
     18 H18        122.6312 139.1621  95.5435 H              1 RES1               0.0000
     19 H19        123.5034 140.5193  94.8090 H              1 RES1               0.0000
     20 H20        123.2621 140.6893  97.0149 H              1 RES1               0.0000
     21 H21        127.1744 138.9493  96.9435 H              1 RES1               0.0000
     22 H22        127.6357 138.2913  93.8529 H              1 RES1               0.0000
     23 H23        125.2672 135.5828  95.7378 H              1 RES1               0.0000
     24 H24        122.2924 139.2121  93.0941 H              1 RES1               0.0000
     25 H25        124.0309 139.1021  92.8290 H              1 RES1               0.0000
     26 H26        123.1638 137.7529  93.5590 H              1 RES1               0.0000
     27 H27        123.8607 141.9282  99.0476 H              1 RES1               0.0000
     28 H28        127.7555 140.1946  98.9733 H              1 RES1               0.0000
     29 H29        126.1063 141.6868 100.0353 H              1 RES1               0.0000
@<TRIPOS>BOND
    1    1    2 1     
    2    1    3 1     
    3    1    4 1     
    4    1    5 1     
    5    2    6 ar    
    6    2    7 ar    
    7    3    8 1     
    8    3    9 2     
    9    4   10 1     
   10    4   11 2     
   11    5   12 1     
   12    5   18 1     
   13    5   19 1     
   14    6   13 ar    
   15    6   20 1     
   16    7   14 ar    
   17    7   21 1     
   18    8   15 1     
   19    8   22 1     
   20   10   15 1     
   21   10   23 1     
   22   12   24 1     
   23   12   25 1     
   24   12   26 1     
   25   13   16 ar    
   26   13   27 1     
   27   14   16 ar    
   28   14   28 1     
   29   15   17 2     
   30   16   29 1     
@<TRIPOS>SUBSTRUCTURE
      1 RES1           1
@<TRIPOS>SET
DONOR_HYDROGENS      STATIC     ATOMS    <user>   **** ""
2 22 23
ATOM$RED        STATIC     ATOMS    COLORGROUP SYSTEM
2 22 23
@<TRIPOS>COMMENT
> <Gold.Version>
2022.3.0

> <Gold.Id.Protein>
unknown|7rmi_clean|pdb

> <Gold.Protein.RotatedTorsions>
[ 4419 4410 4409 4407 ] final  115.15 input   60.00 | X-H torsion
[ 7286 7277 7276 7274 ] final  -11.00 input   59.98 | X-H torsion
[ 7448 7439 7438 7436 ] final   44.34 input   59.99 | X-H torsion
[ 5718 5713 5712 5709 ] final -167.89 input   60.00 | X-H torsion
[ 4298 4286 4285 4282 ] final   85.06 input   60.01 | X-H torsion
[ 6139 6130 6129 6127 ] final  -28.67 input   59.98 | X-H torsion
[ 6229 6224 6223 6220 ] final   -3.60 input   60.02 | X-H torsion
[ 7183 7174 7173 7171 ] final  -38.37 input   60.02 | X-H torsion

> <Gold.Protein.ActiveResidues>
 GLN24   PHE25   GLN27   MET81   PHE84   ASN85   THR86   VAL88   ASN89   PHE90  
 TYR92   ALA93   VAL94   HIS95   ASN96   GLU97   TRP98   TYR100  TYR104  CYS105 
 HIS108  ASN109  PRO112  ILE113  ALA114  ALA115  VAL116  PHE117  LEU161  ALA162 
 GLN165  SER169  THR170  GLU172  MET174  PRO175  ARG177  VAL178  VAL179  CYS180 
 MET181  ILE182  GLU183  TRP184  TYR196  HIS197  VAL200  THR201  ILE204  TRP261 
 PHE264  HIS265  PHE267  PHE268  LEU269  PRO271  TYR272  PRO275  LEU277  TYR278 
 LEU279  LYS280  LYS281  PHE282  ILE283  GLN284  GLN285  VAL286  TYR287  LEU288 
 ILE290  MET291  ALA294  MET295 

> <Gold.Protein.RotatedAtoms>
  123.7005  138.9405  111.4117 H   0  0  0  0  0  0  0  0  0  0  0  0  # atno 4298 bound_to 4286
  126.8770  146.0734   96.6053 H   0  0  0  0  0  0  0  0  0  0  0  0  # atno 4419 bound_to 4410
  132.1782  150.5108  101.3142 H   0  0  0  0  0  0  0  0  0  0  0  0  # atno 5718 bound_to 5713
  139.7015  141.5631  105.8660 H   0  0  0  0  0  0  0  0  0  0  0  0  # atno 6139 bound_to 6130
  138.7988  132.5595  103.7799 H   0  0  0  0  0  0  0  0  0  0  0  0  # atno 6229 bound_to 6224
  139.0517  138.7775   96.0513 H   0  0  0  0  0  0  0  0  0  0  0  0  # atno 7183 bound_to 7174
  132.4045  133.9245   93.5900 H   0  0  0  0  0  0  0  0  0  0  0  0  # atno 7286 bound_to 7277
  127.1565  139.6977  101.6344 H   0  0  0  0  0  0  0  0  0  0  0  0  # atno 7448 bound_to 7439
  125.5625  146.2982   95.6727 LP  0  0  0  0  0  0  0  0  0  0  0  0  # atno 14307 bound_to 4410
  126.2030  144.8054   95.8398 LP  0  0  0  0  0  0  0  0  0  0  0  0  # atno 14308 bound_to 4410
  131.1616  134.4423   94.5034 LP  0  0  0  0  0  0  0  0  0  0  0  0  # atno 14309 bound_to 7277
  132.3135  135.4921   94.0159 LP  0  0  0  0  0  0  0  0  0  0  0  0  # atno 14310 bound_to 7277
  126.3595  138.9365  102.8318 LP  0  0  0  0  0  0  0  0  0  0  0  0  # atno 14329 bound_to 7439
  125.5762  140.0028  101.8747 LP  0  0  0  0  0  0  0  0  0  0  0  0  # atno 14330 bound_to 7439
  132.4684  149.4107  100.1506 LP  0  0  0  0  0  0  0  0  0  0  0  0  # atno 14371 bound_to 5713
  132.5945  151.0050   99.8206 LP  0  0  0  0  0  0  0  0  0  0  0  0  # atno 14372 bound_to 5713
  123.9115  138.2583  109.9495 LP  0  0  0  0  0  0  0  0  0  0  0  0  # atno 14387 bound_to 4286
  122.8596  137.6052  111.0143 LP  0  0  0  0  0  0  0  0  0  0  0  0  # atno 14388 bound_to 4286
  138.4565  141.2147  104.8771 LP  0  0  0  0  0  0  0  0  0  0  0  0  # atno 14389 bound_to 6130
  139.0791  142.7240  104.9098 LP  0  0  0  0  0  0  0  0  0  0  0  0  # atno 14390 bound_to 6130
  138.7614  131.1503  102.9664 LP  0  0  0  0  0  0  0  0  0  0  0  0  # atno 14404 bound_to 6224
  139.6621  132.3936  102.4101 LP  0  0  0  0  0  0  0  0  0  0  0  0  # atno 14405 bound_to 6224
  138.6317  137.8731   97.3374 LP  0  0  0  0  0  0  0  0  0  0  0  0  # atno 14408 bound_to 7174
  137.5455  138.1699   96.1547 LP  0  0  0  0  0  0  0  0  0  0  0  0  # atno 14409 bound_to 7174

> <Gold.Score>
     Fitness  S(hb_ext) S(vdw_ext)  S(hb_int)    S(int)      intcor
     40.35       0.29      29.75       0.00      -0.83      -0.76

> <Gold.Goldscore.Fitness>
40.3531

> <Gold.Goldscore.Internal.Vdw>
-1.0494

> <Gold.Goldscore.Internal.Torsion>
-0.5501

> <Gold.Goldscore.External.Vdw>
29.7471

> <Gold.Goldscore.Internal.HBond>
0.0000

> <Gold.Goldscore.External.HBond>
0.2854

> <Gold.Goldscore.Internal.Correction>
-0.7650

> <Gold.Goldscore.Hbonds>
donor molecule, donor type, donor heavy atom, donor atom, acceptor molecule, acceptor atom, score
      P1  H  4470  4475       L1     9  0.08
      L1  H    10    23       P1  7362  0.06

> <Gold.Goldscore.Internal.Vdw.Weighted>
-1.0494

> <Gold.Goldscore.Internal.Torsion.Weighted>
-0.5501

> <Gold.Goldscore.External.Vdw.Weighted>
40.9023

> <Gold.Goldscore.Internal.HBond.Weighted>
0.0000

> <Gold.Goldscore.External.HBond.Weighted>
0.2854

> <Gold.Goldscore.Internal.Correction.Weighted>
-0.7650

> <Gold.Rescore>
     Score     S(PLP)   S(hbond)     S(cho)   S(metal)  DE(clash)   DE(tors)     intcor
     29.47     -24.87       1.58       0.00       0.00       0.00       0.07       ----

> <Gold.PLP.Fitness>
29.4687

> <Gold.PLP.PLP>
-24.8718

> <Gold.PLP.part.hbond>
-2.0000

> <Gold.PLP.part.metal>
0.0000

> <Gold.PLP.part.buried>
8.5622

> <Gold.PLP.part.nonpolar>
-32.9893

> <Gold.PLP.part.repulsive>
0.3391

> <Gold.PLP.ligand.clash>
0.0000

> <Gold.PLP.ligand.torsion>
0.0709

> <Gold.PLP.Chemscore.Hbond>
1.5796

> <Gold.PLP.Chemscore.CHOScore>
0.0000

> <Gold.PLP.Chemscore.Metal>
0.0000

> <Gold.Chemscore.Hbonds>
donor molecule, donor type, donor heavy atom, donor atom, acceptor molecule, acceptor atom, score
      L1  H    10    23       P1  7362  1.00
      P1  H  4470  4475       L1     9  0.54

> <Gold.PLP.Chemscore.Internal.Correction>
   9.000000E+99

#       Name:                CT1002167954
#       Creating user name   hitesit
#       Creation time:       Sun Apr 16 22:50:59 2023


#       File generated by GOLD software.
#

@<TRIPOS>MOLECULE
CT1002167954|ligand_prepared|mol2|1|dock3
    29    30     1
SMALL
NO_CHARGES


@<TRIPOS>ATOM
      1 C1         131.1029 140.6508 103.7180 C.3            1 RES1               0.0000
      2 C2         132.2745 139.6807 103.4632 C.ar           1 RES1               0.0000
      3 C3         131.3724 141.8830 102.8594 C.2            1 RES1               0.0000
      4 C4         129.8335 139.8952 103.3407 C.2            1 RES1               0.0000
      5 C5         130.9719 141.0986 105.1925 C.3            1 RES1               0.0000
      6 C6         132.9690 139.7097 102.2576 C.ar           1 RES1               0.0000
      7 C7         132.6733 138.7546 104.4233 C.ar           1 RES1               0.0000
      8 N8         130.6099 142.0534 101.7417 N.am           1 RES1               0.0000
      9 O9         132.2669 142.6723 103.1374 O.2            1 RES1               0.0000
     10 N10        129.1104 140.3495 102.2691 N.am           1 RES1               0.0000
     11 O11        129.4619 138.9006 103.9515 O.2            1 RES1               0.0000
     12 C12        130.0402 142.2834 105.3930 C.3            1 RES1               0.0000
     13 C13        134.0259 138.8463 102.0214 C.ar           1 RES1               0.0000
     14 C14        133.7304 137.8918 104.1851 C.ar           1 RES1               0.0000
     15 C15        129.4575 141.3760 101.4336 C.2            1 RES1               0.0000
     16 C16        134.4076 137.9372 102.9850 C.ar           1 RES1               0.0000
     17 O17        128.7827 141.6909 100.4576 O.2            1 RES1               0.0000
     18 H18        130.6018 140.2539 105.7865 H              1 RES1               0.0000
     19 H19        131.9669 141.3640 105.5706 H              1 RES1               0.0000
     20 H20        132.6815 140.4166 101.4865 H              1 RES1               0.0000
     21 H21        132.1543 138.7003 105.3743 H              1 RES1               0.0000
     22 H22        130.9257 142.7486 101.0730 H              1 RES1               0.0000
     23 H23        128.2318 139.8790 102.0764 H              1 RES1               0.0000
     24 H24        129.9844 142.5566 106.4446 H              1 RES1               0.0000
     25 H25        130.3921 143.1494 104.8361 H              1 RES1               0.0000
     26 H26        129.0351 142.0459 105.0507 H              1 RES1               0.0000
     27 H27        134.5548 138.8850 101.0748 H              1 RES1               0.0000
     28 H28        134.0269 137.1776 104.9460 H              1 RES1               0.0000
     29 H29        135.2358 137.2611 102.8000 H              1 RES1               0.0000
@<TRIPOS>BOND
    1    1    2 1     
    2    1    3 1     
    3    1    4 1     
    4    1    5 1     
    5    2    6 ar    
    6    2    7 ar    
    7    3    8 1     
    8    3    9 2     
    9    4   10 1     
   10    4   11 2     
   11    5   12 1     
   12    5   18 1     
   13    5   19 1     
   14    6   13 ar    
   15    6   20 1     
   16    7   14 ar    
   17    7   21 1     
   18    8   15 1     
   19    8   22 1     
   20   10   15 1     
   21   10   23 1     
   22   12   24 1     
   23   12   25 1     
   24   12   26 1     
   25   13   16 ar    
   26   13   27 1     
   27   14   16 ar    
   28   14   28 1     
   29   15   17 2     
   30   16   29 1     
@<TRIPOS>SUBSTRUCTURE
      1 RES1           1
@<TRIPOS>SET
DONOR_HYDROGENS      STATIC     ATOMS    <user>   **** ""
2 22 23
ATOM$RED        STATIC     ATOMS    COLORGROUP SYSTEM
2 22 23
@<TRIPOS>COMMENT
> <Gold.Version>
2022.3.0

> <Gold.Id.Protein>
unknown|7rmi_clean|pdb

> <Gold.Protein.RotatedTorsions>
[ 4419 4410 4409 4407 ] final  174.44 input   60.00 | X-H torsion
[ 7286 7277 7276 7274 ] final   47.47 input   59.98 | X-H torsion
[ 7448 7439 7438 7436 ] final  -78.91 input   59.99 | X-H torsion
[ 5718 5713 5712 5709 ] final  129.41 input   60.00 | X-H torsion
[ 4298 4286 4285 4282 ] final  -58.24 input   60.01 | X-H torsion
[ 6139 6130 6129 6127 ] final  -53.92 input   59.98 | X-H torsion
[ 6229 6224 6223 6220 ] final  140.08 input   60.02 | X-H torsion
[ 7183 7174 7173 7171 ] final -176.53 input   60.02 | X-H torsion

> <Gold.Protein.ActiveResidues>
 GLN24   PHE25   GLN27   MET81   PHE84   ASN85   THR86   VAL88   ASN89   PHE90  
 TYR92   ALA93   VAL94   HIS95   ASN96   GLU97   TRP98   TYR100  TYR104  CYS105 
 HIS108  ASN109  PRO112  ILE113  ALA114  ALA115  VAL116  PHE117  LEU161  ALA162 
 GLN165  SER169  THR170  GLU172  MET174  PRO175  ARG177  VAL178  VAL179  CYS180 
 MET181  ILE182  GLU183  TRP184  TYR196  HIS197  VAL200  THR201  ILE204  TRP261 
 PHE264  HIS265  PHE267  PHE268  LEU269  PRO271  TYR272  PRO275  LEU277  TYR278 
 LEU279  LYS280  LYS281  PHE282  ILE283  GLN284  GLN285  VAL286  TYR287  LEU288 
 ILE290  MET291  ALA294  MET295 

> <Gold.Protein.RotatedAtoms>
  123.6808  137.9574  109.9313 H   0  0  0  0  0  0  0  0  0  0  0  0  # atno 4298 bound_to 4286
  126.8689  145.1678   96.4118 H   0  0  0  0  0  0  0  0  0  0  0  0  # atno 4419 bound_to 4410
  132.2417  149.5894  101.0041 H   0  0  0  0  0  0  0  0  0  0  0  0  # atno 5718 bound_to 5713
  139.4899  141.2196  105.7961 H   0  0  0  0  0  0  0  0  0  0  0  0  # atno 6139 bound_to 6130
  139.6033  132.0348  102.2812 H   0  0  0  0  0  0  0  0  0  0  0  0  # atno 6229 bound_to 6224
  138.3501  137.7841   97.3087 H   0  0  0  0  0  0  0  0  0  0  0  0  # atno 7183 bound_to 7174
  132.7552  134.7684   93.5636 H   0  0  0  0  0  0  0  0  0  0  0  0  # atno 7286 bound_to 7277
  126.3076  138.9502  102.8323 H   0  0  0  0  0  0  0  0  0  0  0  0  # atno 7448 bound_to 7439
  126.2196  146.6494   96.2338 LP  0  0  0  0  0  0  0  0  0  0  0  0  # atno 14307 bound_to 4410
  125.5541  145.3665   95.4736 LP  0  0  0  0  0  0  0  0  0  0  0  0  # atno 14308 bound_to 4410
  131.5904  133.7518   94.0704 LP  0  0  0  0  0  0  0  0  0  0  0  0  # atno 14309 bound_to 7277
  131.5315  135.3326   94.4755 LP  0  0  0  0  0  0  0  0  0  0  0  0  # atno 14310 bound_to 7277
  125.6038  140.0271  101.8357 LP  0  0  0  0  0  0  0  0  0  0  0  0  # atno 14329 bound_to 7439
  127.1868  139.6651  101.6643 LP  0  0  0  0  0  0  0  0  0  0  0  0  # atno 14330 bound_to 7439
  132.6535  150.1500   99.5329 LP  0  0  0  0  0  0  0  0  0  0  0  0  # atno 14371 bound_to 5713
  132.3454  151.1936  100.7505 LP  0  0  0  0  0  0  0  0  0  0  0  0  # atno 14372 bound_to 5713
  122.8638  137.8158  111.3314 LP  0  0  0  0  0  0  0  0  0  0  0  0  # atno 14387 bound_to 4286
  123.9271  139.0376  111.1230 LP  0  0  0  0  0  0  0  0  0  0  0  0  # atno 14388 bound_to 4286
  138.3622  141.5600  104.6729 LP  0  0  0  0  0  0  0  0  0  0  0  0  # atno 14389 bound_to 6130
  139.3864  142.7244  105.1844 LP  0  0  0  0  0  0  0  0  0  0  0  0  # atno 14390 bound_to 6130
  139.0272  132.8077  103.5927 LP  0  0  0  0  0  0  0  0  0  0  0  0  # atno 14404 bound_to 6224
  138.5866  131.2643  103.2921 LP  0  0  0  0  0  0  0  0  0  0  0  0  # atno 14405 bound_to 6224
  137.6649  138.3388   95.9408 LP  0  0  0  0  0  0  0  0  0  0  0  0  # atno 14408 bound_to 7174
  139.2187  138.7043   96.2853 LP  0  0  0  0  0  0  0  0  0  0  0  0  # atno 14409 bound_to 7174

> <Gold.Score>
     Fitness  S(hb_ext) S(vdw_ext)  S(hb_int)    S(int)      intcor
     35.60       1.70      25.24       0.00      -0.81      -0.78

> <Gold.Goldscore.Fitness>
35.6050

> <Gold.Goldscore.Internal.Vdw>
-0.9454

> <Gold.Goldscore.Internal.Torsion>
-0.6478

> <Gold.Goldscore.External.Vdw>
25.2438

> <Gold.Goldscore.Internal.HBond>
0.0000

> <Gold.Goldscore.External.HBond>
1.7042

> <Gold.Goldscore.Internal.Correction>
-0.7838

> <Gold.Goldscore.Hbonds>
donor molecule, donor type, donor heavy atom, donor atom, acceptor molecule, acceptor atom, score
      L1  H    10    23       P1  7439  0.85

> <Gold.Goldscore.Internal.Vdw.Weighted>
-0.9454

> <Gold.Goldscore.Internal.Torsion.Weighted>
-0.6478

> <Gold.Goldscore.External.Vdw.Weighted>
34.7102

> <Gold.Goldscore.Internal.HBond.Weighted>
0.0000

> <Gold.Goldscore.External.HBond.Weighted>
1.7042

> <Gold.Goldscore.Internal.Correction.Weighted>
-0.7838

> <Gold.Rescore>
     Score     S(PLP)   S(hbond)     S(cho)   S(metal)  DE(clash)   DE(tors)     intcor
     38.42     -37.34       1.22       0.00       0.00       0.35       1.12       ----

> <Gold.PLP.Fitness>
38.4225

> <Gold.PLP.PLP>
-37.3358

> <Gold.PLP.part.hbond>
-2.2557

> <Gold.PLP.part.metal>
0.0000

> <Gold.PLP.part.buried>
-6.1422

> <Gold.PLP.part.nonpolar>
-30.0524

> <Gold.PLP.part.repulsive>
0.2370

> <Gold.PLP.ligand.clash>
0.3467

> <Gold.PLP.ligand.torsion>
1.1163

> <Gold.PLP.Chemscore.Hbond>
1.2220

> <Gold.PLP.Chemscore.CHOScore>
0.0000

> <Gold.PLP.Chemscore.Metal>
0.0000

> <Gold.Chemscore.Hbonds>
donor molecule, donor type, donor heavy atom, donor atom, acceptor molecule, acceptor atom, score
      L1  H    10    23       P1  7439  0.50
      P1  H  5650  5655       L1     9  0.25

> <Gold.PLP.Chemscore.Internal.Correction>
   9.000000E+99

#       Name:                CT1002167954
#       Creating user name   hitesit
#       Creation time:       Sun Apr 16 22:51:00 2023


#       File generated by GOLD software.
#

@<TRIPOS>MOLECULE
CT1002167954|ligand_prepared|mol2|1|dock4
    29    30     1
SMALL
NO_CHARGES


@<TRIPOS>ATOM
      1 C1         126.1089 139.2487  95.5869 C.3            1 RES1               0.0000
      2 C2         127.4474 138.8608  96.2478 C.ar           1 RES1               0.0000
      3 C3         125.0584 139.2117  96.6930 C.2            1 RES1               0.0000
      4 C4         126.3196 140.6292  94.9749 C.2            1 RES1               0.0000
      5 C5         125.6678 138.2880  94.4582 C.3            1 RES1               0.0000
      6 C6         127.7130 139.2100  97.5685 C.ar           1 RES1               0.0000
      7 C7         128.4233 138.1527  95.5516 C.ar           1 RES1               0.0000
      8 N8         124.5938 140.4045  97.1633 N.am           1 RES1               0.0000
      9 O9         124.6725 138.1527  97.1726 O.2            1 RES1               0.0000
     10 N10        125.6080 141.6779  95.4961 N.am           1 RES1               0.0000
     11 O11        127.1077 140.8211  94.0572 O.2            1 RES1               0.0000
     12 C12        124.2435 138.5186  93.9784 C.3            1 RES1               0.0000
     13 C13        128.9097 138.8614  98.1724 C.ar           1 RES1               0.0000
     14 C14        129.6196 137.8053  96.1574 C.ar           1 RES1               0.0000
     15 C15        124.7776 141.6337  96.5827 C.2            1 RES1               0.0000
     16 C16        129.8635 138.1586  97.4675 C.ar           1 RES1               0.0000
     17 O17        124.2149 142.6308  97.0256 O.2            1 RES1               0.0000
     18 H18        126.3504 138.4056  93.6075 H              1 RES1               0.0000
     19 H19        125.7561 137.2556  94.8186 H              1 RES1               0.0000
     20 H20        126.9754 139.7653  98.1382 H              1 RES1               0.0000
     21 H21        128.2536 137.8651  94.5196 H              1 RES1               0.0000
     22 H22        124.0604 140.3804  98.0265 H              1 RES1               0.0000
     23 H23        125.7064 142.5747  95.0308 H              1 RES1               0.0000
     24 H24        123.9850 137.8185  93.1868 H              1 RES1               0.0000
     25 H25        123.5354 138.3849  94.7936 H              1 RES1               0.0000
     26 H26        124.1261 139.5281  93.5897 H              1 RES1               0.0000
     27 H27        129.0974 139.1430  99.2032 H              1 RES1               0.0000
     28 H28        130.3676 137.2526  95.5986 H              1 RES1               0.0000
     29 H29        130.8008 137.8853  97.9409 H              1 RES1               0.0000
@<TRIPOS>BOND
    1    1    2 1     
    2    1    3 1     
    3    1    4 1     
    4    1    5 1     
    5    2    6 ar    
    6    2    7 ar    
    7    3    8 1     
    8    3    9 2     
    9    4   10 1     
   10    4   11 2     
   11    5   12 1     
   12    5   18 1     
   13    5   19 1     
   14    6   13 ar    
   15    6   20 1     
   16    7   14 ar    
   17    7   21 1     
   18    8   15 1     
   19    8   22 1     
   20   10   15 1     
   21   10   23 1     
   22   12   24 1     
   23   12   25 1     
   24   12   26 1     
   25   13   16 ar    
   26   13   27 1     
   27   14   16 ar    
   28   14   28 1     
   29   15   17 2     
   30   16   29 1     
@<TRIPOS>SUBSTRUCTURE
      1 RES1           1
@<TRIPOS>SET
DONOR_HYDROGENS      STATIC     ATOMS    <user>   **** ""
2 22 23
ATOM$RED        STATIC     ATOMS    COLORGROUP SYSTEM
2 22 23
@<TRIPOS>COMMENT
> <Gold.Version>
2022.3.0

> <Gold.Id.Protein>
unknown|7rmi_clean|pdb

> <Gold.Protein.RotatedTorsions>
[ 4419 4410 4409 4407 ] final  117.85 input   60.00 | X-H torsion
[ 7286 7277 7276 7274 ] final -107.16 input   59.98 | X-H torsion
[ 7448 7439 7438 7436 ] final   40.45 input   59.99 | X-H torsion
[ 5718 5713 5712 5709 ] final   54.00 input   60.00 | X-H torsion
[ 4298 4286 4285 4282 ] final   -9.30 input   60.01 | X-H torsion
[ 6139 6130 6129 6127 ] final  -80.02 input   59.98 | X-H torsion
[ 6229 6224 6223 6220 ] final   47.30 input   60.02 | X-H torsion
[ 7183 7174 7173 7171 ] final   62.77 input   60.02 | X-H torsion

> <Gold.Protein.ActiveResidues>
 GLN24   PHE25   GLN27   MET81   PHE84   ASN85   THR86   VAL88   ASN89   PHE90  
 TYR92   ALA93   VAL94   HIS95   ASN96   GLU97   TRP98   TYR100  TYR104  CYS105 
 HIS108  ASN109  PRO112  ILE113  ALA114  ALA115  VAL116  PHE117  LEU161  ALA162 
 GLN165  SER169  THR170  GLU172  MET174  PRO175  ARG177  VAL178  VAL179  CYS180 
 MET181  ILE182  GLU183  TRP184  TYR196  HIS197  VAL200  THR201  ILE204  TRP261 
 PHE264  HIS265  PHE267  PHE268  LEU269  PRO271  TYR272  PRO275  LEU277  TYR278 
 LEU279  LYS280  LYS281  PHE282  ILE283  GLN284  GLN285  VAL286  TYR287  LEU288 
 ILE290  MET291  ALA294  MET295 

> <Gold.Protein.RotatedAtoms>
  124.0748  138.5930  110.1367 H   0  0  0  0  0  0  0  0  0  0  0  0  # atno 4298 bound_to 4286
  126.8935  146.0328   96.6092 H   0  0  0  0  0  0  0  0  0  0  0  0  # atno 4419 bound_to 4410
  132.5418  149.5489   99.8997 H   0  0  0  0  0  0  0  0  0  0  0  0  # atno 5718 bound_to 5713
  139.1897  140.9883  105.6080 H   0  0  0  0  0  0  0  0  0  0  0  0  # atno 6139 bound_to 6130
  139.3017  132.9193  103.2643 H   0  0  0  0  0  0  0  0  0  0  0  0  # atno 6229 bound_to 6224
  137.6768  138.3428   95.9363 H   0  0  0  0  0  0  0  0  0  0  0  0  # atno 7183 bound_to 7174
  131.2558  134.0946   94.3593 H   0  0  0  0  0  0  0  0  0  0  0  0  # atno 7286 bound_to 7277
  127.1852  139.6559  101.6727 H   0  0  0  0  0  0  0  0  0  0  0  0  # atno 7448 bound_to 7439
  125.5817  146.3321   95.6940 LP  0  0  0  0  0  0  0  0  0  0  0  0  # atno 14307 bound_to 4410
  126.1671  144.8124   95.8146 LP  0  0  0  0  0  0  0  0  0  0  0  0  # atno 14308 bound_to 4410
  131.9923  135.5397   94.2310 LP  0  0  0  0  0  0  0  0  0  0  0  0  # atno 14309 bound_to 7277
  132.6398  134.2234   93.5135 LP  0  0  0  0  0  0  0  0  0  0  0  0  # atno 14310 bound_to 7277
  126.2974  138.9498  102.8396 LP  0  0  0  0  0  0  0  0  0  0  0  0  # atno 14329 bound_to 7439
  125.6094  140.0316  101.8282 LP  0  0  0  0  0  0  0  0  0  0  0  0  # atno 14330 bound_to 7439
  132.5328  151.1683  100.0607 LP  0  0  0  0  0  0  0  0  0  0  0  0  # atno 14371 bound_to 5713
  132.1639  150.2161  101.3351 LP  0  0  0  0  0  0  0  0  0  0  0  0  # atno 14372 bound_to 5713
  122.9737  137.4994  110.6259 LP  0  0  0  0  0  0  0  0  0  0  0  0  # atno 14387 bound_to 4286
  123.4205  138.7140  111.6217 LP  0  0  0  0  0  0  0  0  0  0  0  0  # atno 14388 bound_to 4286
  138.4088  141.9710  104.5718 LP  0  0  0  0  0  0  0  0  0  0  0  0  # atno 14389 bound_to 6130
  139.6420  142.5462  105.4747 LP  0  0  0  0  0  0  0  0  0  0  0  0  # atno 14390 bound_to 6130
  138.4879  131.5538  103.6138 LP  0  0  0  0  0  0  0  0  0  0  0  0  # atno 14404 bound_to 6224
  139.4294  131.6281  102.2816 LP  0  0  0  0  0  0  0  0  0  0  0  0  # atno 14405 bound_to 6224
  139.2234  138.7003   96.2950 LP  0  0  0  0  0  0  0  0  0  0  0  0  # atno 14408 bound_to 7174
  138.3380  137.7803   97.3129 LP  0  0  0  0  0  0  0  0  0  0  0  0  # atno 14409 bound_to 7174

> <Gold.Score>
     Fitness  S(hb_ext) S(vdw_ext)  S(hb_int)    S(int)      intcor
     34.00       0.33      24.81       0.00      -0.45      -0.78

> <Gold.Goldscore.Fitness>
33.9999

> <Gold.Goldscore.Internal.Vdw>
-0.6894

> <Gold.Goldscore.Internal.Torsion>
-0.5405

> <Gold.Goldscore.External.Vdw>
24.8119

> <Gold.Goldscore.Internal.HBond>
0.0000

> <Gold.Goldscore.External.HBond>
0.3297

> <Gold.Goldscore.Internal.Correction>
-0.7838

> <Gold.Goldscore.Hbonds>
donor molecule, donor type, donor heavy atom, donor atom, acceptor molecule, acceptor atom, score
      P1  H  4470  4475       L1    11  0.15
      L1  H    10    23       P1  4469  0.02

> <Gold.Goldscore.Internal.Vdw.Weighted>
-0.6894

> <Gold.Goldscore.Internal.Torsion.Weighted>
-0.5405

> <Gold.Goldscore.External.Vdw.Weighted>
34.1164

> <Gold.Goldscore.Internal.HBond.Weighted>
0.0000

> <Gold.Goldscore.External.HBond.Weighted>
0.3297

> <Gold.Goldscore.Internal.Correction.Weighted>
-0.7838

> <Gold.Rescore>
     Score     S(PLP)   S(hbond)     S(cho)   S(metal)  DE(clash)   DE(tors)     intcor
     31.67     -33.04       0.00       0.00       0.00       0.00       0.68       ----

> <Gold.PLP.Fitness>
31.6695

> <Gold.PLP.PLP>
-33.0354

> <Gold.PLP.part.hbond>
-0.6409

> <Gold.PLP.part.metal>
0.0000

> <Gold.PLP.part.buried>
-4.1908

> <Gold.PLP.part.nonpolar>
-29.3240

> <Gold.PLP.part.repulsive>
0.3645

> <Gold.PLP.ligand.clash>
0.0000

> <Gold.PLP.ligand.torsion>
0.6830

> <Gold.PLP.Chemscore.Hbond>
0.0000

> <Gold.PLP.Chemscore.CHOScore>
0.0000

> <Gold.PLP.Chemscore.Metal>
0.0000

> <Gold.Chemscore.Hbonds>
donor molecule, donor type, donor heavy atom, donor atom, acceptor molecule, acceptor atom, score
      L1  H    10    23       P1  4469  0.19

> <Gold.PLP.Chemscore.Internal.Correction>
   9.000000E+99

#       Name:                CT1002167954
#       Creating user name   hitesit
#       Creation time:       Sun Apr 16 22:51:06 2023


#       File generated by GOLD software.
#

@<TRIPOS>MOLECULE
CT1002167954|ligand_prepared|mol2|1|dock10
    29    30     1
SMALL
NO_CHARGES


@<TRIPOS>ATOM
      1 C1         130.2041 142.3894 102.1076 C.3            1 RES1               0.0000
      2 C2         131.4724 141.7509 101.5056 C.ar           1 RES1               0.0000
      3 C3         129.2210 141.2470 102.3458 C.2            1 RES1               0.0000
      4 C4         130.6483 143.1034 103.3794 C.2            1 RES1               0.0000
      5 C5         129.5312 143.4320 101.1846 C.3            1 RES1               0.0000
      6 C6         132.1245 140.7131 102.1648 C.ar           1 RES1               0.0000
      7 C7         131.9999 142.1864 100.2929 C.ar           1 RES1               0.0000
      8 N8         129.0196 140.8450 103.6333 N.am           1 RES1               0.0000
      9 O9         128.6611 140.6812 101.4149 O.2            1 RES1               0.0000
     10 N10        130.1794 142.6319 104.5776 N.am           1 RES1               0.0000
     11 O11        131.4133 144.0597 103.3559 O.2            1 RES1               0.0000
     12 C12        128.2417 144.0081 101.7482 C.3            1 RES1               0.0000
     13 C13        133.2609 140.1297 101.6297 C.ar           1 RES1               0.0000
     14 C14        133.1366 141.6017  99.7596 C.ar           1 RES1               0.0000
     15 C15        129.4097 141.5161 104.7643 C.2            1 RES1               0.0000
     16 C16        133.7675 140.5732 100.4266 C.ar           1 RES1               0.0000
     17 O17        129.0730 141.1242 105.8779 O.2            1 RES1               0.0000
     18 H18        130.2364 144.2531 101.0063 H              1 RES1               0.0000
     19 H19        129.3144 142.9604 100.2182 H              1 RES1               0.0000
     20 H20        131.7419 140.3524 103.1138 H              1 RES1               0.0000
     21 H21        131.5208 142.9948  99.7511 H              1 RES1               0.0000
     22 H22        128.5341 139.9638 103.7677 H              1 RES1               0.0000
     23 H23        130.4270 143.1618 105.4072 H              1 RES1               0.0000
     24 H24        127.8110 144.7338 101.0615 H              1 RES1               0.0000
     25 H25        127.5081 143.2219 101.9142 H              1 RES1               0.0000
     26 H26        128.4247 144.5069 102.6976 H              1 RES1               0.0000
     27 H27        133.7545 139.3215 102.1592 H              1 RES1               0.0000
     28 H28        133.5322 141.9544  98.8128 H              1 RES1               0.0000
     29 H29        134.6575 140.1157 100.0074 H              1 RES1               0.0000
@<TRIPOS>BOND
    1    1    2 1     
    2    1    3 1     
    3    1    4 1     
    4    1    5 1     
    5    2    6 ar    
    6    2    7 ar    
    7    3    8 1     
    8    3    9 2     
    9    4   10 1     
   10    4   11 2     
   11    5   12 1     
   12    5   18 1     
   13    5   19 1     
   14    6   13 ar    
   15    6   20 1     
   16    7   14 ar    
   17    7   21 1     
   18    8   15 1     
   19    8   22 1     
   20   10   15 1     
   21   10   23 1     
   22   12   24 1     
   23   12   25 1     
   24   12   26 1     
   25   13   16 ar    
   26   13   27 1     
   27   14   16 ar    
   28   14   28 1     
   29   15   17 2     
   30   16   29 1     
@<TRIPOS>SUBSTRUCTURE
      1 RES1           1
@<TRIPOS>SET
DONOR_HYDROGENS      STATIC     ATOMS    <user>   **** ""
2 22 23
ATOM$RED        STATIC     ATOMS    COLORGROUP SYSTEM
2 22 23
@<TRIPOS>COMMENT
> <Gold.Version>
2022.3.0

> <Gold.Id.Protein>
unknown|7rmi_clean|pdb

> <Gold.Protein.RotatedTorsions>
[ 4419 4410 4409 4407 ] final  -53.63 input   60.00 | X-H torsion
[ 7286 7277 7276 7274 ] final  -52.35 input   59.98 | X-H torsion
[ 7448 7439 7438 7436 ] final  167.07 input   59.99 | X-H torsion
[ 5718 5713 5712 5709 ] final -163.23 input   60.00 | X-H torsion
[ 4298 4286 4285 4282 ] final   12.65 input   60.01 | X-H torsion
[ 6139 6130 6129 6127 ] final  -97.49 input   59.98 | X-H torsion
[ 6229 6224 6223 6220 ] final  124.46 input   60.02 | X-H torsion
[ 7183 7174 7173 7171 ] final  147.68 input   60.02 | X-H torsion

> <Gold.Protein.ActiveResidues>
 GLN24   PHE25   GLN27   MET81   PHE84   ASN85   THR86   VAL88   ASN89   PHE90  
 TYR92   ALA93   VAL94   HIS95   ASN96   GLU97   TRP98   TYR100  TYR104  CYS105 
 HIS108  ASN109  PRO112  ILE113  ALA114  ALA115  VAL116  PHE117  LEU161  ALA162 
 GLN165  SER169  THR170  GLU172  MET174  PRO175  ARG177  VAL178  VAL179  CYS180 
 MET181  ILE182  GLU183  TRP184  TYR196  HIS197  VAL200  THR201  ILE204  TRP261 
 PHE264  HIS265  PHE267  PHE268  LEU269  PRO271  TYR272  PRO275  LEU277  TYR278 
 LEU279  LYS280  LYS281  PHE282  ILE283  GLN284  GLN285  VAL286  TYR287  LEU288 
 ILE290  MET291  ALA294  MET295 

> <Gold.Protein.RotatedAtoms>
  124.1282  138.8300  110.3977 H   0  0  0  0  0  0  0  0  0  0  0  0  # atno 4298 bound_to 4286
  125.4945  145.5524   95.4698 H   0  0  0  0  0  0  0  0  0  0  0  0  # atno 4419 bound_to 4410
  132.1848  150.5843  101.2959 H   0  0  0  0  0  0  0  0  0  0  0  0  # atno 5718 bound_to 5713
  138.9724  140.9283  105.4346 H   0  0  0  0  0  0  0  0  0  0  0  0  # atno 6139 bound_to 6130
  139.6518  132.2731  102.3562 H   0  0  0  0  0  0  0  0  0  0  0  0  # atno 6229 bound_to 6224
  137.8406  137.7540   97.0428 H   0  0  0  0  0  0  0  0  0  0  0  0  # atno 7183 bound_to 7174
  131.8574  133.6999   93.8853 H   0  0  0  0  0  0  0  0  0  0  0  0  # atno 7286 bound_to 7277
  125.5602  139.9769  101.9081 H   0  0  0  0  0  0  0  0  0  0  0  0  # atno 7448 bound_to 7439
  126.7809  145.0232   96.3144 LP  0  0  0  0  0  0  0  0  0  0  0  0  # atno 14307 bound_to 4410
  126.3772  146.6053   96.3418 LP  0  0  0  0  0  0  0  0  0  0  0  0  # atno 14308 bound_to 4410
  131.3245  135.0862   94.5497 LP  0  0  0  0  0  0  0  0  0  0  0  0  # atno 14309 bound_to 7277
  132.7016  135.0744   93.6722 LP  0  0  0  0  0  0  0  0  0  0  0  0  # atno 14310 bound_to 7277
  127.1401  139.7293  101.6065 LP  0  0  0  0  0  0  0  0  0  0  0  0  # atno 14329 bound_to 7439
  126.4032  138.9289  102.8243 LP  0  0  0  0  0  0  0  0  0  0  0  0  # atno 14330 bound_to 7439
  132.4485  149.3905  100.2218 LP  0  0  0  0  0  0  0  0  0  0  0  0  # atno 14371 bound_to 5713
  132.6077  150.9510   99.7678 LP  0  0  0  0  0  0  0  0  0  0  0  0  # atno 14372 bound_to 5713
  123.1539  137.5292  110.3167 LP  0  0  0  0  0  0  0  0  0  0  0  0  # atno 14387 bound_to 4286
  123.1867  138.4455  111.6680 LP  0  0  0  0  0  0  0  0  0  0  0  0  # atno 14388 bound_to 4286
  138.5182  142.2355  104.5779 LP  0  0  0  0  0  0  0  0  0  0  0  0  # atno 14389 bound_to 6130
  139.7512  142.3422  105.6432 LP  0  0  0  0  0  0  0  0  0  0  0  0  # atno 14390 bound_to 6130
  138.8707  132.6594  103.7309 LP  0  0  0  0  0  0  0  0  0  0  0  0  # atno 14404 bound_to 6224
  138.6943  131.1728  103.0784 LP  0  0  0  0  0  0  0  0  0  0  0  0  # atno 14405 bound_to 6224
  138.0994  138.6380   95.7012 LP  0  0  0  0  0  0  0  0  0  0  0  0  # atno 14408 bound_to 7174
  139.2971  138.4355   96.7926 LP  0  0  0  0  0  0  0  0  0  0  0  0  # atno 14409 bound_to 7174

> <Gold.Score>
     Fitness  S(hb_ext) S(vdw_ext)  S(hb_int)    S(int)      intcor
     32.31       0.67      23.05       0.00      -0.05      -0.76

> <Gold.Goldscore.Fitness>
32.3082

> <Gold.Goldscore.Internal.Vdw>
-0.4373

> <Gold.Goldscore.Internal.Torsion>
-0.3825

> <Gold.Goldscore.External.Vdw>
23.0481

> <Gold.Goldscore.Internal.HBond>
0.0000

> <Gold.Goldscore.External.HBond>
0.6719

> <Gold.Goldscore.Internal.Correction>
-0.7650

> <Gold.Goldscore.Hbonds>
donor molecule, donor type, donor heavy atom, donor atom, acceptor molecule, acceptor atom, score
      P1  H  4348  4353       L1    17  0.34

> <Gold.Goldscore.Internal.Vdw.Weighted>
-0.4373

> <Gold.Goldscore.Internal.Torsion.Weighted>
-0.3825

> <Gold.Goldscore.External.Vdw.Weighted>
31.6911

> <Gold.Goldscore.Internal.HBond.Weighted>
0.0000

> <Gold.Goldscore.External.HBond.Weighted>
0.6719

> <Gold.Goldscore.Internal.Correction.Weighted>
-0.7650

> <Gold.Rescore>
     Score     S(PLP)   S(hbond)     S(cho)   S(metal)  DE(clash)   DE(tors)     intcor
     28.41     -25.74       0.91       0.00       0.00       0.00       0.04       ----

> <Gold.PLP.Fitness>
28.4052

> <Gold.PLP.PLP>
-25.7426

> <Gold.PLP.part.hbond>
-3.4180

> <Gold.PLP.part.metal>
0.0000

> <Gold.PLP.part.buried>
-5.6228

> <Gold.PLP.part.nonpolar>
-20.7944

> <Gold.PLP.part.repulsive>
3.4636

> <Gold.PLP.ligand.clash>
0.0000

> <Gold.PLP.ligand.torsion>
0.0367

> <Gold.PLP.Chemscore.Hbond>
0.9120

> <Gold.PLP.Chemscore.CHOScore>
0.0000

> <Gold.PLP.Chemscore.Metal>
0.0000

> <Gold.Chemscore.Hbonds>
donor molecule, donor type, donor heavy atom, donor atom, acceptor molecule, acceptor atom, score
      P1  H  4348  4353       L1    17  1.00

> <Gold.PLP.Chemscore.Internal.Correction>
   9.000000E+99

#       Name:                CT1002167954
#       Creating user name   hitesit
#       Creation time:       Sun Apr 16 22:50:56 2023


#       File generated by GOLD software.
#

@<TRIPOS>MOLECULE
CT1002167954|ligand_prepared|mol2|1|dock1
    29    30     1
SMALL
NO_CHARGES


@<TRIPOS>ATOM
      1 C1         130.8894 140.5594 103.0478 C.3            1 RES1               0.0000
      2 C2         132.2081 139.7971 102.8054 C.ar           1 RES1               0.0000
      3 C3         131.2534 141.7967 103.8631 C.2            1 RES1               0.0000
      4 C4         130.3162 140.8691 101.6693 C.2            1 RES1               0.0000
      5 C5         129.8334 139.7470 103.8328 C.3            1 RES1               0.0000
      6 C6         133.0564 140.1620 101.7642 C.ar           1 RES1               0.0000
      7 C7         132.5905 138.7306 103.6147 C.ar           1 RES1               0.0000
      8 N8         131.2448 143.0006 103.2224 N.am           1 RES1               0.0000
      9 O9         131.5814 141.7126 105.0402 O.2            1 RES1               0.0000
     10 N10        130.2358 142.1828 101.2878 N.am           1 RES1               0.0000
     11 O11        129.9488 139.9866 100.9036 O.2            1 RES1               0.0000
     12 C12        128.4470 140.3715 103.8220 C.3            1 RES1               0.0000
     13 C13        134.2453 139.4871 101.5420 C.ar           1 RES1               0.0000
     14 C14        133.7797 138.0569 103.3905 C.ar           1 RES1               0.0000
     15 C15        130.7026 143.2607 101.9895 C.2            1 RES1               0.0000
     16 C16        134.6080 138.4345 102.3551 C.ar           1 RES1               0.0000
     17 O17        130.6434 144.4077 101.5559 O.2            1 RES1               0.0000
     18 H18        129.7705 138.7402 103.4019 H              1 RES1               0.0000
     19 H19        130.1671 139.6462 104.8730 H              1 RES1               0.0000
     20 H20        132.7866 140.9862 101.1124 H              1 RES1               0.0000
     21 H21        131.9540 138.4154 104.4346 H              1 RES1               0.0000
     22 H22        131.6820 143.7795 103.7046 H              1 RES1               0.0000
     23 H23        129.7863 142.3750 100.3982 H              1 RES1               0.0000
     24 H24        127.7449 139.7619 104.3868 H              1 RES1               0.0000
     25 H25        128.4677 141.3643 104.2666 H              1 RES1               0.0000
     26 H26        128.0735 140.4636 102.8042 H              1 RES1               0.0000
     27 H27        134.8930 139.7873 100.7249 H              1 RES1               0.0000
     28 H28        134.0608 137.2287 104.0326 H              1 RES1               0.0000
     29 H29        135.5395 137.9062 102.1810 H              1 RES1               0.0000
@<TRIPOS>BOND
    1    1    2 1     
    2    1    3 1     
    3    1    4 1     
    4    1    5 1     
    5    2    6 ar    
    6    2    7 ar    
    7    3    8 1     
    8    3    9 2     
    9    4   10 1     
   10    4   11 2     
   11    5   12 1     
   12    5   18 1     
   13    5   19 1     
   14    6   13 ar    
   15    6   20 1     
   16    7   14 ar    
   17    7   21 1     
   18    8   15 1     
   19    8   22 1     
   20   10   15 1     
   21   10   23 1     
   22   12   24 1     
   23   12   25 1     
   24   12   26 1     
   25   13   16 ar    
   26   13   27 1     
   27   14   16 ar    
   28   14   28 1     
   29   15   17 2     
   30   16   29 1     
@<TRIPOS>SUBSTRUCTURE
      1 RES1           1
@<TRIPOS>SET
DONOR_HYDROGENS      STATIC     ATOMS    <user>   **** ""
2 22 23
ATOM$RED        STATIC     ATOMS    COLORGROUP SYSTEM
2 22 23
@<TRIPOS>COMMENT
> <Gold.Version>
2022.3.0

> <Gold.Id.Protein>
unknown|7rmi_clean|pdb

> <Gold.Protein.RotatedTorsions>
[ 4419 4410 4409 4407 ] final  -85.07 input   60.00 | X-H torsion
[ 7286 7277 7276 7274 ] final  125.56 input   59.98 | X-H torsion
[ 7448 7439 7438 7436 ] final -140.93 input   59.99 | X-H torsion
[ 5718 5713 5712 5709 ] final    8.34 input   60.00 | X-H torsion
[ 4298 4286 4285 4282 ] final   53.96 input   60.01 | X-H torsion
[ 6139 6130 6129 6127 ] final  -91.01 input   59.98 | X-H torsion
[ 6229 6224 6223 6220 ] final  -57.52 input   60.02 | X-H torsion
[ 7183 7174 7173 7171 ] final   86.98 input   60.02 | X-H torsion

> <Gold.Protein.ActiveResidues>
 GLN24   PHE25   GLN27   MET81   PHE84   ASN85   THR86   VAL88   ASN89   PHE90  
 TYR92   ALA93   VAL94   HIS95   ASN96   GLU97   TRP98   TYR100  TYR104  CYS105 
 HIS108  ASN109  PRO112  ILE113  ALA114  ALA115  VAL116  PHE117  LEU161  ALA162 
 GLN165  SER169  THR170  GLU172  MET174  PRO175  ARG177  VAL178  VAL179  CYS180 
 MET181  ILE182  GLU183  TRP184  TYR196  HIS197  VAL200  THR201  ILE204  TRP261 
 PHE264  HIS265  PHE267  PHE268  LEU269  PRO271  TYR272  PRO275  LEU277  TYR278 
 LEU279  LYS280  LYS281  PHE282  ILE283  GLN284  GLN285  VAL286  TYR287  LEU288 
 ILE290  MET291  ALA294  MET295 

> <Gold.Protein.RotatedAtoms>
  123.9817  139.0376  111.0074 H   0  0  0  0  0  0  0  0  0  0  0  0  # atno 4298 bound_to 4286
  125.7211  145.1048   95.5455 H   0  0  0  0  0  0  0  0  0  0  0  0  # atno 4419 bound_to 4410
  132.6547  150.1682   99.5371 H   0  0  0  0  0  0  0  0  0  0  0  0  # atno 5718 bound_to 5713
  139.0529  140.9409  105.5021 H   0  0  0  0  0  0  0  0  0  0  0  0  # atno 6139 bound_to 6130
  138.4948  131.7676  103.7396 H   0  0  0  0  0  0  0  0  0  0  0  0  # atno 6229 bound_to 6224
  137.5332  138.1203   96.2264 H   0  0  0  0  0  0  0  0  0  0  0  0  # atno 7183 bound_to 7174
  132.0911  135.5359   94.1639 H   0  0  0  0  0  0  0  0  0  0  0  0  # atno 7286 bound_to 7277
  125.5369  139.4492  102.5366 H   0  0  0  0  0  0  0  0  0  0  0  0  # atno 7448 bound_to 7439
  126.9650  145.4440   96.5384 LP  0  0  0  0  0  0  0  0  0  0  0  0  # atno 14307 bound_to 4410
  125.9649  146.6354   96.0416 LP  0  0  0  0  0  0  0  0  0  0  0  0  # atno 14308 bound_to 4410
  132.5802  134.1206   93.5274 LP  0  0  0  0  0  0  0  0  0  0  0  0  # atno 14309 bound_to 7277
  131.2105  134.1908   94.4138 LP  0  0  0  0  0  0  0  0  0  0  0  0  # atno 14310 bound_to 7277
  126.4567  140.1379  101.3841 LP  0  0  0  0  0  0  0  0  0  0  0  0  # atno 14329 bound_to 7439
  127.1102  139.0517  102.4136 LP  0  0  0  0  0  0  0  0  0  0  0  0  # atno 14330 bound_to 7439
  132.3409  151.1873  100.7665 LP  0  0  0  0  0  0  0  0  0  0  0  0  # atno 14371 bound_to 5713
  132.2421  149.5733  100.9945 LP  0  0  0  0  0  0  0  0  0  0  0  0  # atno 14372 bound_to 5713
  123.5993  137.8607  109.9507 LP  0  0  0  0  0  0  0  0  0  0  0  0  # atno 14387 bound_to 4286
  122.8887  137.9050  111.4203 LP  0  0  0  0  0  0  0  0  0  0  0  0  # atno 14388 bound_to 4286
  138.4709  142.1405  104.5686 LP  0  0  0  0  0  0  0  0  0  0  0  0  # atno 14389 bound_to 6130
  139.7175  142.4244  105.5845 LP  0  0  0  0  0  0  0  0  0  0  0  0  # atno 14390 bound_to 6130
  139.2940  131.4349  102.3613 LP  0  0  0  0  0  0  0  0  0  0  0  0  # atno 14404 bound_to 6224
  139.4355  132.9062  103.0556 LP  0  0  0  0  0  0  0  0  0  0  0  0  # atno 14405 bound_to 6224
  138.9940  138.7967   95.9876 LP  0  0  0  0  0  0  0  0  0  0  0  0  # atno 14408 bound_to 7174
  138.7120  137.9079   97.3282 LP  0  0  0  0  0  0  0  0  0  0  0  0  # atno 14409 bound_to 7174

> <Gold.Score>
     Fitness  S(hb_ext) S(vdw_ext)  S(hb_int)    S(int)      intcor
     31.97       0.09      23.30       0.00      -0.15      -0.78

> <Gold.Goldscore.Fitness>
31.9657

> <Gold.Goldscore.Internal.Vdw>
-0.3459

> <Gold.Goldscore.Internal.Torsion>
-0.5921

> <Gold.Goldscore.External.Vdw>
23.2975

> <Gold.Goldscore.Internal.HBond>
0.0000

> <Gold.Goldscore.External.HBond>
0.0858

> <Gold.Goldscore.Internal.Correction>
-0.7838

> <Gold.Goldscore.Hbonds>
donor molecule, donor type, donor heavy atom, donor atom, acceptor molecule, acceptor atom, score
      P1  H  4721  4726       L1    17  0.04

> <Gold.Goldscore.Internal.Vdw.Weighted>
-0.3459

> <Gold.Goldscore.Internal.Torsion.Weighted>
-0.5921

> <Gold.Goldscore.External.Vdw.Weighted>
32.0341

> <Gold.Goldscore.Internal.HBond.Weighted>
0.0000

> <Gold.Goldscore.External.HBond.Weighted>
0.0858

> <Gold.Goldscore.Internal.Correction.Weighted>
-0.7838

> <Gold.Rescore>
     Score     S(PLP)   S(hbond)     S(cho)   S(metal)  DE(clash)   DE(tors)     intcor
     20.67     -20.43       1.00       0.00       0.00       1.64       0.56       ----

> <Gold.PLP.Fitness>
20.6705

> <Gold.PLP.PLP>
-20.4268

> <Gold.PLP.part.hbond>
-0.8232

> <Gold.PLP.part.metal>
0.0000

> <Gold.PLP.part.buried>
6.3729

> <Gold.PLP.part.nonpolar>
-30.2192

> <Gold.PLP.part.repulsive>
3.4445

> <Gold.PLP.ligand.clash>
1.6394

> <Gold.PLP.ligand.torsion>
0.5584

> <Gold.PLP.Chemscore.Hbond>
1.0000

> <Gold.PLP.Chemscore.CHOScore>
0.0000

> <Gold.PLP.Chemscore.Metal>
0.0000

> <Gold.Chemscore.Hbonds>
donor molecule, donor type, donor heavy atom, donor atom, acceptor molecule, acceptor atom, score
      P1  H  4721  4726       L1    17  0.53

> <Gold.PLP.Chemscore.Internal.Correction>
   9.000000E+99

#       Name:                CT1002167954
#       Creating user name   hitesit
#       Creation time:       Sun Apr 16 22:51:05 2023


#       File generated by GOLD software.
#

@<TRIPOS>MOLECULE
CT1002167954|ligand_prepared|mol2|1|dock9
    29    30     1
SMALL
NO_CHARGES


@<TRIPOS>ATOM
      1 C1         129.2235 141.7421 100.6286 C.3            1 RES1               0.0000
      2 C2         128.2112 140.9242  99.8009 C.ar           1 RES1               0.0000
      3 C3         129.6278 142.9292  99.7593 C.2            1 RES1               0.0000
      4 C4         128.5066 142.1301 101.9171 C.2            1 RES1               0.0000
      5 C5         130.4992 140.9555 101.0099 C.3            1 RES1               0.0000
      6 C6         128.6129 139.7776  99.1221 C.ar           1 RES1               0.0000
      7 C7         126.8741 141.3015  99.7091 C.ar           1 RES1               0.0000
      8 N8         129.1300 144.1545 100.0921 N.am           1 RES1               0.0000
      9 O9         130.3406 142.7860  98.7736 O.2            1 RES1               0.0000
     10 N10        128.2555 143.4591 102.1369 N.am           1 RES1               0.0000
     11 O11        128.1421 141.2954 102.7360 O.2            1 RES1               0.0000
     12 C12        131.3917 141.6800 102.0053 C.3            1 RES1               0.0000
     13 C13        127.7101 139.0335  98.3808 C.ar           1 RES1               0.0000
     14 C14        125.9729 140.5560  98.9670 C.ar           1 RES1               0.0000
     15 C15        128.5073 144.4861 101.2685 C.2            1 RES1               0.0000
     16 C16        126.3896 139.4219  98.3031 C.ar           1 RES1               0.0000
     17 O17        128.2028 145.6496 101.5148 O.2            1 RES1               0.0000
     18 H18        130.2038 139.9898 101.4382 H              1 RES1               0.0000
     19 H19        131.0764 140.7556 100.0986 H              1 RES1               0.0000
     20 H20        129.6485 139.4579  99.1697 H              1 RES1               0.0000
     21 H21        126.5241 142.1908 100.2222 H              1 RES1               0.0000
     22 H22        129.2299 144.8926  99.4024 H              1 RES1               0.0000
     23 H23        127.8427 143.7057 103.0309 H              1 RES1               0.0000
     24 H24        132.2720 141.0848 102.2384 H              1 RES1               0.0000
     25 H25        131.7247 142.6339 101.6016 H              1 RES1               0.0000
     26 H26        130.8573 141.8727 102.9333 H              1 RES1               0.0000
     27 H27        128.0433 138.1425  97.8590 H              1 RES1               0.0000
     28 H28        124.9348 140.8658  98.9081 H              1 RES1               0.0000
     29 H29        125.6825 138.8386  97.7226 H              1 RES1               0.0000
@<TRIPOS>BOND
    1    1    2 1     
    2    1    3 1     
    3    1    4 1     
    4    1    5 1     
    5    2    6 ar    
    6    2    7 ar    
    7    3    8 1     
    8    3    9 2     
    9    4   10 1     
   10    4   11 2     
   11    5   12 1     
   12    5   18 1     
   13    5   19 1     
   14    6   13 ar    
   15    6   20 1     
   16    7   14 ar    
   17    7   21 1     
   18    8   15 1     
   19    8   22 1     
   20   10   15 1     
   21   10   23 1     
   22   12   24 1     
   23   12   25 1     
   24   12   26 1     
   25   13   16 ar    
   26   13   27 1     
   27   14   16 ar    
   28   14   28 1     
   29   15   17 2     
   30   16   29 1     
@<TRIPOS>SUBSTRUCTURE
      1 RES1           1
@<TRIPOS>SET
DONOR_HYDROGENS      STATIC     ATOMS    <user>   **** ""
2 22 23
ATOM$RED        STATIC     ATOMS    COLORGROUP SYSTEM
2 22 23
@<TRIPOS>COMMENT
> <Gold.Version>
2022.3.0

> <Gold.Id.Protein>
unknown|7rmi_clean|pdb

> <Gold.Protein.RotatedTorsions>
[ 4419 4410 4409 4407 ] final  158.74 input   60.00 | X-H torsion
[ 7286 7277 7276 7274 ] final   53.03 input   59.98 | X-H torsion
[ 7448 7439 7438 7436 ] final  167.82 input   59.99 | X-H torsion
[ 5718 5713 5712 5709 ] final -162.56 input   60.00 | X-H torsion
[ 4298 4286 4285 4282 ] final  -11.57 input   60.01 | X-H torsion
[ 6139 6130 6129 6127 ] final  145.41 input   59.98 | X-H torsion
[ 6229 6224 6223 6220 ] final  -41.47 input   60.02 | X-H torsion
[ 7183 7174 7173 7171 ] final  159.67 input   60.02 | X-H torsion

> <Gold.Protein.ActiveResidues>
 GLN24   PHE25   GLN27   MET81   PHE84   ASN85   THR86   VAL88   ASN89   PHE90  
 TYR92   ALA93   VAL94   HIS95   ASN96   GLU97   TRP98   TYR100  TYR104  CYS105 
 HIS108  ASN109  PRO112  ILE113  ALA114  ALA115  VAL116  PHE117  LEU161  ALA162 
 GLN165  SER169  THR170  GLU172  MET174  PRO175  ARG177  VAL178  VAL179  CYS180 
 MET181  ILE182  GLU183  TRP184  TYR196  HIS197  VAL200  THR201  ILE204  TRP261 
 PHE264  HIS265  PHE267  PHE268  LEU269  PRO271  TYR272  PRO275  LEU277  TYR278 
 LEU279  LYS280  LYS281  PHE282  ILE283  GLN284  GLN285  VAL286  TYR287  LEU288 
 ILE290  MET291  ALA294  MET295 

> <Gold.Protein.RotatedAtoms>
  124.0642  138.5652  110.1146 H   0  0  0  0  0  0  0  0  0  0  0  0  # atno 4298 bound_to 4286
  126.9477  145.3878   96.5159 H   0  0  0  0  0  0  0  0  0  0  0  0  # atno 4419 bound_to 4410
  132.1859  150.5949  101.2927 H   0  0  0  0  0  0  0  0  0  0  0  0  # atno 5718 bound_to 5713
  138.5014  142.1906  104.5753 H   0  0  0  0  0  0  0  0  0  0  0  0  # atno 6139 bound_to 6130
  138.5398  132.0113  103.8230 H   0  0  0  0  0  0  0  0  0  0  0  0  # atno 6229 bound_to 6224
  137.9958  137.7412   97.1613 H   0  0  0  0  0  0  0  0  0  0  0  0  # atno 7183 bound_to 7174
  132.7482  134.8554   93.5883 H   0  0  0  0  0  0  0  0  0  0  0  0  # atno 7286 bound_to 7277
  125.5547  139.9708  101.9173 H   0  0  0  0  0  0  0  0  0  0  0  0  # atno 7448 bound_to 7439
  126.0131  146.6465   96.0797 LP  0  0  0  0  0  0  0  0  0  0  0  0  # atno 14307 bound_to 4410
  125.6811  145.1478   95.5228 LP  0  0  0  0  0  0  0  0  0  0  0  0  # atno 14308 bound_to 4410
  131.6609  133.7243   94.0192 LP  0  0  0  0  0  0  0  0  0  0  0  0  # atno 14309 bound_to 7277
  131.4680  135.2724   94.5018 LP  0  0  0  0  0  0  0  0  0  0  0  0  # atno 14310 bound_to 7277
  127.1336  139.7373  101.5995 LP  0  0  0  0  0  0  0  0  0  0  0  0  # atno 14329 bound_to 7439
  126.4153  138.9270  102.8219 LP  0  0  0  0  0  0  0  0  0  0  0  0  # atno 14330 bound_to 7439
  132.4456  149.3881  100.2323 LP  0  0  0  0  0  0  0  0  0  0  0  0  # atno 14371 bound_to 5713
  132.6095  150.9428   99.7605 LP  0  0  0  0  0  0  0  0  0  0  0  0  # atno 14372 bound_to 5713
  122.9590  137.5027  110.6600 LP  0  0  0  0  0  0  0  0  0  0  0  0  # atno 14387 bound_to 4286
  123.4459  138.7386  111.6098 LP  0  0  0  0  0  0  0  0  0  0  0  0  # atno 14388 bound_to 4286
  139.7372  142.3799  105.6176 LP  0  0  0  0  0  0  0  0  0  0  0  0  # atno 14389 bound_to 6130
  139.0064  140.9271  105.4685 LP  0  0  0  0  0  0  0  0  0  0  0  0  # atno 14390 bound_to 6130
  139.1343  131.2764  102.4980 LP  0  0  0  0  0  0  0  0  0  0  0  0  # atno 14404 bound_to 6224
  139.5499  132.8193  102.8350 LP  0  0  0  0  0  0  0  0  0  0  0  0  # atno 14405 bound_to 6224
  137.9310  138.5481   95.7495 LP  0  0  0  0  0  0  0  0  0  0  0  0  # atno 14408 bound_to 7174
  139.3094  138.5382   96.6250 LP  0  0  0  0  0  0  0  0  0  0  0  0  # atno 14409 bound_to 7174

> <Gold.Score>
     Fitness  S(hb_ext) S(vdw_ext)  S(hb_int)    S(int)      intcor
     30.76       1.46      21.74       0.00      -0.59      -0.76

> <Gold.Goldscore.Fitness>
30.7629

> <Gold.Goldscore.Internal.Vdw>
-0.8584

> <Gold.Goldscore.Internal.Torsion>
-0.4971

> <Gold.Goldscore.External.Vdw>
21.7437

> <Gold.Goldscore.Internal.HBond>
0.0000

> <Gold.Goldscore.External.HBond>
1.4559

> <Gold.Goldscore.Internal.Correction>
-0.7650

> <Gold.Goldscore.Hbonds>
donor molecule, donor type, donor heavy atom, donor atom, acceptor molecule, acceptor atom, score
      L1  H     8    22       P1  5901  0.53
      L1  H    10    23       P1  4706  0.20

> <Gold.Goldscore.Internal.Vdw.Weighted>
-0.8584

> <Gold.Goldscore.Internal.Torsion.Weighted>
-0.4971

> <Gold.Goldscore.External.Vdw.Weighted>
29.8976

> <Gold.Goldscore.Internal.HBond.Weighted>
0.0000

> <Gold.Goldscore.External.HBond.Weighted>
1.4559

> <Gold.Goldscore.Internal.Correction.Weighted>
-0.7650

> <Gold.Rescore>
     Score     S(PLP)   S(hbond)     S(cho)   S(metal)  DE(clash)   DE(tors)     intcor
     35.37     -32.75       0.98       0.00       0.00       0.00       0.16       ----

> <Gold.PLP.Fitness>
35.3726

> <Gold.PLP.PLP>
-32.7494

> <Gold.PLP.part.hbond>
-2.0563

> <Gold.PLP.part.metal>
0.0000

> <Gold.PLP.part.buried>
-4.3671

> <Gold.PLP.part.nonpolar>
-27.4844

> <Gold.PLP.part.repulsive>
0.3250

> <Gold.PLP.ligand.clash>
0.0000

> <Gold.PLP.ligand.torsion>
0.1618

> <Gold.PLP.Chemscore.Hbond>
0.9823

> <Gold.PLP.Chemscore.CHOScore>
0.0000

> <Gold.PLP.Chemscore.Metal>
0.0000

> <Gold.Chemscore.Hbonds>
donor molecule, donor type, donor heavy atom, donor atom, acceptor molecule, acceptor atom, score
      L1  H     8    22       P1  5901  0.02
      L1  H    10    23       P1  4347  0.11

> <Gold.PLP.Chemscore.Internal.Correction>
   9.000000E+99

#       Name:                CT1002167954
#       Creating user name   hitesit
#       Creation time:       Sun Apr 16 22:51:01 2023


#       File generated by GOLD software.
#

@<TRIPOS>MOLECULE
CT1002167954|ligand_prepared|mol2|1|dock5
    29    30     1
SMALL
NO_CHARGES


@<TRIPOS>ATOM
      1 C1         128.8550 144.0850 101.1836 C.3            1 RES1               0.0000
      2 C2         128.6513 143.1304  99.9894 C.ar           1 RES1               0.0000
      3 C3         127.9475 143.5752 102.2993 C.2            1 RES1               0.0000
      4 C4         130.3414 144.0365 101.5197 C.2            1 RES1               0.0000
      5 C5         128.4817 145.5546 100.8795 C.3            1 RES1               0.0000
      6 C6         128.1271 141.8558 100.1825 C.ar           1 RES1               0.0000
      7 C7         128.9798 143.5105  98.6909 C.ar           1 RES1               0.0000
      8 N8         128.5368 142.9414 103.3532 N.am           1 RES1               0.0000
      9 O9         126.7299 143.6925 102.2363 O.2            1 RES1               0.0000
     10 N10        130.7093 143.5079 102.7293 N.am           1 RES1               0.0000
     11 O11        131.1984 144.4360 100.7411 O.2            1 RES1               0.0000
     12 C12        128.4445 146.4452 102.1114 C.3            1 RES1               0.0000
     13 C13        127.9353 140.9935  99.1158 C.ar           1 RES1               0.0000
     14 C14        128.7875 142.6465  97.6255 C.ar           1 RES1               0.0000
     15 C15        129.8764 142.9301 103.6483 C.2            1 RES1               0.0000
     16 C16        128.2649 141.3883  97.8367 C.ar           1 RES1               0.0000
     17 O17        130.2886 142.4270 104.6896 O.2            1 RES1               0.0000
     18 H18        129.2104 145.9644 100.1694 H              1 RES1               0.0000
     19 H19        127.4960 145.5762 100.3985 H              1 RES1               0.0000
     20 H20        127.8641 141.5267 101.1823 H              1 RES1               0.0000
     21 H21        129.3933 144.4952  98.5012 H              1 RES1               0.0000
     22 H22        127.9250 142.4284 103.9799 H              1 RES1               0.0000
     23 H23        131.6954 143.5492 102.9666 H              1 RES1               0.0000
     24 H24        128.1776 147.4650 101.8422 H              1 RES1               0.0000
     25 H25        127.7117 146.0812 102.8286 H              1 RES1               0.0000
     26 H26        129.4160 146.4671 102.6009 H              1 RES1               0.0000
     27 H27        127.5251 140.0038  99.2874 H              1 RES1               0.0000
     28 H28        129.0489 142.9612  96.6206 H              1 RES1               0.0000
     29 H29        128.1143 140.7127  97.0012 H              1 RES1               0.0000
@<TRIPOS>BOND
    1    1    2 1     
    2    1    3 1     
    3    1    4 1     
    4    1    5 1     
    5    2    6 ar    
    6    2    7 ar    
    7    3    8 1     
    8    3    9 2     
    9    4   10 1     
   10    4   11 2     
   11    5   12 1     
   12    5   18 1     
   13    5   19 1     
   14    6   13 ar    
   15    6   20 1     
   16    7   14 ar    
   17    7   21 1     
   18    8   15 1     
   19    8   22 1     
   20   10   15 1     
   21   10   23 1     
   22   12   24 1     
   23   12   25 1     
   24   12   26 1     
   25   13   16 ar    
   26   13   27 1     
   27   14   16 ar    
   28   14   28 1     
   29   15   17 2     
   30   16   29 1     
@<TRIPOS>SUBSTRUCTURE
      1 RES1           1
@<TRIPOS>SET
DONOR_HYDROGENS      STATIC     ATOMS    <user>   **** ""
2 22 23
ATOM$RED        STATIC     ATOMS    COLORGROUP SYSTEM
2 22 23
@<TRIPOS>COMMENT
> <Gold.Version>
2022.3.0

> <Gold.Id.Protein>
unknown|7rmi_clean|pdb

> <Gold.Protein.RotatedTorsions>
[ 4419 4410 4409 4407 ] final  120.44 input   60.00 | X-H torsion
[ 7286 7277 7276 7274 ] final   48.72 input   59.98 | X-H torsion
[ 7448 7439 7438 7436 ] final   -5.00 input   59.99 | X-H torsion
[ 5718 5713 5712 5709 ] final   69.53 input   60.00 | X-H torsion
[ 4298 4286 4285 4282 ] final   54.78 input   60.01 | X-H torsion
[ 6139 6130 6129 6127 ] final -121.47 input   59.98 | X-H torsion
[ 6229 6224 6223 6220 ] final -105.77 input   60.02 | X-H torsion
[ 7183 7174 7173 7171 ] final  -14.93 input   60.02 | X-H torsion

> <Gold.Protein.ActiveResidues>
 GLN24   PHE25   GLN27   MET81   PHE84   ASN85   THR86   VAL88   ASN89   PHE90  
 TYR92   ALA93   VAL94   HIS95   ASN96   GLU97   TRP98   TYR100  TYR104  CYS105 
 HIS108  ASN109  PRO112  ILE113  ALA114  ALA115  VAL116  PHE117  LEU161  ALA162 
 GLN165  SER169  THR170  GLU172  MET174  PRO175  ARG177  VAL178  VAL179  CYS180 
 MET181  ILE182  GLU183  TRP184  TYR196  HIS197  VAL200  THR201  ILE204  TRP261 
 PHE264  HIS265  PHE267  PHE268  LEU269  PRO271  TYR272  PRO275  LEU277  TYR278 
 LEU279  LYS280  LYS281  PHE282  ILE283  GLN284  GLN285  VAL286  TYR287  LEU288 
 ILE290  MET291  ALA294  MET295 

> <Gold.Protein.RotatedAtoms>
  123.9758  139.0379  111.0194 H   0  0  0  0  0  0  0  0  0  0  0  0  # atno 4298 bound_to 4286
  126.9080  145.9931   96.6117 H   0  0  0  0  0  0  0  0  0  0  0  0  # atno 4419 bound_to 4410
  132.4805  149.4305  100.1147 H   0  0  0  0  0  0  0  0  0  0  0  0  # atno 5718 bound_to 5713
  138.6944  140.9815  105.1676 H   0  0  0  0  0  0  0  0  0  0  0  0  # atno 6139 bound_to 6130
  138.6280  131.2274  103.2137 H   0  0  0  0  0  0  0  0  0  0  0  0  # atno 6229 bound_to 6224
  138.7512  138.8035   95.8196 H   0  0  0  0  0  0  0  0  0  0  0  0  # atno 7183 bound_to 7174
  132.7542  134.7880   93.5687 H   0  0  0  0  0  0  0  0  0  0  0  0  # atno 7286 bound_to 7277
  127.2217  139.1808  102.2170 H   0  0  0  0  0  0  0  0  0  0  0  0  # atno 7448 bound_to 7439
  125.6014  146.3633   95.7151 LP  0  0  0  0  0  0  0  0  0  0  0  0  # atno 14307 bound_to 4410
  126.1329  144.8211   95.7909 LP  0  0  0  0  0  0  0  0  0  0  0  0  # atno 14308 bound_to 4410
  131.6058  133.7449   94.0590 LP  0  0  0  0  0  0  0  0  0  0  0  0  # atno 14309 bound_to 7277
  131.5170  135.3197   94.4818 LP  0  0  0  0  0  0  0  0  0  0  0  0  # atno 14310 bound_to 7277
  125.6670  139.2817  102.6874 LP  0  0  0  0  0  0  0  0  0  0  0  0  # atno 14329 bound_to 7439
  126.2030  140.1783  101.4323 LP  0  0  0  0  0  0  0  0  0  0  0  0  # atno 14330 bound_to 7439
  132.5867  151.0329   99.8516 LP  0  0  0  0  0  0  0  0  0  0  0  0  # atno 14371 bound_to 5713
  132.1717  150.4707  101.3276 LP  0  0  0  0  0  0  0  0  0  0  0  0  # atno 14372 bound_to 5713
  123.6084  137.8701  109.9474 LP  0  0  0  0  0  0  0  0  0  0  0  0  # atno 14387 bound_to 4286
  122.8856  137.8953  111.4115 LP  0  0  0  0  0  0  0  0  0  0  0  0  # atno 14388 bound_to 4286
  138.7499  142.5338  104.6815 LP  0  0  0  0  0  0  0  0  0  0  0  0  # atno 14389 bound_to 6130
  139.7994  141.9903  105.8084 LP  0  0  0  0  0  0  0  0  0  0  0  0  # atno 14390 bound_to 6130
  139.6278  132.1264  102.2965 LP  0  0  0  0  0  0  0  0  0  0  0  0  # atno 14404 bound_to 6224
  138.9675  132.7583  103.6498 LP  0  0  0  0  0  0  0  0  0  0  0  0  # atno 14405 bound_to 6224
  138.9601  138.0471   97.2453 LP  0  0  0  0  0  0  0  0  0  0  0  0  # atno 14408 bound_to 7174
  137.5196  137.9696   96.4801 LP  0  0  0  0  0  0  0  0  0  0  0  0  # atno 14409 bound_to 7174

> <Gold.Score>
     Fitness  S(hb_ext) S(vdw_ext)  S(hb_int)    S(int)      intcor
     30.58       1.09      22.29       0.00      -1.16      -0.78

> <Gold.Goldscore.Fitness>
30.5779

> <Gold.Goldscore.Internal.Vdw>
-1.4068

> <Gold.Goldscore.Internal.Torsion>
-0.5372

> <Gold.Goldscore.External.Vdw>
22.2919

> <Gold.Goldscore.Internal.HBond>
0.0000

> <Gold.Goldscore.External.HBond>
1.0867

> <Gold.Goldscore.Internal.Correction>
-0.7838

> <Gold.Goldscore.Hbonds>
donor molecule, donor type, donor heavy atom, donor atom, acceptor molecule, acceptor atom, score
      P1  H  4721  4726       L1    11  0.31
      L1  H     8    22       P1  4347  0.23

> <Gold.Goldscore.Internal.Vdw.Weighted>
-1.4068

> <Gold.Goldscore.Internal.Torsion.Weighted>
-0.5372

> <Gold.Goldscore.External.Vdw.Weighted>
30.6513

> <Gold.Goldscore.Internal.HBond.Weighted>
0.0000

> <Gold.Goldscore.External.HBond.Weighted>
1.0867

> <Gold.Goldscore.Internal.Correction.Weighted>
-0.7838

> <Gold.Rescore>
     Score     S(PLP)   S(hbond)     S(cho)   S(metal)  DE(clash)   DE(tors)     intcor
     27.49     -23.86       1.93       0.00       0.00       0.01       1.07       ----

> <Gold.PLP.Fitness>
27.4875

> <Gold.PLP.PLP>
-23.8583

> <Gold.PLP.part.hbond>
-2.7442

> <Gold.PLP.part.metal>
0.0000

> <Gold.PLP.part.buried>
-1.3906

> <Gold.PLP.part.nonpolar>
-24.2494

> <Gold.PLP.part.repulsive>
3.3748

> <Gold.PLP.ligand.clash>
0.0068

> <Gold.PLP.ligand.torsion>
1.0710

> <Gold.PLP.Chemscore.Hbond>
1.9260

> <Gold.PLP.Chemscore.CHOScore>
0.0000

> <Gold.PLP.Chemscore.Metal>
0.0000

> <Gold.Chemscore.Hbonds>
donor molecule, donor type, donor heavy atom, donor atom, acceptor molecule, acceptor atom, score
      L1  H     8    22       P1  4347  0.68
      P1  H  4721  4726       L1    11  1.00

> <Gold.PLP.Chemscore.Internal.Correction>
   9.000000E+99

#       Name:                CT1002167954
#       Creating user name   hitesit
#       Creation time:       Sun Apr 16 22:51:02 2023


#       File generated by GOLD software.
#

@<TRIPOS>MOLECULE
CT1002167954|ligand_prepared|mol2|1|dock6
    29    30     1
SMALL
NO_CHARGES


@<TRIPOS>ATOM
      1 C1         128.9545 141.4337 100.2454 C.3            1 RES1               0.0000
      2 C2         128.0935 140.5630  99.3076 C.ar           1 RES1               0.0000
      3 C3         130.1041 141.9696  99.3970 C.2            1 RES1               0.0000
      4 C4         128.0291 142.5146 100.7931 C.2            1 RES1               0.0000
      5 C5         129.5487 140.6604 101.4455 C.3            1 RES1               0.0000
      6 C6         126.9693 141.0933  98.6819 C.ar           1 RES1               0.0000
      7 C7         128.4118 139.2309  99.0569 C.ar           1 RES1               0.0000
      8 N8         130.0645 143.2845  99.0375 N.am           1 RES1               0.0000
      9 O9         131.0112 141.2400  99.0161 O.2            1 RES1               0.0000
     10 N10        128.2794 143.8143 100.4385 N.am           1 RES1               0.0000
     11 O11        127.0754 142.2507 101.5150 O.2            1 RES1               0.0000
     12 C12        130.1693 141.5564 102.5057 C.3            1 RES1               0.0000
     13 C13        126.1930 140.3210  97.8339 C.ar           1 RES1               0.0000
     14 C14        127.6340 138.4602  98.2086 C.ar           1 RES1               0.0000
     15 C15        129.2367 144.2451  99.5608 C.2            1 RES1               0.0000
     16 C16        126.5250 139.0042  97.5963 C.ar           1 RES1               0.0000
     17 O17        129.3652 145.4257  99.2500 O.2            1 RES1               0.0000
     18 H18        128.7539 140.0631 101.9091 H              1 RES1               0.0000
     19 H19        130.3153 139.9686 101.0752 H              1 RES1               0.0000
     20 H20        126.6910 142.1270  98.8587 H              1 RES1               0.0000
     21 H21        129.2792 138.7815  99.5285 H              1 RES1               0.0000
     22 H22        130.7099 143.5811  98.3125 H              1 RES1               0.0000
     23 H23        127.6985 144.5268 100.8689 H              1 RES1               0.0000
     24 H24        130.5709 140.9637 103.3249 H              1 RES1               0.0000
     25 H25        130.9806 142.1468 102.0851 H              1 RES1               0.0000
     26 H26        129.4285 142.2408 102.9141 H              1 RES1               0.0000
     27 H27        125.3204 140.7534  97.3555 H              1 RES1               0.0000
     28 H28        127.8987 137.4241  98.0251 H              1 RES1               0.0000
     29 H29        125.9170 138.3994  96.9317 H              1 RES1               0.0000
@<TRIPOS>BOND
    1    1    2 1     
    2    1    3 1     
    3    1    4 1     
    4    1    5 1     
    5    2    6 ar    
    6    2    7 ar    
    7    3    8 1     
    8    3    9 2     
    9    4   10 1     
   10    4   11 2     
   11    5   12 1     
   12    5   18 1     
   13    5   19 1     
   14    6   13 ar    
   15    6   20 1     
   16    7   14 ar    
   17    7   21 1     
   18    8   15 1     
   19    8   22 1     
   20   10   15 1     
   21   10   23 1     
   22   12   24 1     
   23   12   25 1     
   24   12   26 1     
   25   13   16 ar    
   26   13   27 1     
   27   14   16 ar    
   28   14   28 1     
   29   15   17 2     
   30   16   29 1     
@<TRIPOS>SUBSTRUCTURE
      1 RES1           1
@<TRIPOS>SET
DONOR_HYDROGENS      STATIC     ATOMS    <user>   **** ""
2 22 23
ATOM$RED        STATIC     ATOMS    COLORGROUP SYSTEM
2 22 23
@<TRIPOS>COMMENT
> <Gold.Version>
2022.3.0

> <Gold.Id.Protein>
unknown|7rmi_clean|pdb

> <Gold.Protein.RotatedTorsions>
[ 4419 4410 4409 4407 ] final   69.25 input   60.00 | X-H torsion
[ 7286 7277 7276 7274 ] final   19.38 input   59.98 | X-H torsion
[ 7448 7439 7438 7436 ] final  116.85 input   59.99 | X-H torsion
[ 5718 5713 5712 5709 ] final -119.08 input   60.00 | X-H torsion
[ 4298 4286 4285 4282 ] final    3.46 input   60.01 | X-H torsion
[ 6139 6130 6129 6127 ] final  141.83 input   59.98 | X-H torsion
[ 6229 6224 6223 6220 ] final -157.89 input   60.02 | X-H torsion
[ 7183 7174 7173 7171 ] final -145.65 input   60.02 | X-H torsion

> <Gold.Protein.ActiveResidues>
 GLN24   PHE25   GLN27   MET81   PHE84   ASN85   THR86   VAL88   ASN89   PHE90  
 TYR92   ALA93   VAL94   HIS95   ASN96   GLU97   TRP98   TYR100  TYR104  CYS105 
 HIS108  ASN109  PRO112  ILE113  ALA114  ALA115  VAL116  PHE117  LEU161  ALA162 
 GLN165  SER169  THR170  GLU172  MET174  PRO175  ARG177  VAL178  VAL179  CYS180 
 MET181  ILE182  GLU183  TRP184  TYR196  HIS197  VAL200  THR201  ILE204  TRP261 
 PHE264  HIS265  PHE267  PHE268  LEU269  PRO271  TYR272  PRO275  LEU277  TYR278 
 LEU279  LYS280  LYS281  PHE282  ILE283  GLN284  GLN285  VAL286  TYR287  LEU288 
 ILE290  MET291  ALA294  MET295 

> <Gold.Protein.RotatedAtoms>
  124.1170  138.7389  110.2791 H   0  0  0  0  0  0  0  0  0  0  0  0  # atno 4298 bound_to 4286
  126.4120  146.5825   96.3650 H   0  0  0  0  0  0  0  0  0  0  0  0  # atno 4419 bound_to 4410
  132.3133  151.1299  100.8701 H   0  0  0  0  0  0  0  0  0  0  0  0  # atno 5718 bound_to 5713
  138.5288  142.2420  104.5819 H   0  0  0  0  0  0  0  0  0  0  0  0  # atno 6139 bound_to 6130
  139.0994  131.2531  102.5396 H   0  0  0  0  0  0  0  0  0  0  0  0  # atno 6229 bound_to 6224
  138.8161  137.9610   97.2973 H   0  0  0  0  0  0  0  0  0  0  0  0  # atno 7183 bound_to 7174
  132.6773  134.3240   93.5097 H   0  0  0  0  0  0  0  0  0  0  0  0  # atno 7286 bound_to 7277
  126.1750  140.1740  101.4448 H   0  0  0  0  0  0  0  0  0  0  0  0  # atno 7448 bound_to 7439
  125.4795  145.5974   95.4660 LP  0  0  0  0  0  0  0  0  0  0  0  0  # atno 14307 bound_to 4410
  126.7543  144.9934   96.2885 LP  0  0  0  0  0  0  0  0  0  0  0  0  # atno 14308 bound_to 4410
  131.2994  134.0071   94.3147 LP  0  0  0  0  0  0  0  0  0  0  0  0  # atno 14309 bound_to 7277
  131.9009  135.5249   94.2856 LP  0  0  0  0  0  0  0  0  0  0  0  0  # atno 14310 bound_to 7277
  127.2377  139.1965  102.1955 LP  0  0  0  0  0  0  0  0  0  0  0  0  # atno 14329 bound_to 7439
  125.6866  139.2631  102.7018 LP  0  0  0  0  0  0  0  0  0  0  0  0  # atno 14330 bound_to 7439
  132.2669  149.5034  100.8976 LP  0  0  0  0  0  0  0  0  0  0  0  0  # atno 14371 bound_to 5713
  132.6600  150.2887   99.5208 LP  0  0  0  0  0  0  0  0  0  0  0  0  # atno 14372 bound_to 5713
  123.0708  137.5031  110.4401 LP  0  0  0  0  0  0  0  0  0  0  0  0  # atno 14387 bound_to 4286
  123.2810  138.5634  111.6641 LP  0  0  0  0  0  0  0  0  0  0  0  0  # atno 14388 bound_to 4286
  139.7543  142.3331  105.6491 LP  0  0  0  0  0  0  0  0  0  0  0  0  # atno 14389 bound_to 6130
  138.9617  140.9222  105.4303 LP  0  0  0  0  0  0  0  0  0  0  0  0  # atno 14390 bound_to 6130
  139.5706  132.7912  102.7874 LP  0  0  0  0  0  0  0  0  0  0  0  0  # atno 14404 bound_to 6224
  138.5503  132.0677  103.8373 LP  0  0  0  0  0  0  0  0  0  0  0  0  # atno 14405 bound_to 6224
  137.5129  138.0568   96.3272 LP  0  0  0  0  0  0  0  0  0  0  0  0  # atno 14408 bound_to 7174
  138.9015  138.8082   95.9104 LP  0  0  0  0  0  0  0  0  0  0  0  0  # atno 14409 bound_to 7174

> <Gold.Score>
     Fitness  S(hb_ext) S(vdw_ext)  S(hb_int)    S(int)      intcor
     30.20       0.17      22.42       0.00      -0.80      -0.77

> <Gold.Goldscore.Fitness>
30.1964

> <Gold.Goldscore.Internal.Vdw>
-1.0144

> <Gold.Goldscore.Internal.Torsion>
-0.5561

> <Gold.Goldscore.External.Vdw>
22.4198

> <Gold.Goldscore.Internal.HBond>
0.0000

> <Gold.Goldscore.External.HBond>
0.1704

> <Gold.Goldscore.Internal.Correction>
-0.7693

> <Gold.Goldscore.Hbonds>
donor molecule, donor type, donor heavy atom, donor atom, acceptor molecule, acceptor atom, score
      P1  H  7439  7448       L1    11  0.09

> <Gold.Goldscore.Internal.Vdw.Weighted>
-1.0144

> <Gold.Goldscore.Internal.Torsion.Weighted>
-0.5561

> <Gold.Goldscore.External.Vdw.Weighted>
30.8272

> <Gold.Goldscore.Internal.HBond.Weighted>
0.0000

> <Gold.Goldscore.External.HBond.Weighted>
0.1704

> <Gold.Goldscore.Internal.Correction.Weighted>
-0.7693

> <Gold.Rescore>
     Score     S(PLP)   S(hbond)     S(cho)   S(metal)  DE(clash)   DE(tors)     intcor
     29.03     -26.89       0.99       0.00       0.00       0.00       0.42       ----

> <Gold.PLP.Fitness>
29.0329

> <Gold.PLP.PLP>
-26.8923

> <Gold.PLP.part.hbond>
-0.7009

> <Gold.PLP.part.metal>
0.0000

> <Gold.PLP.part.buried>
-3.4245

> <Gold.PLP.part.nonpolar>
-24.9420

> <Gold.PLP.part.repulsive>
1.9492

> <Gold.PLP.ligand.clash>
0.0000

> <Gold.PLP.ligand.torsion>
0.4177

> <Gold.PLP.Chemscore.Hbond>
0.9920

> <Gold.PLP.Chemscore.CHOScore>
0.0000

> <Gold.PLP.Chemscore.Metal>
0.0000

> <Gold.Chemscore.Hbonds>
donor molecule, donor type, donor heavy atom, donor atom, acceptor molecule, acceptor atom, score
      P1  H  7439  7448       L1    11  0.45

> <Gold.PLP.Chemscore.Internal.Correction>
   9.000000E+99

#       Name:                CT1002167954
#       Creating user name   hitesit
#       Creation time:       Sun Apr 16 22:50:57 2023


#       File generated by GOLD software.
#

@<TRIPOS>MOLECULE
CT1002167954|ligand_prepared|mol2|1|dock2
    29    30     1
SMALL
NO_CHARGES


@<TRIPOS>ATOM
      1 C1         129.7170 143.3855 100.9904 C.3            1 RES1               0.0000
      2 C2         130.4230 142.5265 102.0592 C.ar           1 RES1               0.0000
      3 C3         130.8123 143.8944 100.0578 C.2            1 RES1               0.0000
      4 C4         128.6986 142.4738 100.3148 C.2            1 RES1               0.0000
      5 C5         128.9589 144.6032 101.5682 C.3            1 RES1               0.0000
      6 C6         131.4136 141.6183 101.6976 C.ar           1 RES1               0.0000
      7 C7         130.0970 142.6327 103.4087 C.ar           1 RES1               0.0000
      8 N8         130.9016 143.3286  98.8201 N.am           1 RES1               0.0000
      9 O9         131.6103 144.7513 100.4171 O.2            1 RES1               0.0000
     10 N10        128.8890 142.1669  98.9929 N.am           1 RES1               0.0000
     11 O11        127.7422 142.0052 100.9196 O.2            1 RES1               0.0000
     12 C12        128.4820 145.5866 100.5110 C.3            1 RES1               0.0000
     13 C13        132.0570 140.8465 102.6508 C.ar           1 RES1               0.0000
     14 C14        130.7416 141.8597 104.3602 C.ar           1 RES1               0.0000
     15 C15        129.9610 142.5281  98.2232 C.2            1 RES1               0.0000
     16 C16        131.7219 140.9669 103.9826 C.ar           1 RES1               0.0000
     17 O17        130.0885 142.1676  97.0566 O.2            1 RES1               0.0000
     18 H18        128.0901 144.2429 102.1327 H              1 RES1               0.0000
     19 H19        129.6187 145.1302 102.2685 H              1 RES1               0.0000
     20 H20        131.6890 141.5080 100.6541 H              1 RES1               0.0000
     21 H21        129.3281 143.3277 103.7288 H              1 RES1               0.0000
     22 H22        131.7458 143.5180  98.2894 H              1 RES1               0.0000
     23 H23        128.1643 141.6184  98.5409 H              1 RES1               0.0000
     24 H24        127.9567 146.4216 100.9699 H              1 RES1               0.0000
     25 H25        129.3230 145.9843  99.9468 H              1 RES1               0.0000
     26 H26        127.8035 145.1023  99.8118 H              1 RES1               0.0000
     27 H27        132.8269 140.1443 102.3482 H              1 RES1               0.0000
     28 H28        130.4741 141.9574 105.4072 H              1 RES1               0.0000
     29 H29        132.2264 140.3624 104.7291 H              1 RES1               0.0000
@<TRIPOS>BOND
    1    1    2 1     
    2    1    3 1     
    3    1    4 1     
    4    1    5 1     
    5    2    6 ar    
    6    2    7 ar    
    7    3    8 1     
    8    3    9 2     
    9    4   10 1     
   10    4   11 2     
   11    5   12 1     
   12    5   18 1     
   13    5   19 1     
   14    6   13 ar    
   15    6   20 1     
   16    7   14 ar    
   17    7   21 1     
   18    8   15 1     
   19    8   22 1     
   20   10   15 1     
   21   10   23 1     
   22   12   24 1     
   23   12   25 1     
   24   12   26 1     
   25   13   16 ar    
   26   13   27 1     
   27   14   16 ar    
   28   14   28 1     
   29   15   17 2     
   30   16   29 1     
@<TRIPOS>SUBSTRUCTURE
      1 RES1           1
@<TRIPOS>SET
DONOR_HYDROGENS      STATIC     ATOMS    <user>   **** ""
2 22 23
ATOM$RED        STATIC     ATOMS    COLORGROUP SYSTEM
2 22 23
@<TRIPOS>COMMENT
> <Gold.Version>
2022.3.0

> <Gold.Id.Protein>
unknown|7rmi_clean|pdb

> <Gold.Protein.RotatedTorsions>
[ 4419 4410 4409 4407 ] final   38.41 input   60.00 | X-H torsion
[ 7286 7277 7276 7274 ] final  117.50 input   59.98 | X-H torsion
[ 7448 7439 7438 7436 ] final   74.22 input   59.99 | X-H torsion
[ 5718 5713 5712 5709 ] final  105.11 input   60.00 | X-H torsion
[ 4298 4286 4285 4282 ] final  -75.56 input   60.01 | X-H torsion
[ 6139 6130 6129 6127 ] final  -40.69 input   59.98 | X-H torsion
[ 6229 6224 6223 6220 ] final  -58.84 input   60.02 | X-H torsion
[ 7183 7174 7173 7171 ] final  110.57 input   60.02 | X-H torsion

> <Gold.Protein.ActiveResidues>
 GLN24   PHE25   GLN27   MET81   PHE84   ASN85   THR86   VAL88   ASN89   PHE90  
 TYR92   ALA93   VAL94   HIS95   ASN96   GLU97   TRP98   TYR100  TYR104  CYS105 
 HIS108  ASN109  PRO112  ILE113  ALA114  ALA115  VAL116  PHE117  LEU161  ALA162 
 GLN165  SER169  THR170  GLU172  MET174  PRO175  ARG177  VAL178  VAL179  CYS180 
 MET181  ILE182  GLU183  TRP184  TYR196  HIS197  VAL200  THR201  ILE204  TRP261 
 PHE264  HIS265  PHE267  PHE268  LEU269  PRO271  TYR272  PRO275  LEU277  TYR278 
 LEU279  LYS280  LYS281  PHE282  ILE283  GLN284  GLN285  VAL286  TYR287  LEU288 
 ILE290  MET291  ALA294  MET295 

> <Gold.Protein.RotatedAtoms>
  123.4908  137.7631  110.0058 H   0  0  0  0  0  0  0  0  0  0  0  0  # atno 4298 bound_to 4286
  126.0095  146.6389   96.0775 H   0  0  0  0  0  0  0  0  0  0  0  0  # atno 4419 bound_to 4410
  132.3297  149.4070  100.6661 H   0  0  0  0  0  0  0  0  0  0  0  0  # atno 5718 bound_to 5713
  139.6135  141.3888  105.8479 H   0  0  0  0  0  0  0  0  0  0  0  0  # atno 6139 bound_to 6130
  138.4931  131.7483  103.7303 H   0  0  0  0  0  0  0  0  0  0  0  0  # atno 6229 bound_to 6224
  137.5419  137.9291   96.5580 H   0  0  0  0  0  0  0  0  0  0  0  0  # atno 7183 bound_to 7174
  132.1998  135.5212   94.0914 H   0  0  0  0  0  0  0  0  0  0  0  0  # atno 7286 bound_to 7277
  126.8277  139.9820  101.4244 H   0  0  0  0  0  0  0  0  0  0  0  0  # atno 7448 bound_to 7439
  125.6844  145.1435   95.5242 LP  0  0  0  0  0  0  0  0  0  0  0  0  # atno 14307 bound_to 4410
  126.9550  145.3904   96.5198 LP  0  0  0  0  0  0  0  0  0  0  0  0  # atno 14308 bound_to 4410
  132.5027  134.0162   93.5524 LP  0  0  0  0  0  0  0  0  0  0  0  0  # atno 14309 bound_to 7277
  131.1786  134.3100   94.4619 LP  0  0  0  0  0  0  0  0  0  0  0  0  # atno 14310 bound_to 7277
  126.8167  138.9306  102.6665 LP  0  0  0  0  0  0  0  0  0  0  0  0  # atno 14329 bound_to 7439
  125.4502  139.7225  102.2513 LP  0  0  0  0  0  0  0  0  0  0  0  0  # atno 14330 bound_to 7439
  132.6575  150.5464   99.5513 LP  0  0  0  0  0  0  0  0  0  0  0  0  # atno 14371 bound_to 5713
  132.2528  150.9809  101.0725 LP  0  0  0  0  0  0  0  0  0  0  0  0  # atno 14372 bound_to 5713
  122.9340  138.0226  111.5127 LP  0  0  0  0  0  0  0  0  0  0  0  0  # atno 14387 bound_to 4286
  124.0483  139.0264  110.8667 LP  0  0  0  0  0  0  0  0  0  0  0  0  # atno 14388 bound_to 4286
  138.3951  141.3679  104.7689 LP  0  0  0  0  0  0  0  0  0  0  0  0  # atno 14389 bound_to 6130
  139.2291  142.7462  105.0362 LP  0  0  0  0  0  0  0  0  0  0  0  0  # atno 14390 bound_to 6130
  139.3065  131.4501  102.3524 LP  0  0  0  0  0  0  0  0  0  0  0  0  # atno 14404 bound_to 6224
  139.4247  132.9103  103.0739 LP  0  0  0  0  0  0  0  0  0  0  0  0  # atno 14405 bound_to 6224
  138.6713  138.8025   95.7768 LP  0  0  0  0  0  0  0  0  0  0  0  0  # atno 14408 bound_to 7174
  139.0259  138.0947   97.2051 LP  0  0  0  0  0  0  0  0  0  0  0  0  # atno 14409 bound_to 7174

> <Gold.Score>
     Fitness  S(hb_ext) S(vdw_ext)  S(hb_int)    S(int)      intcor
     29.62       3.12      19.37       0.00      -0.14      -0.78

> <Gold.Goldscore.Fitness>
29.6213

> <Gold.Goldscore.Internal.Vdw>
-0.3737

> <Gold.Goldscore.Internal.Torsion>
-0.5492

> <Gold.Goldscore.External.Vdw>
19.3718

> <Gold.Goldscore.Internal.HBond>
0.0000

> <Gold.Goldscore.External.HBond>
3.1242

> <Gold.Goldscore.Internal.Correction>
-0.7838

> <Gold.Goldscore.Hbonds>
donor molecule, donor type, donor heavy atom, donor atom, acceptor molecule, acceptor atom, score
      P1  H  7439  7448       L1    11  0.56
      P1  H  4721  4726       L1     9  1.00

> <Gold.Goldscore.Internal.Vdw.Weighted>
-0.3737

> <Gold.Goldscore.Internal.Torsion.Weighted>
-0.5492

> <Gold.Goldscore.External.Vdw.Weighted>
26.6362

> <Gold.Goldscore.Internal.HBond.Weighted>
0.0000

> <Gold.Goldscore.External.HBond.Weighted>
3.1242

> <Gold.Goldscore.Internal.Correction.Weighted>
-0.7838

> <Gold.Rescore>
     Score     S(PLP)   S(hbond)     S(cho)   S(metal)  DE(clash)   DE(tors)     intcor
     33.91     -28.14       2.00       0.00       0.00       0.00       0.11       ----

> <Gold.PLP.Fitness>
33.9096

> <Gold.PLP.PLP>
-28.1386

> <Gold.PLP.part.hbond>
-2.0000

> <Gold.PLP.part.metal>
0.0000

> <Gold.PLP.part.buried>
-6.0768

> <Gold.PLP.part.nonpolar>
-21.1349

> <Gold.PLP.part.repulsive>
0.3326

> <Gold.PLP.ligand.clash>
0.0000

> <Gold.PLP.ligand.torsion>
0.1145

> <Gold.PLP.Chemscore.Hbond>
2.0000

> <Gold.PLP.Chemscore.CHOScore>
0.0000

> <Gold.PLP.Chemscore.Metal>
0.0000

> <Gold.Chemscore.Hbonds>
donor molecule, donor type, donor heavy atom, donor atom, acceptor molecule, acceptor atom, score
      P1  H  7439  7448       L1    11  0.55
      P1  H  4721  4726       L1     9  0.71

> <Gold.PLP.Chemscore.Internal.Correction>
   9.000000E+99

#       Name:                CT1002167954
#       Creating user name   hitesit
#       Creation time:       Sun Apr 16 22:51:03 2023


#       File generated by GOLD software.
#

@<TRIPOS>MOLECULE
CT1002167954|ligand_prepared|mol2|1|dock7
    29    30     1
SMALL
NO_CHARGES


@<TRIPOS>ATOM
      1 C1         131.0346 141.7600 100.1495 C.3            1 RES1               0.0000
      2 C2         132.1164 140.9202 100.8588 C.ar           1 RES1               0.0000
      3 C3         129.7307 140.9785 100.2811 C.2            1 RES1               0.0000
      4 C4         131.0208 143.1154 100.8477 C.2            1 RES1               0.0000
      5 C5         131.3144 141.9992  98.6475 C.3            1 RES1               0.0000
      6 C6         131.8491 140.3040 102.0777 C.ar           1 RES1               0.0000
      7 C7         133.3832 140.7507 100.3064 C.ar           1 RES1               0.0000
      8 N8         128.8004 141.4455 101.1622 N.am           1 RES1               0.0000
      9 O9         129.5381 139.9462  99.6507 O.2            1 RES1               0.0000
     10 N10        129.8959 143.4657 101.5474 N.am           1 RES1               0.0000
     11 O11        131.9802 143.8760 100.8121 O.2            1 RES1               0.0000
     12 C12        130.1584 142.6503  97.9045 C.3            1 RES1               0.0000
     13 C13        132.8123 139.5434 102.7196 C.ar           1 RES1               0.0000
     14 C14        134.3450 139.9898 100.9502 C.ar           1 RES1               0.0000
     15 C15        128.7969 142.6792 101.7619 C.2            1 RES1               0.0000
     16 C16        134.0606 139.3854 102.1562 C.ar           1 RES1               0.0000
     17 O17        127.8468 143.0440 102.4484 O.2            1 RES1               0.0000
     18 H18        132.2008 142.6382  98.5508 H              1 RES1               0.0000
     19 H19        131.5416 141.0366  98.1729 H              1 RES1               0.0000
     20 H20        130.8732 140.4191 102.5375 H              1 RES1               0.0000
     21 H21        133.6297 141.2177  99.3590 H              1 RES1               0.0000
     22 H22        128.0366 140.8195 101.3969 H              1 RES1               0.0000
     23 H23        129.8758 144.3994 101.9452 H              1 RES1               0.0000
     24 H24        130.4071 142.7954  96.8554 H              1 RES1               0.0000
     25 H25        129.2666 142.0294  97.9587 H              1 RES1               0.0000
     26 H26        129.9219 143.6215  98.3343 H              1 RES1               0.0000
     27 H27        132.5838 139.0709 103.6693 H              1 RES1               0.0000
     28 H28        135.3263 139.8686 100.5034 H              1 RES1               0.0000
     29 H29        134.8148 138.7892 102.6591 H              1 RES1               0.0000
@<TRIPOS>BOND
    1    1    2 1     
    2    1    3 1     
    3    1    4 1     
    4    1    5 1     
    5    2    6 ar    
    6    2    7 ar    
    7    3    8 1     
    8    3    9 2     
    9    4   10 1     
   10    4   11 2     
   11    5   12 1     
   12    5   18 1     
   13    5   19 1     
   14    6   13 ar    
   15    6   20 1     
   16    7   14 ar    
   17    7   21 1     
   18    8   15 1     
   19    8   22 1     
   20   10   15 1     
   21   10   23 1     
   22   12   24 1     
   23   12   25 1     
   24   12   26 1     
   25   13   16 ar    
   26   13   27 1     
   27   14   16 ar    
   28   14   28 1     
   29   15   17 2     
   30   16   29 1     
@<TRIPOS>SUBSTRUCTURE
      1 RES1           1
@<TRIPOS>SET
DONOR_HYDROGENS      STATIC     ATOMS    <user>   **** ""
2 22 23
ATOM$RED        STATIC     ATOMS    COLORGROUP SYSTEM
2 22 23
@<TRIPOS>COMMENT
> <Gold.Version>
2022.3.0

> <Gold.Id.Protein>
unknown|7rmi_clean|pdb

> <Gold.Protein.RotatedTorsions>
[ 4419 4410 4409 4407 ] final  101.53 input   60.00 | X-H torsion
[ 7286 7277 7276 7274 ] final  145.85 input   59.98 | X-H torsion
[ 7448 7439 7438 7436 ] final -157.14 input   59.99 | X-H torsion
[ 5718 5713 5712 5709 ] final  110.21 input   60.00 | X-H torsion
[ 4298 4286 4285 4282 ] final  -14.48 input   60.01 | X-H torsion
[ 6139 6130 6129 6127 ] final   66.66 input   59.98 | X-H torsion
[ 6229 6224 6223 6220 ] final -131.94 input   60.02 | X-H torsion
[ 7183 7174 7173 7171 ] final  143.15 input   60.02 | X-H torsion

> <Gold.Protein.ActiveResidues>
 GLN24   PHE25   GLN27   MET81   PHE84   ASN85   THR86   VAL88   ASN89   PHE90  
 TYR92   ALA93   VAL94   HIS95   ASN96   GLU97   TRP98   TYR100  TYR104  CYS105 
 HIS108  ASN109  PRO112  ILE113  ALA114  ALA115  VAL116  PHE117  LEU161  ALA162 
 GLN165  SER169  THR170  GLU172  MET174  PRO175  ARG177  VAL178  VAL179  CYS180 
 MET181  ILE182  GLU183  TRP184  TYR196  HIS197  VAL200  THR201  ILE204  TRP261 
 PHE264  HIS265  PHE267  PHE268  LEU269  PRO271  TYR272  PRO275  LEU277  TYR278 
 LEU279  LYS280  LYS281  PHE282  ILE283  GLN284  GLN285  VAL286  TYR287  LEU288 
 ILE290  MET291  ALA294  MET295 

> <Gold.Protein.RotatedAtoms>
  124.0494  138.5289  110.0879 H   0  0  0  0  0  0  0  0  0  0  0  0  # atno 4298 bound_to 4286
  126.7719  146.2653   96.5668 H   0  0  0  0  0  0  0  0  0  0  0  0  # atno 4419 bound_to 4410
  132.3094  149.4327  100.7428 H   0  0  0  0  0  0  0  0  0  0  0  0  # atno 5718 bound_to 5713
  139.3794  142.7199  105.1765 H   0  0  0  0  0  0  0  0  0  0  0  0  # atno 6139 bound_to 6130
  138.8410  131.1503  102.8550 H   0  0  0  0  0  0  0  0  0  0  0  0  # atno 6229 bound_to 6224
  137.7882  137.7647   96.9918 H   0  0  0  0  0  0  0  0  0  0  0  0  # atno 7183 bound_to 7174
  131.8108  135.4929   94.3320 H   0  0  0  0  0  0  0  0  0  0  0  0  # atno 7286 bound_to 7277
  125.4652  139.6270  102.3548 H   0  0  0  0  0  0  0  0  0  0  0  0  # atno 7448 bound_to 7439
  125.4885  146.1092   95.5785 LP  0  0  0  0  0  0  0  0  0  0  0  0  # atno 14307 bound_to 4410
  126.3829  144.8011   95.9726 LP  0  0  0  0  0  0  0  0  0  0  0  0  # atno 14308 bound_to 4410
  132.7186  134.4220   93.5096 LP  0  0  0  0  0  0  0  0  0  0  0  0  # atno 14309 bound_to 7277
  131.3545  133.9327   94.2623 LP  0  0  0  0  0  0  0  0  0  0  0  0  # atno 14310 bound_to 7277
  126.7076  140.0501  101.3927 LP  0  0  0  0  0  0  0  0  0  0  0  0  # atno 14329 bound_to 7439
  126.9314  138.9604  102.5882 LP  0  0  0  0  0  0  0  0  0  0  0  0  # atno 14330 bound_to 7439
  132.6604  150.4643   99.5340 LP  0  0  0  0  0  0  0  0  0  0  0  0  # atno 14371 bound_to 5713
  132.2704  151.0371  101.0127 LP  0  0  0  0  0  0  0  0  0  0  0  0  # atno 14372 bound_to 5713
  122.9414  137.5088  110.7040 LP  0  0  0  0  0  0  0  0  0  0  0  0  # atno 14387 bound_to 4286
  123.4785  138.7691  111.5927 LP  0  0  0  0  0  0  0  0  0  0  0  0  # atno 14388 bound_to 4286
  139.4970  141.2229  105.8045 LP  0  0  0  0  0  0  0  0  0  0  0  0  # atno 14389 bound_to 6130
  138.3628  141.5513  104.6764 LP  0  0  0  0  0  0  0  0  0  0  0  0  # atno 14390 bound_to 6130
  139.6586  132.5082  102.4852 LP  0  0  0  0  0  0  0  0  0  0  0  0  # atno 14404 bound_to 6224
  138.7224  132.4541  103.8221 LP  0  0  0  0  0  0  0  0  0  0  0  0  # atno 14405 bound_to 6224
  138.1670  138.6680   95.6921 LP  0  0  0  0  0  0  0  0  0  0  0  0  # atno 14408 bound_to 7174
  139.2823  138.3947   96.8531 LP  0  0  0  0  0  0  0  0  0  0  0  0  # atno 14409 bound_to 7174

> <Gold.Score>
     Fitness  S(hb_ext) S(vdw_ext)  S(hb_int)    S(int)      intcor
     27.51       2.33      18.43       0.00      -0.16      -0.76

> <Gold.Goldscore.Fitness>
27.5132

> <Gold.Goldscore.Internal.Vdw>
-0.4390

> <Gold.Goldscore.Internal.Torsion>
-0.4811

> <Gold.Goldscore.External.Vdw>
18.4254

> <Gold.Goldscore.Internal.HBond>
0.0000

> <Gold.Goldscore.External.HBond>
2.3334

> <Gold.Goldscore.Internal.Correction>
-0.7650

> <Gold.Goldscore.Hbonds>
donor molecule, donor type, donor heavy atom, donor atom, acceptor molecule, acceptor atom, score
      P1  H  4721  4726       L1    11  0.17
      L1  H     8    22       P1  7439  1.00

> <Gold.Goldscore.Internal.Vdw.Weighted>
-0.4390

> <Gold.Goldscore.Internal.Torsion.Weighted>
-0.4811

> <Gold.Goldscore.External.Vdw.Weighted>
25.3350

> <Gold.Goldscore.Internal.HBond.Weighted>
0.0000

> <Gold.Goldscore.External.HBond.Weighted>
2.3334

> <Gold.Goldscore.Internal.Correction.Weighted>
-0.7650

> <Gold.Rescore>
     Score     S(PLP)   S(hbond)     S(cho)   S(metal)  DE(clash)   DE(tors)     intcor
     32.63     -34.11       0.01       0.00       0.00       0.00       0.75       ----

> <Gold.PLP.Fitness>
32.6314

> <Gold.PLP.PLP>
-34.1065

> <Gold.PLP.part.hbond>
-4.0000

> <Gold.PLP.part.metal>
0.0000

> <Gold.PLP.part.buried>
-5.4724

> <Gold.PLP.part.nonpolar>
-25.6158

> <Gold.PLP.part.repulsive>
0.3342

> <Gold.PLP.ligand.clash>
0.0000

> <Gold.PLP.ligand.torsion>
0.7473

> <Gold.PLP.Chemscore.Hbond>
0.0065

> <Gold.PLP.Chemscore.CHOScore>
0.0000

> <Gold.PLP.Chemscore.Metal>
0.0000

> <Gold.Chemscore.Hbonds>
donor molecule, donor type, donor heavy atom, donor atom, acceptor molecule, acceptor atom, score
      L1  H     8    22       P1  7439  0.32
      P1  H  4721  4726       L1    11  0.86

> <Gold.PLP.Chemscore.Internal.Correction>
   9.000000E+99

