#       Name:                GA Fitting Points
#       Creating user name   hitesit
#       Creation time:       Sun Apr 16 22:50:49 2023


#       Fitting Points Used by GA Software.
#

@<TRIPOS>MOLECULE
GA Fitting Points
 10524    0    0
SMALL
NO_CHARGES


@<TRIPOS>ATOM
      1 ****       121.7500 139.7500  95.0000 Du        
      2 ****       121.7500 139.7500  95.2500 Du        
      3 ****       121.7500 139.7500  95.5000 Du        
      4 ****       121.7500 139.7500  95.7500 Du        
      5 ****       121.7500 140.0000  95.2500 Du        
      6 ****       121.7500 140.0000  95.5000 Du        
      7 ****       121.7500 140.0000  95.7500 Du        
      8 ****       122.0000 139.5000  94.7500 Du        
      9 ****       122.0000 139.5000  95.0000 Du        
     10 ****       122.0000 139.5000  95.2500 Du        
     11 ****       122.0000 139.5000  95.5000 Du        
     12 ****       122.0000 139.5000  95.7500 Du        
     13 ****       122.0000 139.7500  94.7500 Du        
     14 ****       122.0000 139.7500  95.0000 Du        
     15 ****       122.0000 139.7500  95.2500 Du        
     16 ****       122.0000 139.7500  95.5000 Du        
     17 ****       122.0000 139.7500  95.7500 Du        
     18 ****       122.0000 139.7500  96.0000 Du        
     19 ****       122.0000 140.0000  95.2500 Du        
     20 ****       122.0000 140.0000  95.5000 Du        
     21 ****       122.0000 140.0000  95.7500 Du        
     22 ****       122.0000 140.0000  96.0000 Du        
     23 ****       122.0000 140.2500  95.7500 Du        
     24 ****       122.2500 139.2500  94.7500 Du        
     25 ****       122.2500 139.2500  95.0000 Du        
     26 ****       122.2500 139.2500  95.2500 Du        
     27 ****       122.2500 139.5000  94.7500 Du        
     28 ****       122.2500 139.5000  95.0000 Du        
     29 ****       122.2500 139.5000  95.2500 Du        
     30 ****       122.2500 139.5000  95.5000 Du        
     31 ****       122.2500 139.5000  95.7500 Du        
     32 ****       122.2500 139.5000  96.0000 Du        
     33 ****       122.2500 139.7500  95.0000 Du        
     34 ****       122.2500 139.7500  95.2500 Du        
     35 ****       122.2500 139.7500  95.5000 Du        
     36 ****       122.2500 139.7500  95.7500 Du        
     37 ****       122.2500 139.7500  96.0000 Du        
     38 ****       122.2500 140.0000  95.2500 Du        
     39 ****       122.2500 140.0000  95.5000 Du        
     40 ****       122.2500 140.0000  95.7500 Du        
     41 ****       122.2500 140.0000  96.0000 Du        
     42 ****       122.2500 140.2500  95.7500 Du        
     43 ****       122.5000 139.0000  94.7500 Du        
     44 ****       122.5000 139.2500  94.5000 Du        
     45 ****       122.5000 139.2500  94.7500 Du        
     46 ****       122.5000 139.2500  95.0000 Du        
     47 ****       122.5000 139.2500  95.2500 Du        
     48 ****       122.5000 139.2500  95.5000 Du        
     49 ****       122.5000 139.2500  95.7500 Du        
     50 ****       122.5000 139.2500  96.0000 Du        
     51 ****       122.5000 139.2500  96.2500 Du        
     52 ****       122.5000 139.5000  94.7500 Du        
     53 ****       122.5000 139.5000  95.0000 Du        
     54 ****       122.5000 139.5000  95.2500 Du        
     55 ****       122.5000 139.5000  95.5000 Du        
     56 ****       122.5000 139.5000  95.7500 Du        
     57 ****       122.5000 139.5000  96.0000 Du        
     58 ****       122.5000 139.5000  96.2500 Du        
     59 ****       122.5000 139.7500  95.0000 Du        
     60 ****       122.5000 139.7500  95.2500 Du        
     61 ****       122.5000 139.7500  95.5000 Du        
     62 ****       122.5000 139.7500  95.7500 Du        
     63 ****       122.5000 139.7500  96.0000 Du        
     64 ****       122.5000 139.7500  96.2500 Du        
     65 ****       122.5000 140.0000  95.5000 Du        
     66 ****       122.5000 140.0000  95.7500 Du        
     67 ****       122.5000 140.0000  96.0000 Du        
     68 ****       122.5000 140.2500  95.7500 Du        
     69 ****       122.5000 140.2500  96.0000 Du        
     70 ****       122.7500 139.0000  94.2500 Du        
     71 ****       122.7500 139.0000  94.5000 Du        
     72 ****       122.7500 139.0000  94.7500 Du        
     73 ****       122.7500 139.0000  95.0000 Du        
     74 ****       122.7500 139.0000  95.2500 Du        
     75 ****       122.7500 139.0000  95.5000 Du        
     76 ****       122.7500 139.0000  95.7500 Du        
     77 ****       122.7500 139.0000  96.0000 Du        
     78 ****       122.7500 139.0000  96.2500 Du        
     79 ****       122.7500 139.2500  94.5000 Du        
     80 ****       122.7500 139.2500  94.7500 Du        
     81 ****       122.7500 139.2500  95.0000 Du        
     82 ****       122.7500 139.2500  95.2500 Du        
     83 ****       122.7500 139.2500  95.5000 Du        
     84 ****       122.7500 139.2500  95.7500 Du        
     85 ****       122.7500 139.2500  96.0000 Du        
     86 ****       122.7500 139.2500  96.2500 Du        
     87 ****       122.7500 139.5000  94.7500 Du        
     88 ****       122.7500 139.5000  95.0000 Du        
     89 ****       122.7500 139.5000  95.2500 Du        
     90 ****       122.7500 139.5000  95.5000 Du        
     91 ****       122.7500 139.5000  95.7500 Du        
     92 ****       122.7500 139.5000  96.0000 Du        
     93 ****       122.7500 139.5000  96.2500 Du        
     94 ****       122.7500 139.7500  95.0000 Du        
     95 ****       122.7500 139.7500  95.2500 Du        
     96 ****       122.7500 139.7500  95.5000 Du        
     97 ****       122.7500 139.7500  95.7500 Du        
     98 ****       122.7500 139.7500  96.0000 Du        
     99 ****       122.7500 139.7500  96.2500 Du        
    100 ****       122.7500 140.0000  95.5000 Du        
    101 ****       122.7500 140.0000  95.7500 Du        
    102 ****       122.7500 140.0000  96.0000 Du        
    103 ****       122.7500 140.0000  96.2500 Du        
    104 ****       122.7500 140.2500  95.7500 Du        
    105 ****       122.7500 140.2500  96.0000 Du        
    106 ****       123.0000 138.5000  96.0000 Du        
    107 ****       123.0000 138.5000  96.2500 Du        
    108 ****       123.0000 138.5000  96.5000 Du        
    109 ****       123.0000 138.7500  94.0000 Du        
    110 ****       123.0000 138.7500  94.2500 Du        
    111 ****       123.0000 138.7500  94.5000 Du        
    112 ****       123.0000 138.7500  94.7500 Du        
    113 ****       123.0000 138.7500  95.0000 Du        
    114 ****       123.0000 138.7500  95.2500 Du        
    115 ****       123.0000 138.7500  95.5000 Du        
    116 ****       123.0000 138.7500  95.7500 Du        
    117 ****       123.0000 138.7500  96.0000 Du        
    118 ****       123.0000 138.7500  96.2500 Du        
    119 ****       123.0000 138.7500  96.5000 Du        
    120 ****       123.0000 139.0000  94.0000 Du        
    121 ****       123.0000 139.0000  94.2500 Du        
    122 ****       123.0000 139.0000  94.5000 Du        
    123 ****       123.0000 139.0000  94.7500 Du        
    124 ****       123.0000 139.0000  95.0000 Du        
    125 ****       123.0000 139.0000  95.2500 Du        
    126 ****       123.0000 139.0000  95.5000 Du        
    127 ****       123.0000 139.0000  95.7500 Du        
    128 ****       123.0000 139.0000  96.0000 Du        
    129 ****       123.0000 139.0000  96.2500 Du        
    130 ****       123.0000 139.0000  96.5000 Du        
    131 ****       123.0000 139.2500  94.5000 Du        
    132 ****       123.0000 139.2500  94.7500 Du        
    133 ****       123.0000 139.2500  95.0000 Du        
    134 ****       123.0000 139.2500  95.2500 Du        
    135 ****       123.0000 139.2500  95.5000 Du        
    136 ****       123.0000 139.2500  95.7500 Du        
    137 ****       123.0000 139.2500  96.0000 Du        
    138 ****       123.0000 139.2500  96.2500 Du        
    139 ****       123.0000 139.2500  96.5000 Du        
    140 ****       123.0000 139.5000  95.0000 Du        
    141 ****       123.0000 139.5000  95.2500 Du        
    142 ****       123.0000 139.5000  95.5000 Du        
    143 ****       123.0000 139.5000  95.7500 Du        
    144 ****       123.0000 139.5000  96.0000 Du        
    145 ****       123.0000 139.5000  96.2500 Du        
    146 ****       123.0000 139.5000  96.5000 Du        
    147 ****       123.0000 139.7500  95.2500 Du        
    148 ****       123.0000 139.7500  95.5000 Du        
    149 ****       123.0000 139.7500  95.7500 Du        
    150 ****       123.0000 139.7500  96.0000 Du        
    151 ****       123.0000 139.7500  96.2500 Du        
    152 ****       123.0000 139.7500  96.5000 Du        
    153 ****       123.0000 140.0000  95.5000 Du        
    154 ****       123.0000 140.0000  95.7500 Du        
    155 ****       123.0000 140.0000  96.0000 Du        
    156 ****       123.0000 140.0000  96.2500 Du        
    157 ****       123.0000 140.0000  96.5000 Du        
    158 ****       123.0000 140.2500  95.7500 Du        
    159 ****       123.0000 140.2500  96.0000 Du        
    160 ****       123.0000 140.2500  96.2500 Du        
    161 ****       123.2500 138.2500  96.0000 Du        
    162 ****       123.2500 138.2500  96.2500 Du        
    163 ****       123.2500 138.2500  96.5000 Du        
    164 ****       123.2500 138.5000  94.0000 Du        
    165 ****       123.2500 138.5000  94.2500 Du        
    166 ****       123.2500 138.5000  94.5000 Du        
    167 ****       123.2500 138.5000  94.7500 Du        
    168 ****       123.2500 138.5000  95.0000 Du        
    169 ****       123.2500 138.5000  95.2500 Du        
    170 ****       123.2500 138.5000  95.5000 Du        
    171 ****       123.2500 138.5000  95.7500 Du        
    172 ****       123.2500 138.5000  96.0000 Du        
    173 ****       123.2500 138.5000  96.2500 Du        
    174 ****       123.2500 138.5000  96.5000 Du        
    175 ****       123.2500 138.5000  96.7500 Du        
    176 ****       123.2500 138.7500  93.7500 Du        
    177 ****       123.2500 138.7500  94.0000 Du        
    178 ****       123.2500 138.7500  94.2500 Du        
    179 ****       123.2500 138.7500  94.5000 Du        
    180 ****       123.2500 138.7500  94.7500 Du        
    181 ****       123.2500 138.7500  95.0000 Du        
    182 ****       123.2500 138.7500  95.2500 Du        
    183 ****       123.2500 138.7500  95.5000 Du        
    184 ****       123.2500 138.7500  95.7500 Du        
    185 ****       123.2500 138.7500  96.0000 Du        
    186 ****       123.2500 138.7500  96.2500 Du        
    187 ****       123.2500 138.7500  96.5000 Du        
    188 ****       123.2500 138.7500  96.7500 Du        
    189 ****       123.2500 139.0000  94.0000 Du        
    190 ****       123.2500 139.0000  94.2500 Du        
    191 ****       123.2500 139.0000  94.5000 Du        
    192 ****       123.2500 139.0000  94.7500 Du        
    193 ****       123.2500 139.0000  95.0000 Du        
    194 ****       123.2500 139.0000  95.2500 Du        
    195 ****       123.2500 139.0000  95.5000 Du        
    196 ****       123.2500 139.0000  95.7500 Du        
    197 ****       123.2500 139.0000  96.0000 Du        
    198 ****       123.2500 139.0000  96.2500 Du        
    199 ****       123.2500 139.0000  96.5000 Du        
    200 ****       123.2500 139.0000  96.7500 Du        
    201 ****       123.2500 139.2500  94.5000 Du        
    202 ****       123.2500 139.2500  94.7500 Du        
    203 ****       123.2500 139.2500  95.0000 Du        
    204 ****       123.2500 139.2500  95.2500 Du        
    205 ****       123.2500 139.2500  95.5000 Du        
    206 ****       123.2500 139.2500  95.7500 Du        
    207 ****       123.2500 139.2500  96.0000 Du        
    208 ****       123.2500 139.2500  96.2500 Du        
    209 ****       123.2500 139.2500  96.5000 Du        
    210 ****       123.2500 139.2500  96.7500 Du        
    211 ****       123.2500 139.5000  95.0000 Du        
    212 ****       123.2500 139.5000  95.2500 Du        
    213 ****       123.2500 139.5000  95.5000 Du        
    214 ****       123.2500 139.5000  95.7500 Du        
    215 ****       123.2500 139.5000  96.0000 Du        
    216 ****       123.2500 139.5000  96.2500 Du        
    217 ****       123.2500 139.5000  96.5000 Du        
    218 ****       123.2500 139.5000  96.7500 Du        
    219 ****       123.2500 139.7500  95.2500 Du        
    220 ****       123.2500 139.7500  95.5000 Du        
    221 ****       123.2500 139.7500  95.7500 Du        
    222 ****       123.2500 139.7500  96.0000 Du        
    223 ****       123.2500 139.7500  96.2500 Du        
    224 ****       123.2500 139.7500  96.5000 Du        
    225 ****       123.2500 140.0000  95.5000 Du        
    226 ****       123.2500 140.0000  95.7500 Du        
    227 ****       123.2500 140.0000  96.0000 Du        
    228 ****       123.2500 140.0000  96.2500 Du        
    229 ****       123.2500 140.0000  96.5000 Du        
    230 ****       123.2500 140.2500  95.7500 Du        
    231 ****       123.2500 140.2500  96.0000 Du        
    232 ****       123.2500 140.2500  96.2500 Du        
    233 ****       123.2500 140.2500  96.5000 Du        
    234 ****       123.2500 140.5000  96.2500 Du        
    235 ****       123.5000 138.2500  94.0000 Du        
    236 ****       123.5000 138.2500  94.2500 Du        
    237 ****       123.5000 138.2500  94.5000 Du        
    238 ****       123.5000 138.2500  94.7500 Du        
    239 ****       123.5000 138.2500  95.0000 Du        
    240 ****       123.5000 138.2500  95.2500 Du        
    241 ****       123.5000 138.2500  95.5000 Du        
    242 ****       123.5000 138.2500  95.7500 Du        
    243 ****       123.5000 138.2500  96.0000 Du        
    244 ****       123.5000 138.2500  96.2500 Du        
    245 ****       123.5000 138.2500  96.5000 Du        
    246 ****       123.5000 138.5000  93.5000 Du        
    247 ****       123.5000 138.5000  93.7500 Du        
    248 ****       123.5000 138.5000  94.0000 Du        
    249 ****       123.5000 138.5000  94.2500 Du        
    250 ****       123.5000 138.5000  94.5000 Du        
    251 ****       123.5000 138.5000  94.7500 Du        
    252 ****       123.5000 138.5000  95.0000 Du        
    253 ****       123.5000 138.5000  95.2500 Du        
    254 ****       123.5000 138.5000  95.5000 Du        
    255 ****       123.5000 138.5000  95.7500 Du        
    256 ****       123.5000 138.5000  96.0000 Du        
    257 ****       123.5000 138.5000  96.2500 Du        
    258 ****       123.5000 138.5000  96.5000 Du        
    259 ****       123.5000 138.5000  96.7500 Du        
    260 ****       123.5000 138.7500  93.7500 Du        
    261 ****       123.5000 138.7500  94.0000 Du        
    262 ****       123.5000 138.7500  94.2500 Du        
    263 ****       123.5000 138.7500  94.5000 Du        
    264 ****       123.5000 138.7500  94.7500 Du        
    265 ****       123.5000 138.7500  95.0000 Du        
    266 ****       123.5000 138.7500  95.2500 Du        
    267 ****       123.5000 138.7500  95.5000 Du        
    268 ****       123.5000 138.7500  95.7500 Du        
    269 ****       123.5000 138.7500  96.0000 Du        
    270 ****       123.5000 138.7500  96.2500 Du        
    271 ****       123.5000 138.7500  96.5000 Du        
    272 ****       123.5000 138.7500  96.7500 Du        
    273 ****       123.5000 139.0000  94.0000 Du        
    274 ****       123.5000 139.0000  94.2500 Du        
    275 ****       123.5000 139.0000  94.5000 Du        
    276 ****       123.5000 139.0000  94.7500 Du        
    277 ****       123.5000 139.0000  95.0000 Du        
    278 ****       123.5000 139.0000  95.2500 Du        
    279 ****       123.5000 139.0000  95.5000 Du        
    280 ****       123.5000 139.0000  95.7500 Du        
    281 ****       123.5000 139.0000  96.0000 Du        
    282 ****       123.5000 139.0000  96.2500 Du        
    283 ****       123.5000 139.0000  96.5000 Du        
    284 ****       123.5000 139.0000  96.7500 Du        
    285 ****       123.5000 139.2500  94.5000 Du        
    286 ****       123.5000 139.2500  94.7500 Du        
    287 ****       123.5000 139.2500  95.0000 Du        
    288 ****       123.5000 139.2500  95.2500 Du        
    289 ****       123.5000 139.2500  95.5000 Du        
    290 ****       123.5000 139.2500  95.7500 Du        
    291 ****       123.5000 139.2500  96.0000 Du        
    292 ****       123.5000 139.2500  96.2500 Du        
    293 ****       123.5000 139.2500  96.5000 Du        
    294 ****       123.5000 139.2500  96.7500 Du        
    295 ****       123.5000 139.5000  95.0000 Du        
    296 ****       123.5000 139.5000  95.2500 Du        
    297 ****       123.5000 139.5000  95.5000 Du        
    298 ****       123.5000 139.5000  95.7500 Du        
    299 ****       123.5000 139.5000  96.0000 Du        
    300 ****       123.5000 139.5000  96.2500 Du        
    301 ****       123.5000 139.5000  96.5000 Du        
    302 ****       123.5000 139.5000  96.7500 Du        
    303 ****       123.5000 139.7500  95.5000 Du        
    304 ****       123.5000 139.7500  95.7500 Du        
    305 ****       123.5000 139.7500  96.0000 Du        
    306 ****       123.5000 139.7500  96.2500 Du        
    307 ****       123.5000 139.7500  96.5000 Du        
    308 ****       123.5000 139.7500  96.7500 Du        
    309 ****       123.5000 140.0000  95.7500 Du        
    310 ****       123.5000 140.0000  96.0000 Du        
    311 ****       123.5000 140.0000  96.2500 Du        
    312 ****       123.5000 140.0000  96.5000 Du        
    313 ****       123.5000 140.0000  96.7500 Du        
    314 ****       123.5000 140.2500  96.0000 Du        
    315 ****       123.5000 140.2500  96.2500 Du        
    316 ****       123.5000 140.2500  96.5000 Du        
    317 ****       123.5000 140.2500  96.7500 Du        
    318 ****       123.5000 140.5000  96.2500 Du        
    319 ****       123.5000 140.5000  96.5000 Du        
    320 ****       123.7500 138.0000  93.7500 Du        
    321 ****       123.7500 138.0000  94.0000 Du        
    322 ****       123.7500 138.0000  94.2500 Du        
    323 ****       123.7500 138.0000  96.0000 Du        
    324 ****       123.7500 138.0000  96.2500 Du        
    325 ****       123.7500 138.2500  93.2500 Du        
    326 ****       123.7500 138.2500  93.5000 Du        
    327 ****       123.7500 138.2500  93.7500 Du        
    328 ****       123.7500 138.2500  94.0000 Du        
    329 ****       123.7500 138.2500  94.2500 Du        
    330 ****       123.7500 138.2500  94.5000 Du        
    331 ****       123.7500 138.2500  94.7500 Du        
    332 ****       123.7500 138.2500  95.0000 Du        
    333 ****       123.7500 138.2500  95.2500 Du        
    334 ****       123.7500 138.2500  95.5000 Du        
    335 ****       123.7500 138.2500  95.7500 Du        
    336 ****       123.7500 138.2500  96.0000 Du        
    337 ****       123.7500 138.2500  96.2500 Du        
    338 ****       123.7500 138.2500  96.5000 Du        
    339 ****       123.7500 138.5000  93.5000 Du        
    340 ****       123.7500 138.5000  93.7500 Du        
    341 ****       123.7500 138.5000  94.0000 Du        
    342 ****       123.7500 138.5000  94.2500 Du        
    343 ****       123.7500 138.5000  94.5000 Du        
    344 ****       123.7500 138.5000  94.7500 Du        
    345 ****       123.7500 138.5000  95.0000 Du        
    346 ****       123.7500 138.5000  95.2500 Du        
    347 ****       123.7500 138.5000  95.5000 Du        
    348 ****       123.7500 138.5000  95.7500 Du        
    349 ****       123.7500 138.5000  96.0000 Du        
    350 ****       123.7500 138.5000  96.2500 Du        
    351 ****       123.7500 138.5000  96.5000 Du        
    352 ****       123.7500 138.5000  96.7500 Du        
    353 ****       123.7500 138.7500  93.5000 Du        
    354 ****       123.7500 138.7500  93.7500 Du        
    355 ****       123.7500 138.7500  94.0000 Du        
    356 ****       123.7500 138.7500  94.2500 Du        
    357 ****       123.7500 138.7500  94.5000 Du        
    358 ****       123.7500 138.7500  94.7500 Du        
    359 ****       123.7500 138.7500  95.0000 Du        
    360 ****       123.7500 138.7500  95.2500 Du        
    361 ****       123.7500 138.7500  95.5000 Du        
    362 ****       123.7500 138.7500  95.7500 Du        
    363 ****       123.7500 138.7500  96.0000 Du        
    364 ****       123.7500 138.7500  96.2500 Du        
    365 ****       123.7500 138.7500  96.5000 Du        
    366 ****       123.7500 138.7500  96.7500 Du        
    367 ****       123.7500 138.7500  97.0000 Du        
    368 ****       123.7500 139.0000  94.0000 Du        
    369 ****       123.7500 139.0000  94.2500 Du        
    370 ****       123.7500 139.0000  94.5000 Du        
    371 ****       123.7500 139.0000  94.7500 Du        
    372 ****       123.7500 139.0000  95.0000 Du        
    373 ****       123.7500 139.0000  95.2500 Du        
    374 ****       123.7500 139.0000  95.5000 Du        
    375 ****       123.7500 139.0000  95.7500 Du        
    376 ****       123.7500 139.0000  96.0000 Du        
    377 ****       123.7500 139.0000  96.2500 Du        
    378 ****       123.7500 139.0000  96.5000 Du        
    379 ****       123.7500 139.0000  96.7500 Du        
    380 ****       123.7500 139.0000  97.0000 Du        
    381 ****       123.7500 139.2500  94.5000 Du        
    382 ****       123.7500 139.2500  94.7500 Du        
    383 ****       123.7500 139.2500  95.0000 Du        
    384 ****       123.7500 139.2500  95.2500 Du        
    385 ****       123.7500 139.2500  95.5000 Du        
    386 ****       123.7500 139.2500  95.7500 Du        
    387 ****       123.7500 139.2500  96.0000 Du        
    388 ****       123.7500 139.2500  96.2500 Du        
    389 ****       123.7500 139.2500  96.5000 Du        
    390 ****       123.7500 139.2500  96.7500 Du        
    391 ****       123.7500 139.2500  97.0000 Du        
    392 ****       123.7500 139.5000  95.0000 Du        
    393 ****       123.7500 139.5000  95.2500 Du        
    394 ****       123.7500 139.5000  95.5000 Du        
    395 ****       123.7500 139.5000  95.7500 Du        
    396 ****       123.7500 139.5000  96.0000 Du        
    397 ****       123.7500 139.5000  96.2500 Du        
    398 ****       123.7500 139.5000  96.5000 Du        
    399 ****       123.7500 139.5000  96.7500 Du        
    400 ****       123.7500 139.5000  97.0000 Du        
    401 ****       123.7500 139.7500  85.7500 Du        
    402 ****       123.7500 139.7500  86.0000 Du        
    403 ****       123.7500 139.7500  95.5000 Du        
    404 ****       123.7500 139.7500  95.7500 Du        
    405 ****       123.7500 139.7500  96.0000 Du        
    406 ****       123.7500 139.7500  96.2500 Du        
    407 ****       123.7500 139.7500  96.5000 Du        
    408 ****       123.7500 139.7500  96.7500 Du        
    409 ****       123.7500 139.7500  97.0000 Du        
    410 ****       123.7500 140.0000  86.0000 Du        
    411 ****       123.7500 140.0000  95.7500 Du        
    412 ****       123.7500 140.0000  96.0000 Du        
    413 ****       123.7500 140.0000  96.2500 Du        
    414 ****       123.7500 140.0000  96.5000 Du        
    415 ****       123.7500 140.0000  96.7500 Du        
    416 ****       123.7500 140.0000  97.0000 Du        
    417 ****       123.7500 140.2500  86.0000 Du        
    418 ****       123.7500 140.2500  96.0000 Du        
    419 ****       123.7500 140.2500  96.2500 Du        
    420 ****       123.7500 140.2500  96.5000 Du        
    421 ****       123.7500 140.2500  96.7500 Du        
    422 ****       123.7500 140.2500  97.0000 Du        
    423 ****       123.7500 140.5000  96.2500 Du        
    424 ****       123.7500 140.5000  96.5000 Du        
    425 ****       123.7500 140.5000  96.7500 Du        
    426 ****       123.7500 140.5000  97.0000 Du        
    427 ****       123.7500 140.7500  96.2500 Du        
    428 ****       123.7500 140.7500  96.5000 Du        
    429 ****       123.7500 140.7500  96.7500 Du        
    430 ****       123.7500 140.7500  97.0000 Du        
    431 ****       123.7500 141.0000  96.7500 Du        
    432 ****       124.0000 138.0000  93.2500 Du        
    433 ****       124.0000 138.0000  93.5000 Du        
    434 ****       124.0000 138.0000  93.7500 Du        
    435 ****       124.0000 138.0000  94.0000 Du        
    436 ****       124.0000 138.0000  94.2500 Du        
    437 ****       124.0000 138.0000  94.5000 Du        
    438 ****       124.0000 138.0000  94.7500 Du        
    439 ****       124.0000 138.0000  95.0000 Du        
    440 ****       124.0000 138.0000  95.2500 Du        
    441 ****       124.0000 138.0000  95.5000 Du        
    442 ****       124.0000 138.0000  95.7500 Du        
    443 ****       124.0000 138.0000  96.0000 Du        
    444 ****       124.0000 138.0000  96.2500 Du        
    445 ****       124.0000 138.0000  96.5000 Du        
    446 ****       124.0000 138.2500  93.2500 Du        
    447 ****       124.0000 138.2500  93.5000 Du        
    448 ****       124.0000 138.2500  93.7500 Du        
    449 ****       124.0000 138.2500  94.0000 Du        
    450 ****       124.0000 138.2500  94.2500 Du        
    451 ****       124.0000 138.2500  94.5000 Du        
    452 ****       124.0000 138.2500  94.7500 Du        
    453 ****       124.0000 138.2500  95.0000 Du        
    454 ****       124.0000 138.2500  95.2500 Du        
    455 ****       124.0000 138.2500  95.5000 Du        
    456 ****       124.0000 138.2500  95.7500 Du        
    457 ****       124.0000 138.2500  96.0000 Du        
    458 ****       124.0000 138.2500  96.2500 Du        
    459 ****       124.0000 138.2500  96.5000 Du        
    460 ****       124.0000 138.2500  96.7500 Du        
    461 ****       124.0000 138.5000  93.2500 Du        
    462 ****       124.0000 138.5000  93.5000 Du        
    463 ****       124.0000 138.5000  93.7500 Du        
    464 ****       124.0000 138.5000  94.0000 Du        
    465 ****       124.0000 138.5000  94.2500 Du        
    466 ****       124.0000 138.5000  94.5000 Du        
    467 ****       124.0000 138.5000  94.7500 Du        
    468 ****       124.0000 138.5000  95.0000 Du        
    469 ****       124.0000 138.5000  95.2500 Du        
    470 ****       124.0000 138.5000  95.5000 Du        
    471 ****       124.0000 138.5000  95.7500 Du        
    472 ****       124.0000 138.5000  96.0000 Du        
    473 ****       124.0000 138.5000  96.2500 Du        
    474 ****       124.0000 138.5000  96.5000 Du        
    475 ****       124.0000 138.5000  96.7500 Du        
    476 ****       124.0000 138.7500  93.2500 Du        
    477 ****       124.0000 138.7500  93.5000 Du        
    478 ****       124.0000 138.7500  93.7500 Du        
    479 ****       124.0000 138.7500  94.0000 Du        
    480 ****       124.0000 138.7500  94.2500 Du        
    481 ****       124.0000 138.7500  94.5000 Du        
    482 ****       124.0000 138.7500  94.7500 Du        
    483 ****       124.0000 138.7500  95.0000 Du        
    484 ****       124.0000 138.7500  95.2500 Du        
    485 ****       124.0000 138.7500  95.5000 Du        
    486 ****       124.0000 138.7500  95.7500 Du        
    487 ****       124.0000 138.7500  96.0000 Du        
    488 ****       124.0000 138.7500  96.2500 Du        
    489 ****       124.0000 138.7500  96.5000 Du        
    490 ****       124.0000 138.7500  96.7500 Du        
    491 ****       124.0000 138.7500  97.0000 Du        
    492 ****       124.0000 139.0000  94.0000 Du        
    493 ****       124.0000 139.0000  94.2500 Du        
    494 ****       124.0000 139.0000  94.5000 Du        
    495 ****       124.0000 139.0000  94.7500 Du        
    496 ****       124.0000 139.0000  95.0000 Du        
    497 ****       124.0000 139.0000  95.2500 Du        
    498 ****       124.0000 139.0000  95.5000 Du        
    499 ****       124.0000 139.0000  95.7500 Du        
    500 ****       124.0000 139.0000  96.0000 Du        
    501 ****       124.0000 139.0000  96.2500 Du        
    502 ****       124.0000 139.0000  96.5000 Du        
    503 ****       124.0000 139.0000  96.7500 Du        
    504 ****       124.0000 139.0000  97.0000 Du        
    505 ****       124.0000 139.2500  86.0000 Du        
    506 ****       124.0000 139.2500  86.2500 Du        
    507 ****       124.0000 139.2500  86.5000 Du        
    508 ****       124.0000 139.2500  94.5000 Du        
    509 ****       124.0000 139.2500  94.7500 Du        
    510 ****       124.0000 139.2500  95.0000 Du        
    511 ****       124.0000 139.2500  95.2500 Du        
    512 ****       124.0000 139.2500  95.5000 Du        
    513 ****       124.0000 139.2500  95.7500 Du        
    514 ****       124.0000 139.2500  96.0000 Du        
    515 ****       124.0000 139.2500  96.2500 Du        
    516 ****       124.0000 139.2500  96.5000 Du        
    517 ****       124.0000 139.2500  96.7500 Du        
    518 ****       124.0000 139.2500  97.0000 Du        
    519 ****       124.0000 139.5000  86.0000 Du        
    520 ****       124.0000 139.5000  86.2500 Du        
    521 ****       124.0000 139.5000  95.0000 Du        
    522 ****       124.0000 139.5000  95.2500 Du        
    523 ****       124.0000 139.5000  95.5000 Du        
    524 ****       124.0000 139.5000  95.7500 Du        
    525 ****       124.0000 139.5000  96.0000 Du        
    526 ****       124.0000 139.5000  96.2500 Du        
    527 ****       124.0000 139.5000  96.5000 Du        
    528 ****       124.0000 139.5000  96.7500 Du        
    529 ****       124.0000 139.5000  97.0000 Du        
    530 ****       124.0000 139.7500  85.7500 Du        
    531 ****       124.0000 139.7500  86.0000 Du        
    532 ****       124.0000 139.7500  86.2500 Du        
    533 ****       124.0000 139.7500  86.5000 Du        
    534 ****       124.0000 139.7500  95.5000 Du        
    535 ****       124.0000 139.7500  95.7500 Du        
    536 ****       124.0000 139.7500  96.0000 Du        
    537 ****       124.0000 139.7500  96.2500 Du        
    538 ****       124.0000 139.7500  96.5000 Du        
    539 ****       124.0000 139.7500  96.7500 Du        
    540 ****       124.0000 139.7500  97.0000 Du        
    541 ****       124.0000 139.7500  97.2500 Du        
    542 ****       124.0000 140.0000  86.0000 Du        
    543 ****       124.0000 140.0000  86.2500 Du        
    544 ****       124.0000 140.0000  95.7500 Du        
    545 ****       124.0000 140.0000  96.0000 Du        
    546 ****       124.0000 140.0000  96.2500 Du        
    547 ****       124.0000 140.0000  96.5000 Du        
    548 ****       124.0000 140.0000  96.7500 Du        
    549 ****       124.0000 140.0000  97.0000 Du        
    550 ****       124.0000 140.0000  97.2500 Du        
    551 ****       124.0000 140.2500  86.2500 Du        
    552 ****       124.0000 140.2500  96.0000 Du        
    553 ****       124.0000 140.2500  96.2500 Du        
    554 ****       124.0000 140.2500  96.5000 Du        
    555 ****       124.0000 140.2500  96.7500 Du        
    556 ****       124.0000 140.2500  97.0000 Du        
    557 ****       124.0000 140.2500  97.2500 Du        
    558 ****       124.0000 140.5000  96.2500 Du        
    559 ****       124.0000 140.5000  96.5000 Du        
    560 ****       124.0000 140.5000  96.7500 Du        
    561 ****       124.0000 140.5000  97.0000 Du        
    562 ****       124.0000 140.5000  97.2500 Du        
    563 ****       124.0000 140.7500  96.2500 Du        
    564 ****       124.0000 140.7500  96.5000 Du        
    565 ****       124.0000 140.7500  96.7500 Du        
    566 ****       124.0000 140.7500  97.0000 Du        
    567 ****       124.0000 140.7500  97.2500 Du        
    568 ****       124.0000 141.0000  96.5000 Du        
    569 ****       124.0000 141.0000  96.7500 Du        
    570 ****       124.0000 141.0000  97.0000 Du        
    571 ****       124.0000 141.0000  97.2500 Du        
    572 ****       124.0000 141.2500  96.7500 Du        
    573 ****       124.0000 141.2500  97.0000 Du        
    574 ****       124.0000 141.2500  97.2500 Du        
    575 ****       124.0000 141.5000  97.0000 Du        
    576 ****       124.0000 141.5000  97.2500 Du        
    577 ****       124.2500 137.7500  94.2500 Du        
    578 ****       124.2500 137.7500  94.5000 Du        
    579 ****       124.2500 137.7500  94.7500 Du        
    580 ****       124.2500 137.7500  95.0000 Du        
    581 ****       124.2500 137.7500  95.2500 Du        
    582 ****       124.2500 137.7500  95.5000 Du        
    583 ****       124.2500 137.7500  95.7500 Du        
    584 ****       124.2500 137.7500  96.0000 Du        
    585 ****       124.2500 138.0000  93.2500 Du        
    586 ****       124.2500 138.0000  93.5000 Du        
    587 ****       124.2500 138.0000  93.7500 Du        
    588 ****       124.2500 138.0000  94.0000 Du        
    589 ****       124.2500 138.0000  94.2500 Du        
    590 ****       124.2500 138.0000  94.5000 Du        
    591 ****       124.2500 138.0000  94.7500 Du        
    592 ****       124.2500 138.0000  95.0000 Du        
    593 ****       124.2500 138.0000  95.2500 Du        
    594 ****       124.2500 138.0000  95.5000 Du        
    595 ****       124.2500 138.0000  95.7500 Du        
    596 ****       124.2500 138.0000  96.0000 Du        
    597 ****       124.2500 138.0000  96.2500 Du        
    598 ****       124.2500 138.0000  96.5000 Du        
    599 ****       124.2500 138.2500  93.0000 Du        
    600 ****       124.2500 138.2500  93.2500 Du        
    601 ****       124.2500 138.2500  93.5000 Du        
    602 ****       124.2500 138.2500  93.7500 Du        
    603 ****       124.2500 138.2500  94.0000 Du        
    604 ****       124.2500 138.2500  94.2500 Du        
    605 ****       124.2500 138.2500  94.5000 Du        
    606 ****       124.2500 138.2500  94.7500 Du        
    607 ****       124.2500 138.2500  95.0000 Du        
    608 ****       124.2500 138.2500  95.2500 Du        
    609 ****       124.2500 138.2500  95.5000 Du        
    610 ****       124.2500 138.2500  95.7500 Du        
    611 ****       124.2500 138.2500  96.0000 Du        
    612 ****       124.2500 138.2500  96.2500 Du        
    613 ****       124.2500 138.2500  96.5000 Du        
    614 ****       124.2500 138.2500  96.7500 Du        
    615 ****       124.2500 138.5000  93.0000 Du        
    616 ****       124.2500 138.5000  93.2500 Du        
    617 ****       124.2500 138.5000  93.5000 Du        
    618 ****       124.2500 138.5000  93.7500 Du        
    619 ****       124.2500 138.5000  94.0000 Du        
    620 ****       124.2500 138.5000  94.2500 Du        
    621 ****       124.2500 138.5000  94.5000 Du        
    622 ****       124.2500 138.5000  94.7500 Du        
    623 ****       124.2500 138.5000  95.0000 Du        
    624 ****       124.2500 138.5000  95.2500 Du        
    625 ****       124.2500 138.5000  95.5000 Du        
    626 ****       124.2500 138.5000  95.7500 Du        
    627 ****       124.2500 138.5000  96.0000 Du        
    628 ****       124.2500 138.5000  96.2500 Du        
    629 ****       124.2500 138.5000  96.5000 Du        
    630 ****       124.2500 138.5000  96.7500 Du        
    631 ****       124.2500 138.7500  93.0000 Du        
    632 ****       124.2500 138.7500  93.2500 Du        
    633 ****       124.2500 138.7500  93.5000 Du        
    634 ****       124.2500 138.7500  93.7500 Du        
    635 ****       124.2500 138.7500  94.0000 Du        
    636 ****       124.2500 138.7500  94.2500 Du        
    637 ****       124.2500 138.7500  94.5000 Du        
    638 ****       124.2500 138.7500  94.7500 Du        
    639 ****       124.2500 138.7500  95.0000 Du        
    640 ****       124.2500 138.7500  95.2500 Du        
    641 ****       124.2500 138.7500  95.5000 Du        
    642 ****       124.2500 138.7500  95.7500 Du        
    643 ****       124.2500 138.7500  96.0000 Du        
    644 ****       124.2500 138.7500  96.2500 Du        
    645 ****       124.2500 138.7500  96.5000 Du        
    646 ****       124.2500 138.7500  96.7500 Du        
    647 ****       124.2500 138.7500  97.0000 Du        
    648 ****       124.2500 139.0000  86.2500 Du        
    649 ****       124.2500 139.0000  86.5000 Du        
    650 ****       124.2500 139.0000  93.7500 Du        
    651 ****       124.2500 139.0000  94.0000 Du        
    652 ****       124.2500 139.0000  94.2500 Du        
    653 ****       124.2500 139.0000  94.5000 Du        
    654 ****       124.2500 139.0000  94.7500 Du        
    655 ****       124.2500 139.0000  95.0000 Du        
    656 ****       124.2500 139.0000  95.2500 Du        
    657 ****       124.2500 139.0000  95.5000 Du        
    658 ****       124.2500 139.0000  95.7500 Du        
    659 ****       124.2500 139.0000  96.0000 Du        
    660 ****       124.2500 139.0000  96.2500 Du        
    661 ****       124.2500 139.0000  96.5000 Du        
    662 ****       124.2500 139.0000  96.7500 Du        
    663 ****       124.2500 139.0000  97.0000 Du        
    664 ****       124.2500 139.2500  86.0000 Du        
    665 ****       124.2500 139.2500  86.2500 Du        
    666 ****       124.2500 139.2500  86.5000 Du        
    667 ****       124.2500 139.2500  94.5000 Du        
    668 ****       124.2500 139.2500  94.7500 Du        
    669 ****       124.2500 139.2500  95.0000 Du        
    670 ****       124.2500 139.2500  95.2500 Du        
    671 ****       124.2500 139.2500  95.5000 Du        
    672 ****       124.2500 139.2500  95.7500 Du        
    673 ****       124.2500 139.2500  96.0000 Du        
    674 ****       124.2500 139.2500  96.2500 Du        
    675 ****       124.2500 139.2500  96.5000 Du        
    676 ****       124.2500 139.2500  96.7500 Du        
    677 ****       124.2500 139.2500  97.0000 Du        
    678 ****       124.2500 139.2500  97.2500 Du        
    679 ****       124.2500 139.5000  86.0000 Du        
    680 ****       124.2500 139.5000  86.2500 Du        
    681 ****       124.2500 139.5000  86.5000 Du        
    682 ****       124.2500 139.5000  95.2500 Du        
    683 ****       124.2500 139.5000  95.5000 Du        
    684 ****       124.2500 139.5000  95.7500 Du        
    685 ****       124.2500 139.5000  96.0000 Du        
    686 ****       124.2500 139.5000  96.2500 Du        
    687 ****       124.2500 139.5000  96.5000 Du        
    688 ****       124.2500 139.5000  96.7500 Du        
    689 ****       124.2500 139.5000  97.0000 Du        
    690 ****       124.2500 139.5000  97.2500 Du        
    691 ****       124.2500 139.7500  86.0000 Du        
    692 ****       124.2500 139.7500  86.2500 Du        
    693 ****       124.2500 139.7500  86.5000 Du        
    694 ****       124.2500 139.7500  95.5000 Du        
    695 ****       124.2500 139.7500  95.7500 Du        
    696 ****       124.2500 139.7500  96.0000 Du        
    697 ****       124.2500 139.7500  96.2500 Du        
    698 ****       124.2500 139.7500  96.5000 Du        
    699 ****       124.2500 139.7500  96.7500 Du        
    700 ****       124.2500 139.7500  97.0000 Du        
    701 ****       124.2500 139.7500  97.2500 Du        
    702 ****       124.2500 140.0000  86.0000 Du        
    703 ****       124.2500 140.0000  86.2500 Du        
    704 ****       124.2500 140.0000  86.5000 Du        
    705 ****       124.2500 140.0000  95.7500 Du        
    706 ****       124.2500 140.0000  96.0000 Du        
    707 ****       124.2500 140.0000  96.2500 Du        
    708 ****       124.2500 140.0000  96.5000 Du        
    709 ****       124.2500 140.0000  96.7500 Du        
    710 ****       124.2500 140.0000  97.0000 Du        
    711 ****       124.2500 140.0000  97.2500 Du        
    712 ****       124.2500 140.0000  97.5000 Du        
    713 ****       124.2500 140.2500  96.0000 Du        
    714 ****       124.2500 140.2500  96.2500 Du        
    715 ****       124.2500 140.2500  96.5000 Du        
    716 ****       124.2500 140.2500  96.7500 Du        
    717 ****       124.2500 140.2500  97.0000 Du        
    718 ****       124.2500 140.2500  97.2500 Du        
    719 ****       124.2500 140.2500  97.5000 Du        
    720 ****       124.2500 140.5000  96.2500 Du        
    721 ****       124.2500 140.5000  96.5000 Du        
    722 ****       124.2500 140.5000  96.7500 Du        
    723 ****       124.2500 140.5000  97.0000 Du        
    724 ****       124.2500 140.5000  97.2500 Du        
    725 ****       124.2500 140.5000  97.5000 Du        
    726 ****       124.2500 140.7500  96.2500 Du        
    727 ****       124.2500 140.7500  96.5000 Du        
    728 ****       124.2500 140.7500  96.7500 Du        
    729 ****       124.2500 140.7500  97.0000 Du        
    730 ****       124.2500 140.7500  97.2500 Du        
    731 ****       124.2500 140.7500  97.5000 Du        
    732 ****       124.2500 141.0000  96.5000 Du        
    733 ****       124.2500 141.0000  96.7500 Du        
    734 ****       124.2500 141.0000  97.0000 Du        
    735 ****       124.2500 141.0000  97.2500 Du        
    736 ****       124.2500 141.0000  97.5000 Du        
    737 ****       124.2500 141.2500  96.5000 Du        
    738 ****       124.2500 141.2500  96.7500 Du        
    739 ****       124.2500 141.2500  97.0000 Du        
    740 ****       124.2500 141.2500  97.2500 Du        
    741 ****       124.2500 141.2500  97.5000 Du        
    742 ****       124.2500 141.2500  97.7500 Du        
    743 ****       124.2500 141.5000  96.7500 Du        
    744 ****       124.2500 141.5000  97.0000 Du        
    745 ****       124.2500 141.5000  97.2500 Du        
    746 ****       124.2500 141.5000  97.5000 Du        
    747 ****       124.2500 141.7500  97.0000 Du        
    748 ****       124.2500 141.7500  97.2500 Du        
    749 ****       124.5000 137.7500  94.2500 Du        
    750 ****       124.5000 137.7500  94.5000 Du        
    751 ****       124.5000 137.7500  94.7500 Du        
    752 ****       124.5000 137.7500  95.0000 Du        
    753 ****       124.5000 137.7500  95.2500 Du        
    754 ****       124.5000 137.7500  95.5000 Du        
    755 ****       124.5000 137.7500  95.7500 Du        
    756 ****       124.5000 137.7500  96.0000 Du        
    757 ****       124.5000 137.7500  96.2500 Du        
    758 ****       124.5000 138.0000  93.5000 Du        
    759 ****       124.5000 138.0000  93.7500 Du        
    760 ****       124.5000 138.0000  94.0000 Du        
    761 ****       124.5000 138.0000  94.2500 Du        
    762 ****       124.5000 138.0000  94.5000 Du        
    763 ****       124.5000 138.0000  94.7500 Du        
    764 ****       124.5000 138.0000  95.0000 Du        
    765 ****       124.5000 138.0000  95.2500 Du        
    766 ****       124.5000 138.0000  95.5000 Du        
    767 ****       124.5000 138.0000  95.7500 Du        
    768 ****       124.5000 138.0000  96.0000 Du        
    769 ****       124.5000 138.0000  96.2500 Du        
    770 ****       124.5000 138.0000  96.5000 Du        
    771 ****       124.5000 138.2500  93.0000 Du        
    772 ****       124.5000 138.2500  93.2500 Du        
    773 ****       124.5000 138.2500  93.5000 Du        
    774 ****       124.5000 138.2500  93.7500 Du        
    775 ****       124.5000 138.2500  94.0000 Du        
    776 ****       124.5000 138.2500  94.2500 Du        
    777 ****       124.5000 138.2500  94.5000 Du        
    778 ****       124.5000 138.2500  94.7500 Du        
    779 ****       124.5000 138.2500  95.0000 Du        
    780 ****       124.5000 138.2500  95.2500 Du        
    781 ****       124.5000 138.2500  95.5000 Du        
    782 ****       124.5000 138.2500  95.7500 Du        
    783 ****       124.5000 138.2500  96.0000 Du        
    784 ****       124.5000 138.2500  96.2500 Du        
    785 ****       124.5000 138.2500  96.5000 Du        
    786 ****       124.5000 138.5000  93.0000 Du        
    787 ****       124.5000 138.5000  93.2500 Du        
    788 ****       124.5000 138.5000  93.5000 Du        
    789 ****       124.5000 138.5000  93.7500 Du        
    790 ****       124.5000 138.5000  94.0000 Du        
    791 ****       124.5000 138.5000  94.2500 Du        
    792 ****       124.5000 138.5000  94.5000 Du        
    793 ****       124.5000 138.5000  94.7500 Du        
    794 ****       124.5000 138.5000  95.0000 Du        
    795 ****       124.5000 138.5000  95.2500 Du        
    796 ****       124.5000 138.5000  95.5000 Du        
    797 ****       124.5000 138.5000  95.7500 Du        
    798 ****       124.5000 138.5000  96.0000 Du        
    799 ****       124.5000 138.5000  96.2500 Du        
    800 ****       124.5000 138.5000  96.5000 Du        
    801 ****       124.5000 138.5000  96.7500 Du        
    802 ****       124.5000 138.7500  93.0000 Du        
    803 ****       124.5000 138.7500  93.2500 Du        
    804 ****       124.5000 138.7500  93.5000 Du        
    805 ****       124.5000 138.7500  93.7500 Du        
    806 ****       124.5000 138.7500  94.0000 Du        
    807 ****       124.5000 138.7500  94.2500 Du        
    808 ****       124.5000 138.7500  94.5000 Du        
    809 ****       124.5000 138.7500  94.7500 Du        
    810 ****       124.5000 138.7500  95.0000 Du        
    811 ****       124.5000 138.7500  95.2500 Du        
    812 ****       124.5000 138.7500  95.5000 Du        
    813 ****       124.5000 138.7500  95.7500 Du        
    814 ****       124.5000 138.7500  96.0000 Du        
    815 ****       124.5000 138.7500  96.2500 Du        
    816 ****       124.5000 138.7500  96.5000 Du        
    817 ****       124.5000 138.7500  96.7500 Du        
    818 ****       124.5000 138.7500  97.0000 Du        
    819 ****       124.5000 139.0000  86.5000 Du        
    820 ****       124.5000 139.0000  93.7500 Du        
    821 ****       124.5000 139.0000  94.0000 Du        
    822 ****       124.5000 139.0000  94.2500 Du        
    823 ****       124.5000 139.0000  94.5000 Du        
    824 ****       124.5000 139.0000  94.7500 Du        
    825 ****       124.5000 139.0000  95.0000 Du        
    826 ****       124.5000 139.0000  95.2500 Du        
    827 ****       124.5000 139.0000  95.5000 Du        
    828 ****       124.5000 139.0000  95.7500 Du        
    829 ****       124.5000 139.0000  96.0000 Du        
    830 ****       124.5000 139.0000  96.2500 Du        
    831 ****       124.5000 139.0000  96.5000 Du        
    832 ****       124.5000 139.0000  96.7500 Du        
    833 ****       124.5000 139.0000  97.0000 Du        
    834 ****       124.5000 139.2500  86.0000 Du        
    835 ****       124.5000 139.2500  86.2500 Du        
    836 ****       124.5000 139.2500  86.5000 Du        
    837 ****       124.5000 139.2500  94.7500 Du        
    838 ****       124.5000 139.2500  95.0000 Du        
    839 ****       124.5000 139.2500  95.2500 Du        
    840 ****       124.5000 139.2500  95.5000 Du        
    841 ****       124.5000 139.2500  95.7500 Du        
    842 ****       124.5000 139.2500  96.0000 Du        
    843 ****       124.5000 139.2500  96.2500 Du        
    844 ****       124.5000 139.2500  96.5000 Du        
    845 ****       124.5000 139.2500  96.7500 Du        
    846 ****       124.5000 139.2500  97.0000 Du        
    847 ****       124.5000 139.2500  97.2500 Du        
    848 ****       124.5000 139.5000  86.5000 Du        
    849 ****       124.5000 139.5000  95.2500 Du        
    850 ****       124.5000 139.5000  95.5000 Du        
    851 ****       124.5000 139.5000  95.7500 Du        
    852 ****       124.5000 139.5000  96.0000 Du        
    853 ****       124.5000 139.5000  96.2500 Du        
    854 ****       124.5000 139.5000  96.5000 Du        
    855 ****       124.5000 139.5000  96.7500 Du        
    856 ****       124.5000 139.5000  97.0000 Du        
    857 ****       124.5000 139.5000  97.2500 Du        
    858 ****       124.5000 139.7500  95.7500 Du        
    859 ****       124.5000 139.7500  96.0000 Du        
    860 ****       124.5000 139.7500  96.2500 Du        
    861 ****       124.5000 139.7500  96.5000 Du        
    862 ****       124.5000 139.7500  96.7500 Du        
    863 ****       124.5000 139.7500  97.0000 Du        
    864 ****       124.5000 139.7500  97.2500 Du        
    865 ****       124.5000 139.7500  97.5000 Du        
    866 ****       124.5000 140.0000  96.0000 Du        
    867 ****       124.5000 140.0000  96.2500 Du        
    868 ****       124.5000 140.0000  96.5000 Du        
    869 ****       124.5000 140.0000  96.7500 Du        
    870 ****       124.5000 140.0000  97.0000 Du        
    871 ****       124.5000 140.0000  97.2500 Du        
    872 ****       124.5000 140.0000  97.5000 Du        
    873 ****       124.5000 140.2500  96.0000 Du        
    874 ****       124.5000 140.2500  96.2500 Du        
    875 ****       124.5000 140.2500  96.5000 Du        
    876 ****       124.5000 140.2500  96.7500 Du        
    877 ****       124.5000 140.2500  97.0000 Du        
    878 ****       124.5000 140.2500  97.2500 Du        
    879 ****       124.5000 140.2500  97.5000 Du        
    880 ****       124.5000 140.5000  96.2500 Du        
    881 ****       124.5000 140.5000  96.5000 Du        
    882 ****       124.5000 140.5000  96.7500 Du        
    883 ****       124.5000 140.5000  97.0000 Du        
    884 ****       124.5000 140.5000  97.2500 Du        
    885 ****       124.5000 140.5000  97.5000 Du        
    886 ****       124.5000 140.5000  97.7500 Du        
    887 ****       124.5000 140.7500  96.2500 Du        
    888 ****       124.5000 140.7500  96.5000 Du        
    889 ****       124.5000 140.7500  96.7500 Du        
    890 ****       124.5000 140.7500  97.0000 Du        
    891 ****       124.5000 140.7500  97.2500 Du        
    892 ****       124.5000 140.7500  97.5000 Du        
    893 ****       124.5000 140.7500  97.7500 Du        
    894 ****       124.5000 141.0000  96.5000 Du        
    895 ****       124.5000 141.0000  96.7500 Du        
    896 ****       124.5000 141.0000  97.0000 Du        
    897 ****       124.5000 141.0000  97.2500 Du        
    898 ****       124.5000 141.0000  97.5000 Du        
    899 ****       124.5000 141.0000  97.7500 Du        
    900 ****       124.5000 141.2500  96.5000 Du        
    901 ****       124.5000 141.2500  96.7500 Du        
    902 ****       124.5000 141.2500  97.0000 Du        
    903 ****       124.5000 141.2500  97.2500 Du        
    904 ****       124.5000 141.2500  97.5000 Du        
    905 ****       124.5000 141.2500  97.7500 Du        
    906 ****       124.5000 141.5000  96.7500 Du        
    907 ****       124.5000 141.5000  97.0000 Du        
    908 ****       124.5000 141.5000  97.2500 Du        
    909 ****       124.5000 141.5000  97.5000 Du        
    910 ****       124.5000 141.5000  97.7500 Du        
    911 ****       124.5000 141.7500  97.0000 Du        
    912 ****       124.5000 141.7500  97.2500 Du        
    913 ****       124.7500 137.5000  94.7500 Du        
    914 ****       124.7500 137.5000  95.0000 Du        
    915 ****       124.7500 137.5000  95.2500 Du        
    916 ****       124.7500 137.5000  95.5000 Du        
    917 ****       124.7500 137.5000  95.7500 Du        
    918 ****       124.7500 137.5000  96.0000 Du        
    919 ****       124.7500 137.7500  94.2500 Du        
    920 ****       124.7500 137.7500  94.5000 Du        
    921 ****       124.7500 137.7500  94.7500 Du        
    922 ****       124.7500 137.7500  95.0000 Du        
    923 ****       124.7500 137.7500  95.2500 Du        
    924 ****       124.7500 137.7500  95.5000 Du        
    925 ****       124.7500 137.7500  95.7500 Du        
    926 ****       124.7500 137.7500  96.0000 Du        
    927 ****       124.7500 137.7500  96.2500 Du        
    928 ****       124.7500 138.0000  93.7500 Du        
    929 ****       124.7500 138.0000  94.0000 Du        
    930 ****       124.7500 138.0000  94.2500 Du        
    931 ****       124.7500 138.0000  94.5000 Du        
    932 ****       124.7500 138.0000  94.7500 Du        
    933 ****       124.7500 138.0000  95.0000 Du        
    934 ****       124.7500 138.0000  95.2500 Du        
    935 ****       124.7500 138.0000  95.5000 Du        
    936 ****       124.7500 138.0000  95.7500 Du        
    937 ****       124.7500 138.0000  96.0000 Du        
    938 ****       124.7500 138.0000  96.2500 Du        
    939 ****       124.7500 138.0000  96.5000 Du        
    940 ****       124.7500 138.2500  92.7500 Du        
    941 ****       124.7500 138.2500  93.0000 Du        
    942 ****       124.7500 138.2500  93.2500 Du        
    943 ****       124.7500 138.2500  93.5000 Du        
    944 ****       124.7500 138.2500  93.7500 Du        
    945 ****       124.7500 138.2500  94.0000 Du        
    946 ****       124.7500 138.2500  94.2500 Du        
    947 ****       124.7500 138.2500  94.5000 Du        
    948 ****       124.7500 138.2500  94.7500 Du        
    949 ****       124.7500 138.2500  95.0000 Du        
    950 ****       124.7500 138.2500  95.2500 Du        
    951 ****       124.7500 138.2500  95.5000 Du        
    952 ****       124.7500 138.2500  95.7500 Du        
    953 ****       124.7500 138.2500  96.0000 Du        
    954 ****       124.7500 138.2500  96.2500 Du        
    955 ****       124.7500 138.2500  96.5000 Du        
    956 ****       124.7500 138.5000  92.7500 Du        
    957 ****       124.7500 138.5000  93.0000 Du        
    958 ****       124.7500 138.5000  93.2500 Du        
    959 ****       124.7500 138.5000  93.5000 Du        
    960 ****       124.7500 138.5000  93.7500 Du        
    961 ****       124.7500 138.5000  94.0000 Du        
    962 ****       124.7500 138.5000  94.2500 Du        
    963 ****       124.7500 138.5000  94.5000 Du        
    964 ****       124.7500 138.5000  94.7500 Du        
    965 ****       124.7500 138.5000  95.0000 Du        
    966 ****       124.7500 138.5000  95.2500 Du        
    967 ****       124.7500 138.5000  95.5000 Du        
    968 ****       124.7500 138.5000  95.7500 Du        
    969 ****       124.7500 138.5000  96.0000 Du        
    970 ****       124.7500 138.5000  96.2500 Du        
    971 ****       124.7500 138.5000  96.5000 Du        
    972 ****       124.7500 138.5000  96.7500 Du        
    973 ****       124.7500 138.7500  92.7500 Du        
    974 ****       124.7500 138.7500  93.0000 Du        
    975 ****       124.7500 138.7500  93.2500 Du        
    976 ****       124.7500 138.7500  93.5000 Du        
    977 ****       124.7500 138.7500  93.7500 Du        
    978 ****       124.7500 138.7500  94.0000 Du        
    979 ****       124.7500 138.7500  94.2500 Du        
    980 ****       124.7500 138.7500  94.5000 Du        
    981 ****       124.7500 138.7500  94.7500 Du        
    982 ****       124.7500 138.7500  95.0000 Du        
    983 ****       124.7500 138.7500  95.2500 Du        
    984 ****       124.7500 138.7500  95.5000 Du        
    985 ****       124.7500 138.7500  95.7500 Du        
    986 ****       124.7500 138.7500  96.0000 Du        
    987 ****       124.7500 138.7500  96.2500 Du        
    988 ****       124.7500 138.7500  96.5000 Du        
    989 ****       124.7500 138.7500  96.7500 Du        
    990 ****       124.7500 138.7500  97.0000 Du        
    991 ****       124.7500 139.0000  86.5000 Du        
    992 ****       124.7500 139.0000  86.7500 Du        
    993 ****       124.7500 139.0000  93.5000 Du        
    994 ****       124.7500 139.0000  93.7500 Du        
    995 ****       124.7500 139.0000  94.0000 Du        
    996 ****       124.7500 139.0000  94.2500 Du        
    997 ****       124.7500 139.0000  94.5000 Du        
    998 ****       124.7500 139.0000  94.7500 Du        
    999 ****       124.7500 139.0000  95.0000 Du        
   1000 ****       124.7500 139.0000  95.2500 Du        
   1001 ****       124.7500 139.0000  95.5000 Du        
   1002 ****       124.7500 139.0000  95.7500 Du        
   1003 ****       124.7500 139.0000  96.0000 Du        
   1004 ****       124.7500 139.0000  96.2500 Du        
   1005 ****       124.7500 139.0000  96.5000 Du        
   1006 ****       124.7500 139.0000  96.7500 Du        
   1007 ****       124.7500 139.0000  97.0000 Du        
   1008 ****       124.7500 139.2500  86.0000 Du        
   1009 ****       124.7500 139.2500  86.2500 Du        
   1010 ****       124.7500 139.2500  86.5000 Du        
   1011 ****       124.7500 139.2500  86.7500 Du        
   1012 ****       124.7500 139.2500  94.7500 Du        
   1013 ****       124.7500 139.2500  95.0000 Du        
   1014 ****       124.7500 139.2500  95.2500 Du        
   1015 ****       124.7500 139.2500  95.5000 Du        
   1016 ****       124.7500 139.2500  95.7500 Du        
   1017 ****       124.7500 139.2500  96.0000 Du        
   1018 ****       124.7500 139.2500  96.2500 Du        
   1019 ****       124.7500 139.2500  96.5000 Du        
   1020 ****       124.7500 139.2500  96.7500 Du        
   1021 ****       124.7500 139.2500  97.0000 Du        
   1022 ****       124.7500 139.2500  97.2500 Du        
   1023 ****       124.7500 139.5000  86.5000 Du        
   1024 ****       124.7500 139.5000  95.2500 Du        
   1025 ****       124.7500 139.5000  95.5000 Du        
   1026 ****       124.7500 139.5000  95.7500 Du        
   1027 ****       124.7500 139.5000  96.0000 Du        
   1028 ****       124.7500 139.5000  96.2500 Du        
   1029 ****       124.7500 139.5000  96.5000 Du        
   1030 ****       124.7500 139.5000  96.7500 Du        
   1031 ****       124.7500 139.5000  97.0000 Du        
   1032 ****       124.7500 139.5000  97.2500 Du        
   1033 ****       124.7500 139.7500  86.5000 Du        
   1034 ****       124.7500 139.7500  95.7500 Du        
   1035 ****       124.7500 139.7500  96.0000 Du        
   1036 ****       124.7500 139.7500  96.2500 Du        
   1037 ****       124.7500 139.7500  96.5000 Du        
   1038 ****       124.7500 139.7500  96.7500 Du        
   1039 ****       124.7500 139.7500  97.0000 Du        
   1040 ****       124.7500 139.7500  97.2500 Du        
   1041 ****       124.7500 139.7500  97.5000 Du        
   1042 ****       124.7500 140.0000  96.0000 Du        
   1043 ****       124.7500 140.0000  96.2500 Du        
   1044 ****       124.7500 140.0000  96.5000 Du        
   1045 ****       124.7500 140.0000  96.7500 Du        
   1046 ****       124.7500 140.0000  97.0000 Du        
   1047 ****       124.7500 140.0000  97.2500 Du        
   1048 ****       124.7500 140.0000  97.5000 Du        
   1049 ****       124.7500 140.0000  97.7500 Du        
   1050 ****       124.7500 140.2500  96.0000 Du        
   1051 ****       124.7500 140.2500  96.2500 Du        
   1052 ****       124.7500 140.2500  96.5000 Du        
   1053 ****       124.7500 140.2500  96.7500 Du        
   1054 ****       124.7500 140.2500  97.0000 Du        
   1055 ****       124.7500 140.2500  97.2500 Du        
   1056 ****       124.7500 140.2500  97.5000 Du        
   1057 ****       124.7500 140.2500  97.7500 Du        
   1058 ****       124.7500 140.5000  96.2500 Du        
   1059 ****       124.7500 140.5000  96.5000 Du        
   1060 ****       124.7500 140.5000  96.7500 Du        
   1061 ****       124.7500 140.5000  97.0000 Du        
   1062 ****       124.7500 140.5000  97.2500 Du        
   1063 ****       124.7500 140.5000  97.5000 Du        
   1064 ****       124.7500 140.5000  97.7500 Du        
   1065 ****       124.7500 140.5000  98.0000 Du        
   1066 ****       124.7500 140.7500  96.2500 Du        
   1067 ****       124.7500 140.7500  96.5000 Du        
   1068 ****       124.7500 140.7500  96.7500 Du        
   1069 ****       124.7500 140.7500  97.0000 Du        
   1070 ****       124.7500 140.7500  97.2500 Du        
   1071 ****       124.7500 140.7500  97.5000 Du        
   1072 ****       124.7500 140.7500  97.7500 Du        
   1073 ****       124.7500 140.7500  98.0000 Du        
   1074 ****       124.7500 141.0000  96.5000 Du        
   1075 ****       124.7500 141.0000  96.7500 Du        
   1076 ****       124.7500 141.0000  97.0000 Du        
   1077 ****       124.7500 141.0000  97.2500 Du        
   1078 ****       124.7500 141.0000  97.5000 Du        
   1079 ****       124.7500 141.0000  97.7500 Du        
   1080 ****       124.7500 141.0000  98.0000 Du        
   1081 ****       124.7500 141.2500  96.5000 Du        
   1082 ****       124.7500 141.2500  96.7500 Du        
   1083 ****       124.7500 141.2500  97.0000 Du        
   1084 ****       124.7500 141.2500  97.2500 Du        
   1085 ****       124.7500 141.2500  97.5000 Du        
   1086 ****       124.7500 141.2500  97.7500 Du        
   1087 ****       124.7500 141.2500  98.0000 Du        
   1088 ****       124.7500 141.5000  96.7500 Du        
   1089 ****       124.7500 141.5000  97.0000 Du        
   1090 ****       124.7500 141.5000  97.2500 Du        
   1091 ****       124.7500 141.5000  97.5000 Du        
   1092 ****       124.7500 141.5000  97.7500 Du        
   1093 ****       124.7500 141.7500  97.0000 Du        
   1094 ****       124.7500 141.7500  97.2500 Du        
   1095 ****       125.0000 137.2500  95.0000 Du        
   1096 ****       125.0000 137.2500  95.2500 Du        
   1097 ****       125.0000 137.2500  95.5000 Du        
   1098 ****       125.0000 137.2500  95.7500 Du        
   1099 ****       125.0000 137.5000  94.7500 Du        
   1100 ****       125.0000 137.5000  95.0000 Du        
   1101 ****       125.0000 137.5000  95.2500 Du        
   1102 ****       125.0000 137.5000  95.5000 Du        
   1103 ****       125.0000 137.5000  95.7500 Du        
   1104 ****       125.0000 137.5000  96.0000 Du        
   1105 ****       125.0000 137.7500  94.5000 Du        
   1106 ****       125.0000 137.7500  94.7500 Du        
   1107 ****       125.0000 137.7500  95.0000 Du        
   1108 ****       125.0000 137.7500  95.2500 Du        
   1109 ****       125.0000 137.7500  95.5000 Du        
   1110 ****       125.0000 137.7500  95.7500 Du        
   1111 ****       125.0000 137.7500  96.0000 Du        
   1112 ****       125.0000 137.7500  96.2500 Du        
   1113 ****       125.0000 138.0000  93.7500 Du        
   1114 ****       125.0000 138.0000  94.0000 Du        
   1115 ****       125.0000 138.0000  94.2500 Du        
   1116 ****       125.0000 138.0000  94.5000 Du        
   1117 ****       125.0000 138.0000  94.7500 Du        
   1118 ****       125.0000 138.0000  95.0000 Du        
   1119 ****       125.0000 138.0000  95.2500 Du        
   1120 ****       125.0000 138.0000  95.5000 Du        
   1121 ****       125.0000 138.0000  95.7500 Du        
   1122 ****       125.0000 138.0000  96.0000 Du        
   1123 ****       125.0000 138.0000  96.2500 Du        
   1124 ****       125.0000 138.0000  96.5000 Du        
   1125 ****       125.0000 138.2500  92.7500 Du        
   1126 ****       125.0000 138.2500  93.0000 Du        
   1127 ****       125.0000 138.2500  93.2500 Du        
   1128 ****       125.0000 138.2500  93.5000 Du        
   1129 ****       125.0000 138.2500  93.7500 Du        
   1130 ****       125.0000 138.2500  94.0000 Du        
   1131 ****       125.0000 138.2500  94.2500 Du        
   1132 ****       125.0000 138.2500  94.5000 Du        
   1133 ****       125.0000 138.2500  94.7500 Du        
   1134 ****       125.0000 138.2500  95.0000 Du        
   1135 ****       125.0000 138.2500  95.2500 Du        
   1136 ****       125.0000 138.2500  95.5000 Du        
   1137 ****       125.0000 138.2500  95.7500 Du        
   1138 ****       125.0000 138.2500  96.0000 Du        
   1139 ****       125.0000 138.2500  96.2500 Du        
   1140 ****       125.0000 138.2500  96.5000 Du        
   1141 ****       125.0000 138.2500  96.7500 Du        
   1142 ****       125.0000 138.5000  92.5000 Du        
   1143 ****       125.0000 138.5000  92.7500 Du        
   1144 ****       125.0000 138.5000  93.0000 Du        
   1145 ****       125.0000 138.5000  93.2500 Du        
   1146 ****       125.0000 138.5000  93.5000 Du        
   1147 ****       125.0000 138.5000  93.7500 Du        
   1148 ****       125.0000 138.5000  94.0000 Du        
   1149 ****       125.0000 138.5000  94.2500 Du        
   1150 ****       125.0000 138.5000  94.5000 Du        
   1151 ****       125.0000 138.5000  94.7500 Du        
   1152 ****       125.0000 138.5000  95.0000 Du        
   1153 ****       125.0000 138.5000  95.2500 Du        
   1154 ****       125.0000 138.5000  95.5000 Du        
   1155 ****       125.0000 138.5000  95.7500 Du        
   1156 ****       125.0000 138.5000  96.0000 Du        
   1157 ****       125.0000 138.5000  96.2500 Du        
   1158 ****       125.0000 138.5000  96.5000 Du        
   1159 ****       125.0000 138.5000  96.7500 Du        
   1160 ****       125.0000 138.7500  92.5000 Du        
   1161 ****       125.0000 138.7500  92.7500 Du        
   1162 ****       125.0000 138.7500  93.0000 Du        
   1163 ****       125.0000 138.7500  93.2500 Du        
   1164 ****       125.0000 138.7500  93.5000 Du        
   1165 ****       125.0000 138.7500  93.7500 Du        
   1166 ****       125.0000 138.7500  94.0000 Du        
   1167 ****       125.0000 138.7500  94.2500 Du        
   1168 ****       125.0000 138.7500  94.5000 Du        
   1169 ****       125.0000 138.7500  94.7500 Du        
   1170 ****       125.0000 138.7500  95.0000 Du        
   1171 ****       125.0000 138.7500  95.2500 Du        
   1172 ****       125.0000 138.7500  95.5000 Du        
   1173 ****       125.0000 138.7500  95.7500 Du        
   1174 ****       125.0000 138.7500  96.0000 Du        
   1175 ****       125.0000 138.7500  96.2500 Du        
   1176 ****       125.0000 138.7500  96.5000 Du        
   1177 ****       125.0000 138.7500  96.7500 Du        
   1178 ****       125.0000 138.7500  97.0000 Du        
   1179 ****       125.0000 139.0000  86.5000 Du        
   1180 ****       125.0000 139.0000  86.7500 Du        
   1181 ****       125.0000 139.0000  92.5000 Du        
   1182 ****       125.0000 139.0000  92.7500 Du        
   1183 ****       125.0000 139.0000  93.0000 Du        
   1184 ****       125.0000 139.0000  93.2500 Du        
   1185 ****       125.0000 139.0000  93.5000 Du        
   1186 ****       125.0000 139.0000  93.7500 Du        
   1187 ****       125.0000 139.0000  94.0000 Du        
   1188 ****       125.0000 139.0000  94.2500 Du        
   1189 ****       125.0000 139.0000  94.5000 Du        
   1190 ****       125.0000 139.0000  94.7500 Du        
   1191 ****       125.0000 139.0000  95.0000 Du        
   1192 ****       125.0000 139.0000  95.2500 Du        
   1193 ****       125.0000 139.0000  95.5000 Du        
   1194 ****       125.0000 139.0000  95.7500 Du        
   1195 ****       125.0000 139.0000  96.0000 Du        
   1196 ****       125.0000 139.0000  96.2500 Du        
   1197 ****       125.0000 139.0000  96.5000 Du        
   1198 ****       125.0000 139.0000  96.7500 Du        
   1199 ****       125.0000 139.0000  97.0000 Du        
   1200 ****       125.0000 139.2500  86.2500 Du        
   1201 ****       125.0000 139.2500  86.5000 Du        
   1202 ****       125.0000 139.2500  86.7500 Du        
   1203 ****       125.0000 139.2500  94.7500 Du        
   1204 ****       125.0000 139.2500  95.0000 Du        
   1205 ****       125.0000 139.2500  95.2500 Du        
   1206 ****       125.0000 139.2500  95.5000 Du        
   1207 ****       125.0000 139.2500  95.7500 Du        
   1208 ****       125.0000 139.2500  96.0000 Du        
   1209 ****       125.0000 139.2500  96.2500 Du        
   1210 ****       125.0000 139.2500  96.5000 Du        
   1211 ****       125.0000 139.2500  96.7500 Du        
   1212 ****       125.0000 139.2500  97.0000 Du        
   1213 ****       125.0000 139.2500  97.2500 Du        
   1214 ****       125.0000 139.5000  86.5000 Du        
   1215 ****       125.0000 139.5000  86.7500 Du        
   1216 ****       125.0000 139.5000  95.2500 Du        
   1217 ****       125.0000 139.5000  95.5000 Du        
   1218 ****       125.0000 139.5000  95.7500 Du        
   1219 ****       125.0000 139.5000  96.0000 Du        
   1220 ****       125.0000 139.5000  96.2500 Du        
   1221 ****       125.0000 139.5000  96.5000 Du        
   1222 ****       125.0000 139.5000  96.7500 Du        
   1223 ****       125.0000 139.5000  97.0000 Du        
   1224 ****       125.0000 139.5000  97.2500 Du        
   1225 ****       125.0000 139.7500  86.5000 Du        
   1226 ****       125.0000 139.7500  86.7500 Du        
   1227 ****       125.0000 139.7500  95.7500 Du        
   1228 ****       125.0000 139.7500  96.0000 Du        
   1229 ****       125.0000 139.7500  96.2500 Du        
   1230 ****       125.0000 139.7500  96.5000 Du        
   1231 ****       125.0000 139.7500  96.7500 Du        
   1232 ****       125.0000 139.7500  97.0000 Du        
   1233 ****       125.0000 139.7500  97.2500 Du        
   1234 ****       125.0000 139.7500  97.5000 Du        
   1235 ****       125.0000 140.0000  96.0000 Du        
   1236 ****       125.0000 140.0000  96.2500 Du        
   1237 ****       125.0000 140.0000  96.5000 Du        
   1238 ****       125.0000 140.0000  96.7500 Du        
   1239 ****       125.0000 140.0000  97.0000 Du        
   1240 ****       125.0000 140.0000  97.2500 Du        
   1241 ****       125.0000 140.0000  97.5000 Du        
   1242 ****       125.0000 140.0000  97.7500 Du        
   1243 ****       125.0000 140.2500  96.0000 Du        
   1244 ****       125.0000 140.2500  96.2500 Du        
   1245 ****       125.0000 140.2500  96.5000 Du        
   1246 ****       125.0000 140.2500  96.7500 Du        
   1247 ****       125.0000 140.2500  97.0000 Du        
   1248 ****       125.0000 140.2500  97.2500 Du        
   1249 ****       125.0000 140.2500  97.5000 Du        
   1250 ****       125.0000 140.2500  97.7500 Du        
   1251 ****       125.0000 140.2500  98.0000 Du        
   1252 ****       125.0000 140.5000  96.2500 Du        
   1253 ****       125.0000 140.5000  96.5000 Du        
   1254 ****       125.0000 140.5000  96.7500 Du        
   1255 ****       125.0000 140.5000  97.0000 Du        
   1256 ****       125.0000 140.5000  97.2500 Du        
   1257 ****       125.0000 140.5000  97.5000 Du        
   1258 ****       125.0000 140.5000  97.7500 Du        
   1259 ****       125.0000 140.5000  98.0000 Du        
   1260 ****       125.0000 140.5000  98.2500 Du        
   1261 ****       125.0000 140.7500  96.2500 Du        
   1262 ****       125.0000 140.7500  96.5000 Du        
   1263 ****       125.0000 140.7500  96.7500 Du        
   1264 ****       125.0000 140.7500  97.0000 Du        
   1265 ****       125.0000 140.7500  97.2500 Du        
   1266 ****       125.0000 140.7500  97.5000 Du        
   1267 ****       125.0000 140.7500  97.7500 Du        
   1268 ****       125.0000 140.7500  98.0000 Du        
   1269 ****       125.0000 140.7500  98.2500 Du        
   1270 ****       125.0000 141.0000  96.2500 Du        
   1271 ****       125.0000 141.0000  96.5000 Du        
   1272 ****       125.0000 141.0000  96.7500 Du        
   1273 ****       125.0000 141.0000  97.0000 Du        
   1274 ****       125.0000 141.0000  97.2500 Du        
   1275 ****       125.0000 141.0000  97.5000 Du        
   1276 ****       125.0000 141.0000  97.7500 Du        
   1277 ****       125.0000 141.0000  98.0000 Du        
   1278 ****       125.0000 141.0000  98.2500 Du        
   1279 ****       125.0000 141.0000  98.5000 Du        
   1280 ****       125.0000 141.2500  96.5000 Du        
   1281 ****       125.0000 141.2500  96.7500 Du        
   1282 ****       125.0000 141.2500  97.0000 Du        
   1283 ****       125.0000 141.2500  97.2500 Du        
   1284 ****       125.0000 141.2500  97.5000 Du        
   1285 ****       125.0000 141.2500  97.7500 Du        
   1286 ****       125.0000 141.2500  98.0000 Du        
   1287 ****       125.0000 141.2500  98.2500 Du        
   1288 ****       125.0000 141.5000  96.5000 Du        
   1289 ****       125.0000 141.5000  96.7500 Du        
   1290 ****       125.0000 141.5000  97.0000 Du        
   1291 ****       125.0000 141.5000  97.2500 Du        
   1292 ****       125.0000 141.5000  97.5000 Du        
   1293 ****       125.0000 141.5000  97.7500 Du        
   1294 ****       125.0000 141.7500  96.7500 Du        
   1295 ****       125.0000 141.7500  97.0000 Du        
   1296 ****       125.2500 137.0000  95.2500 Du        
   1297 ****       125.2500 137.0000  95.5000 Du        
   1298 ****       125.2500 137.2500  95.0000 Du        
   1299 ****       125.2500 137.2500  95.2500 Du        
   1300 ****       125.2500 137.2500  95.5000 Du        
   1301 ****       125.2500 137.2500  95.7500 Du        
   1302 ****       125.2500 137.5000  94.7500 Du        
   1303 ****       125.2500 137.5000  95.0000 Du        
   1304 ****       125.2500 137.5000  95.2500 Du        
   1305 ****       125.2500 137.5000  95.5000 Du        
   1306 ****       125.2500 137.5000  95.7500 Du        
   1307 ****       125.2500 137.5000  96.0000 Du        
   1308 ****       125.2500 137.7500  94.5000 Du        
   1309 ****       125.2500 137.7500  94.7500 Du        
   1310 ****       125.2500 137.7500  95.0000 Du        
   1311 ****       125.2500 137.7500  95.2500 Du        
   1312 ****       125.2500 137.7500  95.5000 Du        
   1313 ****       125.2500 137.7500  95.7500 Du        
   1314 ****       125.2500 137.7500  96.0000 Du        
   1315 ****       125.2500 137.7500  96.2500 Du        
   1316 ****       125.2500 138.0000  94.0000 Du        
   1317 ****       125.2500 138.0000  94.2500 Du        
   1318 ****       125.2500 138.0000  94.5000 Du        
   1319 ****       125.2500 138.0000  94.7500 Du        
   1320 ****       125.2500 138.0000  95.0000 Du        
   1321 ****       125.2500 138.0000  95.2500 Du        
   1322 ****       125.2500 138.0000  95.5000 Du        
   1323 ****       125.2500 138.0000  95.7500 Du        
   1324 ****       125.2500 138.0000  96.0000 Du        
   1325 ****       125.2500 138.0000  96.2500 Du        
   1326 ****       125.2500 138.0000  96.5000 Du        
   1327 ****       125.2500 138.2500  93.0000 Du        
   1328 ****       125.2500 138.2500  93.2500 Du        
   1329 ****       125.2500 138.2500  93.5000 Du        
   1330 ****       125.2500 138.2500  93.7500 Du        
   1331 ****       125.2500 138.2500  94.0000 Du        
   1332 ****       125.2500 138.2500  94.2500 Du        
   1333 ****       125.2500 138.2500  94.5000 Du        
   1334 ****       125.2500 138.2500  94.7500 Du        
   1335 ****       125.2500 138.2500  95.0000 Du        
   1336 ****       125.2500 138.2500  95.2500 Du        
   1337 ****       125.2500 138.2500  95.5000 Du        
   1338 ****       125.2500 138.2500  95.7500 Du        
   1339 ****       125.2500 138.2500  96.0000 Du        
   1340 ****       125.2500 138.2500  96.2500 Du        
   1341 ****       125.2500 138.2500  96.5000 Du        
   1342 ****       125.2500 138.2500  96.7500 Du        
   1343 ****       125.2500 138.5000  92.2500 Du        
   1344 ****       125.2500 138.5000  92.5000 Du        
   1345 ****       125.2500 138.5000  92.7500 Du        
   1346 ****       125.2500 138.5000  93.0000 Du        
   1347 ****       125.2500 138.5000  93.2500 Du        
   1348 ****       125.2500 138.5000  93.5000 Du        
   1349 ****       125.2500 138.5000  93.7500 Du        
   1350 ****       125.2500 138.5000  94.0000 Du        
   1351 ****       125.2500 138.5000  94.2500 Du        
   1352 ****       125.2500 138.5000  94.5000 Du        
   1353 ****       125.2500 138.5000  94.7500 Du        
   1354 ****       125.2500 138.5000  95.0000 Du        
   1355 ****       125.2500 138.5000  95.2500 Du        
   1356 ****       125.2500 138.5000  95.5000 Du        
   1357 ****       125.2500 138.5000  95.7500 Du        
   1358 ****       125.2500 138.5000  96.0000 Du        
   1359 ****       125.2500 138.5000  96.2500 Du        
   1360 ****       125.2500 138.5000  96.5000 Du        
   1361 ****       125.2500 138.5000  96.7500 Du        
   1362 ****       125.2500 138.7500  92.2500 Du        
   1363 ****       125.2500 138.7500  92.5000 Du        
   1364 ****       125.2500 138.7500  92.7500 Du        
   1365 ****       125.2500 138.7500  93.0000 Du        
   1366 ****       125.2500 138.7500  93.2500 Du        
   1367 ****       125.2500 138.7500  93.5000 Du        
   1368 ****       125.2500 138.7500  93.7500 Du        
   1369 ****       125.2500 138.7500  94.0000 Du        
   1370 ****       125.2500 138.7500  94.2500 Du        
   1371 ****       125.2500 138.7500  94.5000 Du        
   1372 ****       125.2500 138.7500  94.7500 Du        
   1373 ****       125.2500 138.7500  95.0000 Du        
   1374 ****       125.2500 138.7500  95.2500 Du        
   1375 ****       125.2500 138.7500  95.5000 Du        
   1376 ****       125.2500 138.7500  95.7500 Du        
   1377 ****       125.2500 138.7500  96.0000 Du        
   1378 ****       125.2500 138.7500  96.2500 Du        
   1379 ****       125.2500 138.7500  96.5000 Du        
   1380 ****       125.2500 138.7500  96.7500 Du        
   1381 ****       125.2500 138.7500  97.0000 Du        
   1382 ****       125.2500 139.0000  92.2500 Du        
   1383 ****       125.2500 139.0000  92.5000 Du        
   1384 ****       125.2500 139.0000  92.7500 Du        
   1385 ****       125.2500 139.0000  93.0000 Du        
   1386 ****       125.2500 139.0000  93.2500 Du        
   1387 ****       125.2500 139.0000  93.5000 Du        
   1388 ****       125.2500 139.0000  93.7500 Du        
   1389 ****       125.2500 139.0000  94.0000 Du        
   1390 ****       125.2500 139.0000  94.2500 Du        
   1391 ****       125.2500 139.0000  94.5000 Du        
   1392 ****       125.2500 139.0000  94.7500 Du        
   1393 ****       125.2500 139.0000  95.0000 Du        
   1394 ****       125.2500 139.0000  95.2500 Du        
   1395 ****       125.2500 139.0000  95.5000 Du        
   1396 ****       125.2500 139.0000  95.7500 Du        
   1397 ****       125.2500 139.0000  96.0000 Du        
   1398 ****       125.2500 139.0000  96.2500 Du        
   1399 ****       125.2500 139.0000  96.5000 Du        
   1400 ****       125.2500 139.0000  96.7500 Du        
   1401 ****       125.2500 139.0000  97.0000 Du        
   1402 ****       125.2500 139.2500  86.5000 Du        
   1403 ****       125.2500 139.2500  86.7500 Du        
   1404 ****       125.2500 139.2500  94.5000 Du        
   1405 ****       125.2500 139.2500  94.7500 Du        
   1406 ****       125.2500 139.2500  95.0000 Du        
   1407 ****       125.2500 139.2500  95.2500 Du        
   1408 ****       125.2500 139.2500  95.5000 Du        
   1409 ****       125.2500 139.2500  95.7500 Du        
   1410 ****       125.2500 139.2500  96.0000 Du        
   1411 ****       125.2500 139.2500  96.2500 Du        
   1412 ****       125.2500 139.2500  96.5000 Du        
   1413 ****       125.2500 139.2500  96.7500 Du        
   1414 ****       125.2500 139.2500  97.0000 Du        
   1415 ****       125.2500 139.2500  97.2500 Du        
   1416 ****       125.2500 139.5000  95.2500 Du        
   1417 ****       125.2500 139.5000  95.5000 Du        
   1418 ****       125.2500 139.5000  95.7500 Du        
   1419 ****       125.2500 139.5000  96.0000 Du        
   1420 ****       125.2500 139.5000  96.2500 Du        
   1421 ****       125.2500 139.5000  96.5000 Du        
   1422 ****       125.2500 139.5000  96.7500 Du        
   1423 ****       125.2500 139.5000  97.0000 Du        
   1424 ****       125.2500 139.5000  97.2500 Du        
   1425 ****       125.2500 139.5000  97.5000 Du        
   1426 ****       125.2500 139.7500  95.7500 Du        
   1427 ****       125.2500 139.7500  96.0000 Du        
   1428 ****       125.2500 139.7500  96.2500 Du        
   1429 ****       125.2500 139.7500  96.5000 Du        
   1430 ****       125.2500 139.7500  96.7500 Du        
   1431 ****       125.2500 139.7500  97.0000 Du        
   1432 ****       125.2500 139.7500  97.2500 Du        
   1433 ****       125.2500 139.7500  97.5000 Du        
   1434 ****       125.2500 140.0000  96.0000 Du        
   1435 ****       125.2500 140.0000  96.2500 Du        
   1436 ****       125.2500 140.0000  96.5000 Du        
   1437 ****       125.2500 140.0000  96.7500 Du        
   1438 ****       125.2500 140.0000  97.0000 Du        
   1439 ****       125.2500 140.0000  97.2500 Du        
   1440 ****       125.2500 140.0000  97.5000 Du        
   1441 ****       125.2500 140.0000  97.7500 Du        
   1442 ****       125.2500 140.2500  96.0000 Du        
   1443 ****       125.2500 140.2500  96.2500 Du        
   1444 ****       125.2500 140.2500  96.5000 Du        
   1445 ****       125.2500 140.2500  96.7500 Du        
   1446 ****       125.2500 140.2500  97.0000 Du        
   1447 ****       125.2500 140.2500  97.2500 Du        
   1448 ****       125.2500 140.2500  97.5000 Du        
   1449 ****       125.2500 140.2500  97.7500 Du        
   1450 ****       125.2500 140.2500  98.0000 Du        
   1451 ****       125.2500 140.5000  96.2500 Du        
   1452 ****       125.2500 140.5000  96.5000 Du        
   1453 ****       125.2500 140.5000  96.7500 Du        
   1454 ****       125.2500 140.5000  97.0000 Du        
   1455 ****       125.2500 140.5000  97.2500 Du        
   1456 ****       125.2500 140.5000  97.5000 Du        
   1457 ****       125.2500 140.5000  97.7500 Du        
   1458 ****       125.2500 140.5000  98.0000 Du        
   1459 ****       125.2500 140.5000  98.2500 Du        
   1460 ****       125.2500 140.7500  96.2500 Du        
   1461 ****       125.2500 140.7500  96.5000 Du        
   1462 ****       125.2500 140.7500  96.7500 Du        
   1463 ****       125.2500 140.7500  97.0000 Du        
   1464 ****       125.2500 140.7500  97.2500 Du        
   1465 ****       125.2500 140.7500  97.5000 Du        
   1466 ****       125.2500 140.7500  97.7500 Du        
   1467 ****       125.2500 140.7500  98.0000 Du        
   1468 ****       125.2500 140.7500  98.2500 Du        
   1469 ****       125.2500 140.7500  98.5000 Du        
   1470 ****       125.2500 141.0000  96.2500 Du        
   1471 ****       125.2500 141.0000  96.5000 Du        
   1472 ****       125.2500 141.0000  96.7500 Du        
   1473 ****       125.2500 141.0000  97.0000 Du        
   1474 ****       125.2500 141.0000  97.2500 Du        
   1475 ****       125.2500 141.0000  97.5000 Du        
   1476 ****       125.2500 141.0000  97.7500 Du        
   1477 ****       125.2500 141.0000  98.0000 Du        
   1478 ****       125.2500 141.0000  98.2500 Du        
   1479 ****       125.2500 141.0000  98.5000 Du        
   1480 ****       125.2500 141.2500  96.5000 Du        
   1481 ****       125.2500 141.2500  96.7500 Du        
   1482 ****       125.2500 141.2500  97.0000 Du        
   1483 ****       125.2500 141.2500  97.2500 Du        
   1484 ****       125.2500 141.2500  97.5000 Du        
   1485 ****       125.2500 141.2500  97.7500 Du        
   1486 ****       125.2500 141.2500  98.0000 Du        
   1487 ****       125.2500 141.2500  98.2500 Du        
   1488 ****       125.2500 141.5000  96.5000 Du        
   1489 ****       125.2500 141.5000  96.7500 Du        
   1490 ****       125.2500 141.5000  97.0000 Du        
   1491 ****       125.2500 141.5000  97.2500 Du        
   1492 ****       125.2500 141.5000  97.5000 Du        
   1493 ****       125.5000 137.0000  95.2500 Du        
   1494 ****       125.5000 137.0000  95.5000 Du        
   1495 ****       125.5000 137.0000  95.7500 Du        
   1496 ****       125.5000 137.2500  95.0000 Du        
   1497 ****       125.5000 137.2500  95.2500 Du        
   1498 ****       125.5000 137.2500  95.5000 Du        
   1499 ****       125.5000 137.2500  95.7500 Du        
   1500 ****       125.5000 137.2500  96.0000 Du        
   1501 ****       125.5000 137.5000  94.7500 Du        
   1502 ****       125.5000 137.5000  95.0000 Du        
   1503 ****       125.5000 137.5000  95.2500 Du        
   1504 ****       125.5000 137.5000  95.5000 Du        
   1505 ****       125.5000 137.5000  95.7500 Du        
   1506 ****       125.5000 137.5000  96.0000 Du        
   1507 ****       125.5000 137.5000  96.2500 Du        
   1508 ****       125.5000 137.7500  94.5000 Du        
   1509 ****       125.5000 137.7500  94.7500 Du        
   1510 ****       125.5000 137.7500  95.0000 Du        
   1511 ****       125.5000 137.7500  95.2500 Du        
   1512 ****       125.5000 137.7500  95.5000 Du        
   1513 ****       125.5000 137.7500  95.7500 Du        
   1514 ****       125.5000 137.7500  96.0000 Du        
   1515 ****       125.5000 137.7500  96.2500 Du        
   1516 ****       125.5000 138.0000  94.0000 Du        
   1517 ****       125.5000 138.0000  94.2500 Du        
   1518 ****       125.5000 138.0000  94.5000 Du        
   1519 ****       125.5000 138.0000  94.7500 Du        
   1520 ****       125.5000 138.0000  95.0000 Du        
   1521 ****       125.5000 138.0000  95.2500 Du        
   1522 ****       125.5000 138.0000  95.5000 Du        
   1523 ****       125.5000 138.0000  95.7500 Du        
   1524 ****       125.5000 138.0000  96.0000 Du        
   1525 ****       125.5000 138.0000  96.2500 Du        
   1526 ****       125.5000 138.0000  96.5000 Du        
   1527 ****       125.5000 138.2500  93.2500 Du        
   1528 ****       125.5000 138.2500  93.5000 Du        
   1529 ****       125.5000 138.2500  93.7500 Du        
   1530 ****       125.5000 138.2500  94.0000 Du        
   1531 ****       125.5000 138.2500  94.2500 Du        
   1532 ****       125.5000 138.2500  94.5000 Du        
   1533 ****       125.5000 138.2500  94.7500 Du        
   1534 ****       125.5000 138.2500  95.0000 Du        
   1535 ****       125.5000 138.2500  95.2500 Du        
   1536 ****       125.5000 138.2500  95.5000 Du        
   1537 ****       125.5000 138.2500  95.7500 Du        
   1538 ****       125.5000 138.2500  96.0000 Du        
   1539 ****       125.5000 138.2500  96.2500 Du        
   1540 ****       125.5000 138.2500  96.5000 Du        
   1541 ****       125.5000 138.2500  96.7500 Du        
   1542 ****       125.5000 138.5000  92.2500 Du        
   1543 ****       125.5000 138.5000  92.5000 Du        
   1544 ****       125.5000 138.5000  92.7500 Du        
   1545 ****       125.5000 138.5000  93.0000 Du        
   1546 ****       125.5000 138.5000  93.2500 Du        
   1547 ****       125.5000 138.5000  93.5000 Du        
   1548 ****       125.5000 138.5000  93.7500 Du        
   1549 ****       125.5000 138.5000  94.0000 Du        
   1550 ****       125.5000 138.5000  94.2500 Du        
   1551 ****       125.5000 138.5000  94.5000 Du        
   1552 ****       125.5000 138.5000  94.7500 Du        
   1553 ****       125.5000 138.5000  95.0000 Du        
   1554 ****       125.5000 138.5000  95.2500 Du        
   1555 ****       125.5000 138.5000  95.5000 Du        
   1556 ****       125.5000 138.5000  95.7500 Du        
   1557 ****       125.5000 138.5000  96.0000 Du        
   1558 ****       125.5000 138.5000  96.2500 Du        
   1559 ****       125.5000 138.5000  96.5000 Du        
   1560 ****       125.5000 138.5000  96.7500 Du        
   1561 ****       125.5000 138.7500  92.0000 Du        
   1562 ****       125.5000 138.7500  92.2500 Du        
   1563 ****       125.5000 138.7500  92.5000 Du        
   1564 ****       125.5000 138.7500  92.7500 Du        
   1565 ****       125.5000 138.7500  93.0000 Du        
   1566 ****       125.5000 138.7500  93.2500 Du        
   1567 ****       125.5000 138.7500  93.5000 Du        
   1568 ****       125.5000 138.7500  93.7500 Du        
   1569 ****       125.5000 138.7500  94.0000 Du        
   1570 ****       125.5000 138.7500  94.2500 Du        
   1571 ****       125.5000 138.7500  94.5000 Du        
   1572 ****       125.5000 138.7500  94.7500 Du        
   1573 ****       125.5000 138.7500  95.0000 Du        
   1574 ****       125.5000 138.7500  95.2500 Du        
   1575 ****       125.5000 138.7500  95.5000 Du        
   1576 ****       125.5000 138.7500  95.7500 Du        
   1577 ****       125.5000 138.7500  96.0000 Du        
   1578 ****       125.5000 138.7500  96.2500 Du        
   1579 ****       125.5000 138.7500  96.5000 Du        
   1580 ****       125.5000 138.7500  96.7500 Du        
   1581 ****       125.5000 138.7500  97.0000 Du        
   1582 ****       125.5000 139.0000  92.0000 Du        
   1583 ****       125.5000 139.0000  92.2500 Du        
   1584 ****       125.5000 139.0000  92.5000 Du        
   1585 ****       125.5000 139.0000  92.7500 Du        
   1586 ****       125.5000 139.0000  93.0000 Du        
   1587 ****       125.5000 139.0000  93.2500 Du        
   1588 ****       125.5000 139.0000  93.5000 Du        
   1589 ****       125.5000 139.0000  93.7500 Du        
   1590 ****       125.5000 139.0000  94.0000 Du        
   1591 ****       125.5000 139.0000  94.2500 Du        
   1592 ****       125.5000 139.0000  94.5000 Du        
   1593 ****       125.5000 139.0000  94.7500 Du        
   1594 ****       125.5000 139.0000  95.0000 Du        
   1595 ****       125.5000 139.0000  95.2500 Du        
   1596 ****       125.5000 139.0000  95.5000 Du        
   1597 ****       125.5000 139.0000  95.7500 Du        
   1598 ****       125.5000 139.0000  96.0000 Du        
   1599 ****       125.5000 139.0000  96.2500 Du        
   1600 ****       125.5000 139.0000  96.5000 Du        
   1601 ****       125.5000 139.0000  96.7500 Du        
   1602 ****       125.5000 139.0000  97.0000 Du        
   1603 ****       125.5000 139.2500  92.0000 Du        
   1604 ****       125.5000 139.2500  92.2500 Du        
   1605 ****       125.5000 139.2500  94.7500 Du        
   1606 ****       125.5000 139.2500  95.0000 Du        
   1607 ****       125.5000 139.2500  95.2500 Du        
   1608 ****       125.5000 139.2500  95.5000 Du        
   1609 ****       125.5000 139.2500  95.7500 Du        
   1610 ****       125.5000 139.2500  96.0000 Du        
   1611 ****       125.5000 139.2500  96.2500 Du        
   1612 ****       125.5000 139.2500  96.5000 Du        
   1613 ****       125.5000 139.2500  96.7500 Du        
   1614 ****       125.5000 139.2500  97.0000 Du        
   1615 ****       125.5000 139.2500  97.2500 Du        
   1616 ****       125.5000 139.5000  95.7500 Du        
   1617 ****       125.5000 139.5000  96.0000 Du        
   1618 ****       125.5000 139.5000  96.2500 Du        
   1619 ****       125.5000 139.5000  96.5000 Du        
   1620 ****       125.5000 139.5000  96.7500 Du        
   1621 ****       125.5000 139.5000  97.0000 Du        
   1622 ****       125.5000 139.5000  97.2500 Du        
   1623 ****       125.5000 139.7500  95.7500 Du        
   1624 ****       125.5000 139.7500  96.0000 Du        
   1625 ****       125.5000 139.7500  96.2500 Du        
   1626 ****       125.5000 139.7500  96.5000 Du        
   1627 ****       125.5000 139.7500  96.7500 Du        
   1628 ****       125.5000 139.7500  97.0000 Du        
   1629 ****       125.5000 139.7500  97.2500 Du        
   1630 ****       125.5000 139.7500  97.5000 Du        
   1631 ****       125.5000 140.0000  96.0000 Du        
   1632 ****       125.5000 140.0000  96.2500 Du        
   1633 ****       125.5000 140.0000  96.5000 Du        
   1634 ****       125.5000 140.0000  96.7500 Du        
   1635 ****       125.5000 140.0000  97.0000 Du        
   1636 ****       125.5000 140.0000  97.2500 Du        
   1637 ****       125.5000 140.0000  97.5000 Du        
   1638 ****       125.5000 140.0000  97.7500 Du        
   1639 ****       125.5000 140.2500  96.2500 Du        
   1640 ****       125.5000 140.2500  96.5000 Du        
   1641 ****       125.5000 140.2500  96.7500 Du        
   1642 ****       125.5000 140.2500  97.0000 Du        
   1643 ****       125.5000 140.2500  97.2500 Du        
   1644 ****       125.5000 140.2500  97.5000 Du        
   1645 ****       125.5000 140.2500  97.7500 Du        
   1646 ****       125.5000 140.2500  98.0000 Du        
   1647 ****       125.5000 140.5000  96.5000 Du        
   1648 ****       125.5000 140.5000  96.7500 Du        
   1649 ****       125.5000 140.5000  97.0000 Du        
   1650 ****       125.5000 140.5000  97.2500 Du        
   1651 ****       125.5000 140.5000  97.5000 Du        
   1652 ****       125.5000 140.5000  97.7500 Du        
   1653 ****       125.5000 140.5000  98.0000 Du        
   1654 ****       125.5000 140.5000  98.2500 Du        
   1655 ****       125.5000 140.7500  96.2500 Du        
   1656 ****       125.5000 140.7500  96.5000 Du        
   1657 ****       125.5000 140.7500  96.7500 Du        
   1658 ****       125.5000 140.7500  97.0000 Du        
   1659 ****       125.5000 140.7500  97.2500 Du        
   1660 ****       125.5000 140.7500  97.5000 Du        
   1661 ****       125.5000 140.7500  97.7500 Du        
   1662 ****       125.5000 140.7500  98.0000 Du        
   1663 ****       125.5000 140.7500  98.2500 Du        
   1664 ****       125.5000 140.7500  98.5000 Du        
   1665 ****       125.5000 141.0000  96.5000 Du        
   1666 ****       125.5000 141.0000  96.7500 Du        
   1667 ****       125.5000 141.0000  97.0000 Du        
   1668 ****       125.5000 141.0000  97.2500 Du        
   1669 ****       125.5000 141.0000  97.5000 Du        
   1670 ****       125.5000 141.0000  97.7500 Du        
   1671 ****       125.5000 141.0000  98.0000 Du        
   1672 ****       125.5000 141.0000  98.2500 Du        
   1673 ****       125.5000 141.0000  98.5000 Du        
   1674 ****       125.5000 141.0000  98.7500 Du        
   1675 ****       125.5000 141.2500  96.5000 Du        
   1676 ****       125.5000 141.2500  96.7500 Du        
   1677 ****       125.5000 141.2500  97.0000 Du        
   1678 ****       125.5000 141.2500  97.2500 Du        
   1679 ****       125.5000 141.2500  97.5000 Du        
   1680 ****       125.5000 141.2500  97.7500 Du        
   1681 ****       125.5000 141.2500  98.0000 Du        
   1682 ****       125.5000 141.5000  96.5000 Du        
   1683 ****       125.5000 141.5000  96.7500 Du        
   1684 ****       125.5000 141.5000  97.0000 Du        
   1685 ****       125.7500 137.0000  95.2500 Du        
   1686 ****       125.7500 137.0000  95.5000 Du        
   1687 ****       125.7500 137.0000  95.7500 Du        
   1688 ****       125.7500 137.2500  95.0000 Du        
   1689 ****       125.7500 137.2500  95.2500 Du        
   1690 ****       125.7500 137.2500  95.5000 Du        
   1691 ****       125.7500 137.2500  95.7500 Du        
   1692 ****       125.7500 137.2500  96.0000 Du        
   1693 ****       125.7500 137.5000  94.7500 Du        
   1694 ****       125.7500 137.5000  95.0000 Du        
   1695 ****       125.7500 137.5000  95.2500 Du        
   1696 ****       125.7500 137.5000  95.5000 Du        
   1697 ****       125.7500 137.5000  95.7500 Du        
   1698 ****       125.7500 137.5000  96.0000 Du        
   1699 ****       125.7500 137.5000  96.2500 Du        
   1700 ****       125.7500 137.7500  94.5000 Du        
   1701 ****       125.7500 137.7500  94.7500 Du        
   1702 ****       125.7500 137.7500  95.0000 Du        
   1703 ****       125.7500 137.7500  95.2500 Du        
   1704 ****       125.7500 137.7500  95.5000 Du        
   1705 ****       125.7500 137.7500  95.7500 Du        
   1706 ****       125.7500 137.7500  96.0000 Du        
   1707 ****       125.7500 137.7500  96.2500 Du        
   1708 ****       125.7500 138.0000  94.0000 Du        
   1709 ****       125.7500 138.0000  94.2500 Du        
   1710 ****       125.7500 138.0000  94.5000 Du        
   1711 ****       125.7500 138.0000  94.7500 Du        
   1712 ****       125.7500 138.0000  95.0000 Du        
   1713 ****       125.7500 138.0000  95.2500 Du        
   1714 ****       125.7500 138.0000  95.5000 Du        
   1715 ****       125.7500 138.0000  95.7500 Du        
   1716 ****       125.7500 138.0000  96.0000 Du        
   1717 ****       125.7500 138.0000  96.2500 Du        
   1718 ****       125.7500 138.0000  96.5000 Du        
   1719 ****       125.7500 138.2500  93.2500 Du        
   1720 ****       125.7500 138.2500  93.5000 Du        
   1721 ****       125.7500 138.2500  93.7500 Du        
   1722 ****       125.7500 138.2500  94.0000 Du        
   1723 ****       125.7500 138.2500  94.2500 Du        
   1724 ****       125.7500 138.2500  94.5000 Du        
   1725 ****       125.7500 138.2500  94.7500 Du        
   1726 ****       125.7500 138.2500  95.0000 Du        
   1727 ****       125.7500 138.2500  95.2500 Du        
   1728 ****       125.7500 138.2500  95.5000 Du        
   1729 ****       125.7500 138.2500  95.7500 Du        
   1730 ****       125.7500 138.2500  96.0000 Du        
   1731 ****       125.7500 138.2500  96.2500 Du        
   1732 ****       125.7500 138.2500  96.5000 Du        
   1733 ****       125.7500 138.2500  96.7500 Du        
   1734 ****       125.7500 138.5000  92.0000 Du        
   1735 ****       125.7500 138.5000  92.2500 Du        
   1736 ****       125.7500 138.5000  92.5000 Du        
   1737 ****       125.7500 138.5000  92.7500 Du        
   1738 ****       125.7500 138.5000  93.0000 Du        
   1739 ****       125.7500 138.5000  93.2500 Du        
   1740 ****       125.7500 138.5000  93.5000 Du        
   1741 ****       125.7500 138.5000  93.7500 Du        
   1742 ****       125.7500 138.5000  94.0000 Du        
   1743 ****       125.7500 138.5000  94.2500 Du        
   1744 ****       125.7500 138.5000  94.5000 Du        
   1745 ****       125.7500 138.5000  94.7500 Du        
   1746 ****       125.7500 138.5000  95.0000 Du        
   1747 ****       125.7500 138.5000  95.2500 Du        
   1748 ****       125.7500 138.5000  95.5000 Du        
   1749 ****       125.7500 138.5000  95.7500 Du        
   1750 ****       125.7500 138.5000  96.0000 Du        
   1751 ****       125.7500 138.5000  96.2500 Du        
   1752 ****       125.7500 138.5000  96.5000 Du        
   1753 ****       125.7500 138.5000  96.7500 Du        
   1754 ****       125.7500 138.7500  91.7500 Du        
   1755 ****       125.7500 138.7500  92.0000 Du        
   1756 ****       125.7500 138.7500  92.2500 Du        
   1757 ****       125.7500 138.7500  92.5000 Du        
   1758 ****       125.7500 138.7500  92.7500 Du        
   1759 ****       125.7500 138.7500  93.0000 Du        
   1760 ****       125.7500 138.7500  93.2500 Du        
   1761 ****       125.7500 138.7500  93.5000 Du        
   1762 ****       125.7500 138.7500  93.7500 Du        
   1763 ****       125.7500 138.7500  94.0000 Du        
   1764 ****       125.7500 138.7500  94.2500 Du        
   1765 ****       125.7500 138.7500  94.5000 Du        
   1766 ****       125.7500 138.7500  94.7500 Du        
   1767 ****       125.7500 138.7500  95.0000 Du        
   1768 ****       125.7500 138.7500  95.2500 Du        
   1769 ****       125.7500 138.7500  95.5000 Du        
   1770 ****       125.7500 138.7500  95.7500 Du        
   1771 ****       125.7500 138.7500  96.0000 Du        
   1772 ****       125.7500 138.7500  96.2500 Du        
   1773 ****       125.7500 138.7500  96.5000 Du        
   1774 ****       125.7500 138.7500  96.7500 Du        
   1775 ****       125.7500 138.7500  97.0000 Du        
   1776 ****       125.7500 139.0000  91.7500 Du        
   1777 ****       125.7500 139.0000  92.0000 Du        
   1778 ****       125.7500 139.0000  92.2500 Du        
   1779 ****       125.7500 139.0000  92.5000 Du        
   1780 ****       125.7500 139.0000  92.7500 Du        
   1781 ****       125.7500 139.0000  93.0000 Du        
   1782 ****       125.7500 139.0000  93.2500 Du        
   1783 ****       125.7500 139.0000  93.5000 Du        
   1784 ****       125.7500 139.0000  93.7500 Du        
   1785 ****       125.7500 139.0000  94.0000 Du        
   1786 ****       125.7500 139.0000  94.2500 Du        
   1787 ****       125.7500 139.0000  94.5000 Du        
   1788 ****       125.7500 139.0000  94.7500 Du        
   1789 ****       125.7500 139.0000  95.0000 Du        
   1790 ****       125.7500 139.0000  95.2500 Du        
   1791 ****       125.7500 139.0000  95.5000 Du        
   1792 ****       125.7500 139.0000  95.7500 Du        
   1793 ****       125.7500 139.0000  96.0000 Du        
   1794 ****       125.7500 139.0000  96.2500 Du        
   1795 ****       125.7500 139.0000  96.5000 Du        
   1796 ****       125.7500 139.0000  96.7500 Du        
   1797 ****       125.7500 139.0000  97.0000 Du        
   1798 ****       125.7500 139.2500  91.7500 Du        
   1799 ****       125.7500 139.2500  92.0000 Du        
   1800 ****       125.7500 139.2500  92.2500 Du        
   1801 ****       125.7500 139.2500  92.5000 Du        
   1802 ****       125.7500 139.2500  92.7500 Du        
   1803 ****       125.7500 139.2500  94.5000 Du        
   1804 ****       125.7500 139.2500  94.7500 Du        
   1805 ****       125.7500 139.2500  95.0000 Du        
   1806 ****       125.7500 139.2500  95.2500 Du        
   1807 ****       125.7500 139.2500  95.5000 Du        
   1808 ****       125.7500 139.2500  95.7500 Du        
   1809 ****       125.7500 139.2500  96.0000 Du        
   1810 ****       125.7500 139.2500  96.2500 Du        
   1811 ****       125.7500 139.2500  96.5000 Du        
   1812 ****       125.7500 139.2500  96.7500 Du        
   1813 ****       125.7500 139.2500  97.0000 Du        
   1814 ****       125.7500 139.2500  97.2500 Du        
   1815 ****       125.7500 139.5000  95.7500 Du        
   1816 ****       125.7500 139.5000  96.0000 Du        
   1817 ****       125.7500 139.5000  96.2500 Du        
   1818 ****       125.7500 139.5000  96.5000 Du        
   1819 ****       125.7500 139.5000  96.7500 Du        
   1820 ****       125.7500 139.5000  97.0000 Du        
   1821 ****       125.7500 139.5000  97.2500 Du        
   1822 ****       125.7500 139.5000  97.5000 Du        
   1823 ****       125.7500 139.7500  95.7500 Du        
   1824 ****       125.7500 139.7500  96.0000 Du        
   1825 ****       125.7500 139.7500  96.2500 Du        
   1826 ****       125.7500 139.7500  96.5000 Du        
   1827 ****       125.7500 139.7500  96.7500 Du        
   1828 ****       125.7500 139.7500  97.0000 Du        
   1829 ****       125.7500 139.7500  97.2500 Du        
   1830 ****       125.7500 139.7500  97.5000 Du        
   1831 ****       125.7500 139.7500  97.7500 Du        
   1832 ****       125.7500 140.0000  96.0000 Du        
   1833 ****       125.7500 140.0000  96.2500 Du        
   1834 ****       125.7500 140.0000  96.5000 Du        
   1835 ****       125.7500 140.0000  96.7500 Du        
   1836 ****       125.7500 140.0000  97.0000 Du        
   1837 ****       125.7500 140.0000  97.2500 Du        
   1838 ****       125.7500 140.0000  97.5000 Du        
   1839 ****       125.7500 140.0000  97.7500 Du        
   1840 ****       125.7500 140.0000  98.0000 Du        
   1841 ****       125.7500 140.2500  96.2500 Du        
   1842 ****       125.7500 140.2500  96.5000 Du        
   1843 ****       125.7500 140.2500  96.7500 Du        
   1844 ****       125.7500 140.2500  97.0000 Du        
   1845 ****       125.7500 140.2500  97.2500 Du        
   1846 ****       125.7500 140.2500  97.5000 Du        
   1847 ****       125.7500 140.2500  97.7500 Du        
   1848 ****       125.7500 140.2500  98.0000 Du        
   1849 ****       125.7500 140.5000  96.5000 Du        
   1850 ****       125.7500 140.5000  96.7500 Du        
   1851 ****       125.7500 140.5000  97.0000 Du        
   1852 ****       125.7500 140.5000  97.2500 Du        
   1853 ****       125.7500 140.5000  97.5000 Du        
   1854 ****       125.7500 140.5000  97.7500 Du        
   1855 ****       125.7500 140.5000  98.0000 Du        
   1856 ****       125.7500 140.5000  98.2500 Du        
   1857 ****       125.7500 140.7500  96.2500 Du        
   1858 ****       125.7500 140.7500  96.5000 Du        
   1859 ****       125.7500 140.7500  96.7500 Du        
   1860 ****       125.7500 140.7500  97.0000 Du        
   1861 ****       125.7500 140.7500  97.2500 Du        
   1862 ****       125.7500 140.7500  97.5000 Du        
   1863 ****       125.7500 140.7500  97.7500 Du        
   1864 ****       125.7500 140.7500  98.0000 Du        
   1865 ****       125.7500 140.7500  98.2500 Du        
   1866 ****       125.7500 140.7500  98.5000 Du        
   1867 ****       125.7500 140.7500  98.7500 Du        
   1868 ****       125.7500 141.0000  96.5000 Du        
   1869 ****       125.7500 141.0000  96.7500 Du        
   1870 ****       125.7500 141.0000  97.0000 Du        
   1871 ****       125.7500 141.0000  97.2500 Du        
   1872 ****       125.7500 141.0000  97.5000 Du        
   1873 ****       125.7500 141.0000  97.7500 Du        
   1874 ****       125.7500 141.0000  98.0000 Du        
   1875 ****       125.7500 141.0000  98.2500 Du        
   1876 ****       125.7500 141.0000  98.5000 Du        
   1877 ****       125.7500 141.0000  98.7500 Du        
   1878 ****       125.7500 141.2500  96.5000 Du        
   1879 ****       125.7500 141.2500  96.7500 Du        
   1880 ****       125.7500 141.2500  97.0000 Du        
   1881 ****       125.7500 141.2500  97.2500 Du        
   1882 ****       125.7500 141.2500  97.5000 Du        
   1883 ****       125.7500 141.2500  97.7500 Du        
   1884 ****       125.7500 141.5000  96.5000 Du        
   1885 ****       125.7500 141.5000  96.7500 Du        
   1886 ****       126.0000 136.7500  95.2500 Du        
   1887 ****       126.0000 136.7500  95.5000 Du        
   1888 ****       126.0000 137.0000  95.0000 Du        
   1889 ****       126.0000 137.0000  95.2500 Du        
   1890 ****       126.0000 137.0000  95.5000 Du        
   1891 ****       126.0000 137.0000  95.7500 Du        
   1892 ****       126.0000 137.2500  94.7500 Du        
   1893 ****       126.0000 137.2500  95.0000 Du        
   1894 ****       126.0000 137.2500  95.2500 Du        
   1895 ****       126.0000 137.2500  95.5000 Du        
   1896 ****       126.0000 137.2500  95.7500 Du        
   1897 ****       126.0000 137.2500  96.0000 Du        
   1898 ****       126.0000 137.5000  94.7500 Du        
   1899 ****       126.0000 137.5000  95.0000 Du        
   1900 ****       126.0000 137.5000  95.2500 Du        
   1901 ****       126.0000 137.5000  95.5000 Du        
   1902 ****       126.0000 137.5000  95.7500 Du        
   1903 ****       126.0000 137.5000  96.0000 Du        
   1904 ****       126.0000 137.5000  96.2500 Du        
   1905 ****       126.0000 137.7500  94.2500 Du        
   1906 ****       126.0000 137.7500  94.5000 Du        
   1907 ****       126.0000 137.7500  94.7500 Du        
   1908 ****       126.0000 137.7500  95.0000 Du        
   1909 ****       126.0000 137.7500  95.2500 Du        
   1910 ****       126.0000 137.7500  95.5000 Du        
   1911 ****       126.0000 137.7500  95.7500 Du        
   1912 ****       126.0000 137.7500  96.0000 Du        
   1913 ****       126.0000 137.7500  96.2500 Du        
   1914 ****       126.0000 137.7500  96.5000 Du        
   1915 ****       126.0000 138.0000  94.0000 Du        
   1916 ****       126.0000 138.0000  94.2500 Du        
   1917 ****       126.0000 138.0000  94.5000 Du        
   1918 ****       126.0000 138.0000  94.7500 Du        
   1919 ****       126.0000 138.0000  95.0000 Du        
   1920 ****       126.0000 138.0000  95.2500 Du        
   1921 ****       126.0000 138.0000  95.5000 Du        
   1922 ****       126.0000 138.0000  95.7500 Du        
   1923 ****       126.0000 138.0000  96.0000 Du        
   1924 ****       126.0000 138.0000  96.2500 Du        
   1925 ****       126.0000 138.0000  96.5000 Du        
   1926 ****       126.0000 138.2500  93.2500 Du        
   1927 ****       126.0000 138.2500  93.5000 Du        
   1928 ****       126.0000 138.2500  93.7500 Du        
   1929 ****       126.0000 138.2500  94.0000 Du        
   1930 ****       126.0000 138.2500  94.2500 Du        
   1931 ****       126.0000 138.2500  94.5000 Du        
   1932 ****       126.0000 138.2500  94.7500 Du        
   1933 ****       126.0000 138.2500  95.0000 Du        
   1934 ****       126.0000 138.2500  95.2500 Du        
   1935 ****       126.0000 138.2500  95.5000 Du        
   1936 ****       126.0000 138.2500  95.7500 Du        
   1937 ****       126.0000 138.2500  96.0000 Du        
   1938 ****       126.0000 138.2500  96.2500 Du        
   1939 ****       126.0000 138.2500  96.5000 Du        
   1940 ****       126.0000 138.2500  96.7500 Du        
   1941 ****       126.0000 138.5000  91.7500 Du        
   1942 ****       126.0000 138.5000  92.0000 Du        
   1943 ****       126.0000 138.5000  92.2500 Du        
   1944 ****       126.0000 138.5000  92.5000 Du        
   1945 ****       126.0000 138.5000  92.7500 Du        
   1946 ****       126.0000 138.5000  93.0000 Du        
   1947 ****       126.0000 138.5000  93.2500 Du        
   1948 ****       126.0000 138.5000  93.5000 Du        
   1949 ****       126.0000 138.5000  93.7500 Du        
   1950 ****       126.0000 138.5000  94.0000 Du        
   1951 ****       126.0000 138.5000  94.2500 Du        
   1952 ****       126.0000 138.5000  94.5000 Du        
   1953 ****       126.0000 138.5000  94.7500 Du        
   1954 ****       126.0000 138.5000  95.0000 Du        
   1955 ****       126.0000 138.5000  95.2500 Du        
   1956 ****       126.0000 138.5000  95.5000 Du        
   1957 ****       126.0000 138.5000  95.7500 Du        
   1958 ****       126.0000 138.5000  96.0000 Du        
   1959 ****       126.0000 138.5000  96.2500 Du        
   1960 ****       126.0000 138.5000  96.5000 Du        
   1961 ****       126.0000 138.5000  96.7500 Du        
   1962 ****       126.0000 138.7500  91.5000 Du        
   1963 ****       126.0000 138.7500  91.7500 Du        
   1964 ****       126.0000 138.7500  92.0000 Du        
   1965 ****       126.0000 138.7500  92.2500 Du        
   1966 ****       126.0000 138.7500  92.5000 Du        
   1967 ****       126.0000 138.7500  92.7500 Du        
   1968 ****       126.0000 138.7500  93.0000 Du        
   1969 ****       126.0000 138.7500  93.2500 Du        
   1970 ****       126.0000 138.7500  93.5000 Du        
   1971 ****       126.0000 138.7500  93.7500 Du        
   1972 ****       126.0000 138.7500  94.0000 Du        
   1973 ****       126.0000 138.7500  94.2500 Du        
   1974 ****       126.0000 138.7500  94.5000 Du        
   1975 ****       126.0000 138.7500  94.7500 Du        
   1976 ****       126.0000 138.7500  95.0000 Du        
   1977 ****       126.0000 138.7500  95.2500 Du        
   1978 ****       126.0000 138.7500  95.5000 Du        
   1979 ****       126.0000 138.7500  95.7500 Du        
   1980 ****       126.0000 138.7500  96.0000 Du        
   1981 ****       126.0000 138.7500  96.2500 Du        
   1982 ****       126.0000 138.7500  96.5000 Du        
   1983 ****       126.0000 138.7500  96.7500 Du        
   1984 ****       126.0000 138.7500  97.0000 Du        
   1985 ****       126.0000 139.0000  91.5000 Du        
   1986 ****       126.0000 139.0000  91.7500 Du        
   1987 ****       126.0000 139.0000  92.0000 Du        
   1988 ****       126.0000 139.0000  92.2500 Du        
   1989 ****       126.0000 139.0000  92.5000 Du        
   1990 ****       126.0000 139.0000  92.7500 Du        
   1991 ****       126.0000 139.0000  93.0000 Du        
   1992 ****       126.0000 139.0000  93.2500 Du        
   1993 ****       126.0000 139.0000  93.5000 Du        
   1994 ****       126.0000 139.0000  93.7500 Du        
   1995 ****       126.0000 139.0000  94.0000 Du        
   1996 ****       126.0000 139.0000  94.2500 Du        
   1997 ****       126.0000 139.0000  94.5000 Du        
   1998 ****       126.0000 139.0000  94.7500 Du        
   1999 ****       126.0000 139.0000  95.0000 Du        
   2000 ****       126.0000 139.0000  95.2500 Du        
   2001 ****       126.0000 139.0000  95.5000 Du        
   2002 ****       126.0000 139.0000  95.7500 Du        
   2003 ****       126.0000 139.0000  96.0000 Du        
   2004 ****       126.0000 139.0000  96.2500 Du        
   2005 ****       126.0000 139.0000  96.5000 Du        
   2006 ****       126.0000 139.0000  96.7500 Du        
   2007 ****       126.0000 139.0000  97.0000 Du        
   2008 ****       126.0000 139.0000  97.2500 Du        
   2009 ****       126.0000 139.2500  91.2500 Du        
   2010 ****       126.0000 139.2500  91.5000 Du        
   2011 ****       126.0000 139.2500  91.7500 Du        
   2012 ****       126.0000 139.2500  92.0000 Du        
   2013 ****       126.0000 139.2500  92.2500 Du        
   2014 ****       126.0000 139.2500  92.5000 Du        
   2015 ****       126.0000 139.2500  92.7500 Du        
   2016 ****       126.0000 139.2500  93.0000 Du        
   2017 ****       126.0000 139.2500  94.0000 Du        
   2018 ****       126.0000 139.2500  94.2500 Du        
   2019 ****       126.0000 139.2500  94.7500 Du        
   2020 ****       126.0000 139.2500  95.0000 Du        
   2021 ****       126.0000 139.2500  95.2500 Du        
   2022 ****       126.0000 139.2500  95.5000 Du        
   2023 ****       126.0000 139.2500  95.7500 Du        
   2024 ****       126.0000 139.2500  96.0000 Du        
   2025 ****       126.0000 139.2500  96.2500 Du        
   2026 ****       126.0000 139.2500  96.5000 Du        
   2027 ****       126.0000 139.2500  96.7500 Du        
   2028 ****       126.0000 139.2500  97.0000 Du        
   2029 ****       126.0000 139.2500  97.2500 Du        
   2030 ****       126.0000 139.5000  91.2500 Du        
   2031 ****       126.0000 139.5000  91.7500 Du        
   2032 ****       126.0000 139.5000  96.0000 Du        
   2033 ****       126.0000 139.5000  96.2500 Du        
   2034 ****       126.0000 139.5000  96.5000 Du        
   2035 ****       126.0000 139.5000  96.7500 Du        
   2036 ****       126.0000 139.5000  97.0000 Du        
   2037 ****       126.0000 139.5000  97.2500 Du        
   2038 ****       126.0000 139.5000  97.5000 Du        
   2039 ****       126.0000 139.7500  91.2500 Du        
   2040 ****       126.0000 139.7500  96.0000 Du        
   2041 ****       126.0000 139.7500  96.2500 Du        
   2042 ****       126.0000 139.7500  96.5000 Du        
   2043 ****       126.0000 139.7500  96.7500 Du        
   2044 ****       126.0000 139.7500  97.0000 Du        
   2045 ****       126.0000 139.7500  97.2500 Du        
   2046 ****       126.0000 139.7500  97.5000 Du        
   2047 ****       126.0000 139.7500  97.7500 Du        
   2048 ****       126.0000 140.0000  91.2500 Du        
   2049 ****       126.0000 140.0000  96.0000 Du        
   2050 ****       126.0000 140.0000  96.2500 Du        
   2051 ****       126.0000 140.0000  96.5000 Du        
   2052 ****       126.0000 140.0000  96.7500 Du        
   2053 ****       126.0000 140.0000  97.0000 Du        
   2054 ****       126.0000 140.0000  97.2500 Du        
   2055 ****       126.0000 140.0000  97.5000 Du        
   2056 ****       126.0000 140.0000  97.7500 Du        
   2057 ****       126.0000 140.0000  98.0000 Du        
   2058 ****       126.0000 140.2500  96.2500 Du        
   2059 ****       126.0000 140.2500  96.5000 Du        
   2060 ****       126.0000 140.2500  96.7500 Du        
   2061 ****       126.0000 140.2500  97.0000 Du        
   2062 ****       126.0000 140.2500  97.2500 Du        
   2063 ****       126.0000 140.2500  97.5000 Du        
   2064 ****       126.0000 140.2500  97.7500 Du        
   2065 ****       126.0000 140.2500  98.0000 Du        
   2066 ****       126.0000 140.5000  96.5000 Du        
   2067 ****       126.0000 140.5000  96.7500 Du        
   2068 ****       126.0000 140.5000  97.0000 Du        
   2069 ****       126.0000 140.5000  97.2500 Du        
   2070 ****       126.0000 140.5000  97.5000 Du        
   2071 ****       126.0000 140.5000  97.7500 Du        
   2072 ****       126.0000 140.5000  98.0000 Du        
   2073 ****       126.0000 140.5000  98.2500 Du        
   2074 ****       126.0000 140.5000  98.5000 Du        
   2075 ****       126.0000 140.7500  96.5000 Du        
   2076 ****       126.0000 140.7500  96.7500 Du        
   2077 ****       126.0000 140.7500  97.0000 Du        
   2078 ****       126.0000 140.7500  97.2500 Du        
   2079 ****       126.0000 140.7500  97.5000 Du        
   2080 ****       126.0000 140.7500  97.7500 Du        
   2081 ****       126.0000 140.7500  98.0000 Du        
   2082 ****       126.0000 140.7500  98.2500 Du        
   2083 ****       126.0000 140.7500  98.5000 Du        
   2084 ****       126.0000 140.7500  98.7500 Du        
   2085 ****       126.0000 141.0000  96.5000 Du        
   2086 ****       126.0000 141.0000  96.7500 Du        
   2087 ****       126.0000 141.0000  97.0000 Du        
   2088 ****       126.0000 141.0000  97.2500 Du        
   2089 ****       126.0000 141.0000  97.5000 Du        
   2090 ****       126.0000 141.0000  97.7500 Du        
   2091 ****       126.0000 141.0000  98.0000 Du        
   2092 ****       126.0000 141.0000  98.2500 Du        
   2093 ****       126.0000 141.0000  98.5000 Du        
   2094 ****       126.0000 141.0000  98.7500 Du        
   2095 ****       126.0000 141.2500  96.5000 Du        
   2096 ****       126.0000 141.2500  96.7500 Du        
   2097 ****       126.0000 141.2500  97.0000 Du        
   2098 ****       126.0000 141.2500  97.2500 Du        
   2099 ****       126.0000 141.2500  97.5000 Du        
   2100 ****       126.2500 136.7500  95.2500 Du        
   2101 ****       126.2500 136.7500  95.5000 Du        
   2102 ****       126.2500 137.0000  95.0000 Du        
   2103 ****       126.2500 137.0000  95.2500 Du        
   2104 ****       126.2500 137.0000  95.5000 Du        
   2105 ****       126.2500 137.0000  95.7500 Du        
   2106 ****       126.2500 137.2500  94.7500 Du        
   2107 ****       126.2500 137.2500  95.0000 Du        
   2108 ****       126.2500 137.2500  95.2500 Du        
   2109 ****       126.2500 137.2500  95.5000 Du        
   2110 ****       126.2500 137.2500  95.7500 Du        
   2111 ****       126.2500 137.2500  96.0000 Du        
   2112 ****       126.2500 137.5000  94.5000 Du        
   2113 ****       126.2500 137.5000  94.7500 Du        
   2114 ****       126.2500 137.5000  95.0000 Du        
   2115 ****       126.2500 137.5000  95.2500 Du        
   2116 ****       126.2500 137.5000  95.5000 Du        
   2117 ****       126.2500 137.5000  95.7500 Du        
   2118 ****       126.2500 137.5000  96.0000 Du        
   2119 ****       126.2500 137.5000  96.2500 Du        
   2120 ****       126.2500 137.7500  94.2500 Du        
   2121 ****       126.2500 137.7500  94.5000 Du        
   2122 ****       126.2500 137.7500  94.7500 Du        
   2123 ****       126.2500 137.7500  95.0000 Du        
   2124 ****       126.2500 137.7500  95.2500 Du        
   2125 ****       126.2500 137.7500  95.5000 Du        
   2126 ****       126.2500 137.7500  95.7500 Du        
   2127 ****       126.2500 137.7500  96.0000 Du        
   2128 ****       126.2500 137.7500  96.2500 Du        
   2129 ****       126.2500 137.7500  96.5000 Du        
   2130 ****       126.2500 138.0000  93.7500 Du        
   2131 ****       126.2500 138.0000  94.0000 Du        
   2132 ****       126.2500 138.0000  94.2500 Du        
   2133 ****       126.2500 138.0000  94.5000 Du        
   2134 ****       126.2500 138.0000  94.7500 Du        
   2135 ****       126.2500 138.0000  95.0000 Du        
   2136 ****       126.2500 138.0000  95.2500 Du        
   2137 ****       126.2500 138.0000  95.5000 Du        
   2138 ****       126.2500 138.0000  95.7500 Du        
   2139 ****       126.2500 138.0000  96.0000 Du        
   2140 ****       126.2500 138.0000  96.2500 Du        
   2141 ****       126.2500 138.0000  96.5000 Du        
   2142 ****       126.2500 138.0000  96.7500 Du        
   2143 ****       126.2500 138.2500  93.2500 Du        
   2144 ****       126.2500 138.2500  93.5000 Du        
   2145 ****       126.2500 138.2500  93.7500 Du        
   2146 ****       126.2500 138.2500  94.0000 Du        
   2147 ****       126.2500 138.2500  94.2500 Du        
   2148 ****       126.2500 138.2500  94.5000 Du        
   2149 ****       126.2500 138.2500  94.7500 Du        
   2150 ****       126.2500 138.2500  95.0000 Du        
   2151 ****       126.2500 138.2500  95.2500 Du        
   2152 ****       126.2500 138.2500  95.5000 Du        
   2153 ****       126.2500 138.2500  95.7500 Du        
   2154 ****       126.2500 138.2500  96.0000 Du        
   2155 ****       126.2500 138.2500  96.2500 Du        
   2156 ****       126.2500 138.2500  96.5000 Du        
   2157 ****       126.2500 138.2500  96.7500 Du        
   2158 ****       126.2500 138.5000  92.5000 Du        
   2159 ****       126.2500 138.5000  92.7500 Du        
   2160 ****       126.2500 138.5000  93.0000 Du        
   2161 ****       126.2500 138.5000  93.2500 Du        
   2162 ****       126.2500 138.5000  93.5000 Du        
   2163 ****       126.2500 138.5000  93.7500 Du        
   2164 ****       126.2500 138.5000  94.0000 Du        
   2165 ****       126.2500 138.5000  94.2500 Du        
   2166 ****       126.2500 138.5000  94.5000 Du        
   2167 ****       126.2500 138.5000  94.7500 Du        
   2168 ****       126.2500 138.5000  95.0000 Du        
   2169 ****       126.2500 138.5000  95.2500 Du        
   2170 ****       126.2500 138.5000  95.5000 Du        
   2171 ****       126.2500 138.5000  95.7500 Du        
   2172 ****       126.2500 138.5000  96.0000 Du        
   2173 ****       126.2500 138.5000  96.2500 Du        
   2174 ****       126.2500 138.5000  96.5000 Du        
   2175 ****       126.2500 138.5000  96.7500 Du        
   2176 ****       126.2500 138.7500  91.5000 Du        
   2177 ****       126.2500 138.7500  91.7500 Du        
   2178 ****       126.2500 138.7500  92.0000 Du        
   2179 ****       126.2500 138.7500  92.2500 Du        
   2180 ****       126.2500 138.7500  92.5000 Du        
   2181 ****       126.2500 138.7500  92.7500 Du        
   2182 ****       126.2500 138.7500  93.0000 Du        
   2183 ****       126.2500 138.7500  93.2500 Du        
   2184 ****       126.2500 138.7500  93.5000 Du        
   2185 ****       126.2500 138.7500  93.7500 Du        
   2186 ****       126.2500 138.7500  94.0000 Du        
   2187 ****       126.2500 138.7500  94.2500 Du        
   2188 ****       126.2500 138.7500  94.5000 Du        
   2189 ****       126.2500 138.7500  94.7500 Du        
   2190 ****       126.2500 138.7500  95.0000 Du        
   2191 ****       126.2500 138.7500  95.2500 Du        
   2192 ****       126.2500 138.7500  95.5000 Du        
   2193 ****       126.2500 138.7500  95.7500 Du        
   2194 ****       126.2500 138.7500  96.0000 Du        
   2195 ****       126.2500 138.7500  96.2500 Du        
   2196 ****       126.2500 138.7500  96.5000 Du        
   2197 ****       126.2500 138.7500  96.7500 Du        
   2198 ****       126.2500 138.7500  97.0000 Du        
   2199 ****       126.2500 139.0000  91.0000 Du        
   2200 ****       126.2500 139.0000  91.2500 Du        
   2201 ****       126.2500 139.0000  91.5000 Du        
   2202 ****       126.2500 139.0000  91.7500 Du        
   2203 ****       126.2500 139.0000  92.0000 Du        
   2204 ****       126.2500 139.0000  92.2500 Du        
   2205 ****       126.2500 139.0000  92.5000 Du        
   2206 ****       126.2500 139.0000  92.7500 Du        
   2207 ****       126.2500 139.0000  93.0000 Du        
   2208 ****       126.2500 139.0000  93.2500 Du        
   2209 ****       126.2500 139.0000  93.5000 Du        
   2210 ****       126.2500 139.0000  93.7500 Du        
   2211 ****       126.2500 139.0000  94.0000 Du        
   2212 ****       126.2500 139.0000  94.2500 Du        
   2213 ****       126.2500 139.0000  94.5000 Du        
   2214 ****       126.2500 139.0000  94.7500 Du        
   2215 ****       126.2500 139.0000  95.0000 Du        
   2216 ****       126.2500 139.0000  95.2500 Du        
   2217 ****       126.2500 139.0000  95.5000 Du        
   2218 ****       126.2500 139.0000  95.7500 Du        
   2219 ****       126.2500 139.0000  96.0000 Du        
   2220 ****       126.2500 139.0000  96.2500 Du        
   2221 ****       126.2500 139.0000  96.5000 Du        
   2222 ****       126.2500 139.0000  96.7500 Du        
   2223 ****       126.2500 139.0000  97.0000 Du        
   2224 ****       126.2500 139.0000  97.2500 Du        
   2225 ****       126.2500 139.2500  91.0000 Du        
   2226 ****       126.2500 139.2500  91.2500 Du        
   2227 ****       126.2500 139.2500  91.5000 Du        
   2228 ****       126.2500 139.2500  91.7500 Du        
   2229 ****       126.2500 139.2500  92.0000 Du        
   2230 ****       126.2500 139.2500  92.2500 Du        
   2231 ****       126.2500 139.2500  92.5000 Du        
   2232 ****       126.2500 139.2500  92.7500 Du        
   2233 ****       126.2500 139.2500  93.0000 Du        
   2234 ****       126.2500 139.2500  93.2500 Du        
   2235 ****       126.2500 139.2500  93.5000 Du        
   2236 ****       126.2500 139.2500  94.0000 Du        
   2237 ****       126.2500 139.2500  94.7500 Du        
   2238 ****       126.2500 139.2500  95.0000 Du        
   2239 ****       126.2500 139.2500  95.5000 Du        
   2240 ****       126.2500 139.2500  95.7500 Du        
   2241 ****       126.2500 139.2500  96.0000 Du        
   2242 ****       126.2500 139.2500  96.2500 Du        
   2243 ****       126.2500 139.2500  96.5000 Du        
   2244 ****       126.2500 139.2500  96.7500 Du        
   2245 ****       126.2500 139.2500  97.0000 Du        
   2246 ****       126.2500 139.2500  97.2500 Du        
   2247 ****       126.2500 139.5000  91.0000 Du        
   2248 ****       126.2500 139.5000  91.2500 Du        
   2249 ****       126.2500 139.5000  91.5000 Du        
   2250 ****       126.2500 139.5000  91.7500 Du        
   2251 ****       126.2500 139.5000  92.0000 Du        
   2252 ****       126.2500 139.5000  96.0000 Du        
   2253 ****       126.2500 139.5000  96.2500 Du        
   2254 ****       126.2500 139.5000  96.5000 Du        
   2255 ****       126.2500 139.5000  96.7500 Du        
   2256 ****       126.2500 139.5000  97.0000 Du        
   2257 ****       126.2500 139.5000  97.2500 Du        
   2258 ****       126.2500 139.5000  97.5000 Du        
   2259 ****       126.2500 139.7500  90.7500 Du        
   2260 ****       126.2500 139.7500  91.0000 Du        
   2261 ****       126.2500 139.7500  91.2500 Du        
   2262 ****       126.2500 139.7500  91.5000 Du        
   2263 ****       126.2500 139.7500  91.7500 Du        
   2264 ****       126.2500 139.7500  96.0000 Du        
   2265 ****       126.2500 139.7500  96.2500 Du        
   2266 ****       126.2500 139.7500  96.5000 Du        
   2267 ****       126.2500 139.7500  96.7500 Du        
   2268 ****       126.2500 139.7500  97.0000 Du        
   2269 ****       126.2500 139.7500  97.2500 Du        
   2270 ****       126.2500 139.7500  97.5000 Du        
   2271 ****       126.2500 139.7500  97.7500 Du        
   2272 ****       126.2500 140.0000  90.7500 Du        
   2273 ****       126.2500 140.0000  91.0000 Du        
   2274 ****       126.2500 140.0000  91.2500 Du        
   2275 ****       126.2500 140.0000  91.5000 Du        
   2276 ****       126.2500 140.0000  96.2500 Du        
   2277 ****       126.2500 140.0000  96.5000 Du        
   2278 ****       126.2500 140.0000  96.7500 Du        
   2279 ****       126.2500 140.0000  97.0000 Du        
   2280 ****       126.2500 140.0000  97.2500 Du        
   2281 ****       126.2500 140.0000  97.5000 Du        
   2282 ****       126.2500 140.0000  97.7500 Du        
   2283 ****       126.2500 140.0000  98.0000 Du        
   2284 ****       126.2500 140.2500  90.7500 Du        
   2285 ****       126.2500 140.2500  91.0000 Du        
   2286 ****       126.2500 140.2500  91.2500 Du        
   2287 ****       126.2500 140.2500  96.2500 Du        
   2288 ****       126.2500 140.2500  96.5000 Du        
   2289 ****       126.2500 140.2500  96.7500 Du        
   2290 ****       126.2500 140.2500  97.0000 Du        
   2291 ****       126.2500 140.2500  97.2500 Du        
   2292 ****       126.2500 140.2500  97.5000 Du        
   2293 ****       126.2500 140.2500  97.7500 Du        
   2294 ****       126.2500 140.2500  98.0000 Du        
   2295 ****       126.2500 140.2500  98.2500 Du        
   2296 ****       126.2500 140.5000  96.5000 Du        
   2297 ****       126.2500 140.5000  96.7500 Du        
   2298 ****       126.2500 140.5000  97.0000 Du        
   2299 ****       126.2500 140.5000  97.2500 Du        
   2300 ****       126.2500 140.5000  97.5000 Du        
   2301 ****       126.2500 140.5000  97.7500 Du        
   2302 ****       126.2500 140.5000  98.0000 Du        
   2303 ****       126.2500 140.5000  98.2500 Du        
   2304 ****       126.2500 140.5000  98.5000 Du        
   2305 ****       126.2500 140.7500  96.5000 Du        
   2306 ****       126.2500 140.7500  96.7500 Du        
   2307 ****       126.2500 140.7500  97.0000 Du        
   2308 ****       126.2500 140.7500  97.2500 Du        
   2309 ****       126.2500 140.7500  97.5000 Du        
   2310 ****       126.2500 140.7500  97.7500 Du        
   2311 ****       126.2500 140.7500  98.0000 Du        
   2312 ****       126.2500 140.7500  98.2500 Du        
   2313 ****       126.2500 140.7500  98.5000 Du        
   2314 ****       126.2500 141.0000  96.5000 Du        
   2315 ****       126.2500 141.0000  96.7500 Du        
   2316 ****       126.2500 141.0000  97.0000 Du        
   2317 ****       126.2500 141.0000  97.2500 Du        
   2318 ****       126.2500 141.0000  97.5000 Du        
   2319 ****       126.2500 141.0000  97.7500 Du        
   2320 ****       126.2500 141.0000  98.0000 Du        
   2321 ****       126.2500 141.0000  98.2500 Du        
   2322 ****       126.2500 141.0000  98.5000 Du        
   2323 ****       126.2500 141.0000  98.7500 Du        
   2324 ****       126.2500 141.2500  97.0000 Du        
   2325 ****       126.5000 137.0000  95.0000 Du        
   2326 ****       126.5000 137.0000  95.2500 Du        
   2327 ****       126.5000 137.0000  95.5000 Du        
   2328 ****       126.5000 137.2500  94.7500 Du        
   2329 ****       126.5000 137.2500  95.0000 Du        
   2330 ****       126.5000 137.2500  95.2500 Du        
   2331 ****       126.5000 137.2500  95.5000 Du        
   2332 ****       126.5000 137.2500  95.7500 Du        
   2333 ****       126.5000 137.5000  94.5000 Du        
   2334 ****       126.5000 137.5000  94.7500 Du        
   2335 ****       126.5000 137.5000  95.0000 Du        
   2336 ****       126.5000 137.5000  95.2500 Du        
   2337 ****       126.5000 137.5000  95.5000 Du        
   2338 ****       126.5000 137.5000  95.7500 Du        
   2339 ****       126.5000 137.5000  96.0000 Du        
   2340 ****       126.5000 137.7500  94.2500 Du        
   2341 ****       126.5000 137.7500  94.5000 Du        
   2342 ****       126.5000 137.7500  94.7500 Du        
   2343 ****       126.5000 137.7500  95.0000 Du        
   2344 ****       126.5000 137.7500  95.2500 Du        
   2345 ****       126.5000 137.7500  95.5000 Du        
   2346 ****       126.5000 137.7500  95.7500 Du        
   2347 ****       126.5000 137.7500  96.0000 Du        
   2348 ****       126.5000 137.7500  96.2500 Du        
   2349 ****       126.5000 137.7500  96.5000 Du        
   2350 ****       126.5000 138.0000  93.7500 Du        
   2351 ****       126.5000 138.0000  94.0000 Du        
   2352 ****       126.5000 138.0000  94.2500 Du        
   2353 ****       126.5000 138.0000  94.5000 Du        
   2354 ****       126.5000 138.0000  94.7500 Du        
   2355 ****       126.5000 138.0000  95.0000 Du        
   2356 ****       126.5000 138.0000  95.2500 Du        
   2357 ****       126.5000 138.0000  95.5000 Du        
   2358 ****       126.5000 138.0000  95.7500 Du        
   2359 ****       126.5000 138.0000  96.0000 Du        
   2360 ****       126.5000 138.0000  96.2500 Du        
   2361 ****       126.5000 138.0000  96.5000 Du        
   2362 ****       126.5000 138.2500  93.5000 Du        
   2363 ****       126.5000 138.2500  93.7500 Du        
   2364 ****       126.5000 138.2500  94.0000 Du        
   2365 ****       126.5000 138.2500  94.2500 Du        
   2366 ****       126.5000 138.2500  94.5000 Du        
   2367 ****       126.5000 138.2500  94.7500 Du        
   2368 ****       126.5000 138.2500  95.0000 Du        
   2369 ****       126.5000 138.2500  95.2500 Du        
   2370 ****       126.5000 138.2500  95.5000 Du        
   2371 ****       126.5000 138.2500  95.7500 Du        
   2372 ****       126.5000 138.2500  96.0000 Du        
   2373 ****       126.5000 138.2500  96.2500 Du        
   2374 ****       126.5000 138.2500  96.5000 Du        
   2375 ****       126.5000 138.2500  96.7500 Du        
   2376 ****       126.5000 138.5000  93.7500 Du        
   2377 ****       126.5000 138.5000  94.0000 Du        
   2378 ****       126.5000 138.5000  94.2500 Du        
   2379 ****       126.5000 138.5000  94.5000 Du        
   2380 ****       126.5000 138.5000  94.7500 Du        
   2381 ****       126.5000 138.5000  95.0000 Du        
   2382 ****       126.5000 138.5000  95.2500 Du        
   2383 ****       126.5000 138.5000  95.5000 Du        
   2384 ****       126.5000 138.5000  95.7500 Du        
   2385 ****       126.5000 138.5000  96.0000 Du        
   2386 ****       126.5000 138.5000  96.2500 Du        
   2387 ****       126.5000 138.5000  96.5000 Du        
   2388 ****       126.5000 138.5000  96.7500 Du        
   2389 ****       126.5000 138.7500  93.0000 Du        
   2390 ****       126.5000 138.7500  93.2500 Du        
   2391 ****       126.5000 138.7500  93.7500 Du        
   2392 ****       126.5000 138.7500  94.0000 Du        
   2393 ****       126.5000 138.7500  94.2500 Du        
   2394 ****       126.5000 138.7500  94.7500 Du        
   2395 ****       126.5000 138.7500  95.0000 Du        
   2396 ****       126.5000 138.7500  95.2500 Du        
   2397 ****       126.5000 138.7500  95.5000 Du        
   2398 ****       126.5000 138.7500  95.7500 Du        
   2399 ****       126.5000 138.7500  96.0000 Du        
   2400 ****       126.5000 138.7500  96.2500 Du        
   2401 ****       126.5000 138.7500  96.5000 Du        
   2402 ****       126.5000 138.7500  96.7500 Du        
   2403 ****       126.5000 138.7500  97.0000 Du        
   2404 ****       126.5000 139.0000  91.2500 Du        
   2405 ****       126.5000 139.0000  91.5000 Du        
   2406 ****       126.5000 139.0000  91.7500 Du        
   2407 ****       126.5000 139.0000  92.0000 Du        
   2408 ****       126.5000 139.0000  92.2500 Du        
   2409 ****       126.5000 139.0000  92.5000 Du        
   2410 ****       126.5000 139.0000  92.7500 Du        
   2411 ****       126.5000 139.0000  93.0000 Du        
   2412 ****       126.5000 139.0000  93.2500 Du        
   2413 ****       126.5000 139.0000  95.2500 Du        
   2414 ****       126.5000 139.0000  95.5000 Du        
   2415 ****       126.5000 139.0000  95.7500 Du        
   2416 ****       126.5000 139.0000  96.0000 Du        
   2417 ****       126.5000 139.0000  96.2500 Du        
   2418 ****       126.5000 139.0000  96.5000 Du        
   2419 ****       126.5000 139.0000  96.7500 Du        
   2420 ****       126.5000 139.0000  97.0000 Du        
   2421 ****       126.5000 139.0000  97.2500 Du        
   2422 ****       126.5000 139.2500  90.7500 Du        
   2423 ****       126.5000 139.2500  91.0000 Du        
   2424 ****       126.5000 139.2500  91.2500 Du        
   2425 ****       126.5000 139.2500  91.5000 Du        
   2426 ****       126.5000 139.2500  91.7500 Du        
   2427 ****       126.5000 139.2500  92.0000 Du        
   2428 ****       126.5000 139.2500  92.2500 Du        
   2429 ****       126.5000 139.2500  92.5000 Du        
   2430 ****       126.5000 139.2500  92.7500 Du        
   2431 ****       126.5000 139.2500  95.7500 Du        
   2432 ****       126.5000 139.2500  96.0000 Du        
   2433 ****       126.5000 139.2500  96.2500 Du        
   2434 ****       126.5000 139.2500  96.5000 Du        
   2435 ****       126.5000 139.2500  96.7500 Du        
   2436 ****       126.5000 139.2500  97.0000 Du        
   2437 ****       126.5000 139.2500  97.2500 Du        
   2438 ****       126.5000 139.5000  90.7500 Du        
   2439 ****       126.5000 139.5000  91.0000 Du        
   2440 ****       126.5000 139.5000  91.2500 Du        
   2441 ****       126.5000 139.5000  91.5000 Du        
   2442 ****       126.5000 139.5000  91.7500 Du        
   2443 ****       126.5000 139.5000  96.7500 Du        
   2444 ****       126.5000 139.5000  97.0000 Du        
   2445 ****       126.5000 139.5000  97.2500 Du        
   2446 ****       126.5000 139.5000  97.5000 Du        
   2447 ****       126.5000 139.7500  90.5000 Du        
   2448 ****       126.5000 139.7500  90.7500 Du        
   2449 ****       126.5000 139.7500  91.0000 Du        
   2450 ****       126.5000 139.7500  91.2500 Du        
   2451 ****       126.5000 139.7500  91.5000 Du        
   2452 ****       126.5000 139.7500  96.7500 Du        
   2453 ****       126.5000 139.7500  97.0000 Du        
   2454 ****       126.5000 139.7500  97.2500 Du        
   2455 ****       126.5000 139.7500  97.5000 Du        
   2456 ****       126.5000 139.7500  97.7500 Du        
   2457 ****       126.5000 140.0000  90.5000 Du        
   2458 ****       126.5000 140.0000  90.7500 Du        
   2459 ****       126.5000 140.0000  91.0000 Du        
   2460 ****       126.5000 140.0000  91.2500 Du        
   2461 ****       126.5000 140.0000  96.7500 Du        
   2462 ****       126.5000 140.0000  97.0000 Du        
   2463 ****       126.5000 140.0000  97.2500 Du        
   2464 ****       126.5000 140.0000  97.5000 Du        
   2465 ****       126.5000 140.0000  97.7500 Du        
   2466 ****       126.5000 140.0000  98.0000 Du        
   2467 ****       126.5000 140.2500  90.7500 Du        
   2468 ****       126.5000 140.2500  91.0000 Du        
   2469 ****       126.5000 140.2500  96.7500 Du        
   2470 ****       126.5000 140.2500  97.0000 Du        
   2471 ****       126.5000 140.2500  97.2500 Du        
   2472 ****       126.5000 140.2500  97.5000 Du        
   2473 ****       126.5000 140.2500  97.7500 Du        
   2474 ****       126.5000 140.2500  98.0000 Du        
   2475 ****       126.5000 140.5000  97.0000 Du        
   2476 ****       126.5000 140.5000  97.2500 Du        
   2477 ****       126.5000 140.5000  97.5000 Du        
   2478 ****       126.5000 140.5000  97.7500 Du        
   2479 ****       126.5000 140.5000  98.0000 Du        
   2480 ****       126.5000 140.5000  98.2500 Du        
   2481 ****       126.5000 140.7500  97.0000 Du        
   2482 ****       126.5000 140.7500  97.2500 Du        
   2483 ****       126.5000 140.7500  97.5000 Du        
   2484 ****       126.5000 140.7500  97.7500 Du        
   2485 ****       126.5000 140.7500  98.0000 Du        
   2486 ****       126.5000 140.7500  98.2500 Du        
   2487 ****       126.5000 141.0000  97.5000 Du        
   2488 ****       126.5000 141.0000  97.7500 Du        
   2489 ****       126.5000 141.0000  98.0000 Du        
   2490 ****       126.7500 137.0000  95.0000 Du        
   2491 ****       126.7500 137.2500  94.7500 Du        
   2492 ****       126.7500 137.2500  95.0000 Du        
   2493 ****       126.7500 137.2500  95.2500 Du        
   2494 ****       126.7500 137.2500  95.5000 Du        
   2495 ****       126.7500 137.5000  94.2500 Du        
   2496 ****       126.7500 137.5000  94.5000 Du        
   2497 ****       126.7500 137.5000  94.7500 Du        
   2498 ****       126.7500 137.5000  95.0000 Du        
   2499 ****       126.7500 137.5000  95.2500 Du        
   2500 ****       126.7500 137.5000  95.5000 Du        
   2501 ****       126.7500 137.5000  95.7500 Du        
   2502 ****       126.7500 137.7500  94.0000 Du        
   2503 ****       126.7500 137.7500  94.2500 Du        
   2504 ****       126.7500 137.7500  94.5000 Du        
   2505 ****       126.7500 137.7500  94.7500 Du        
   2506 ****       126.7500 137.7500  95.0000 Du        
   2507 ****       126.7500 137.7500  95.2500 Du        
   2508 ****       126.7500 137.7500  95.5000 Du        
   2509 ****       126.7500 137.7500  95.7500 Du        
   2510 ****       126.7500 137.7500  96.0000 Du        
   2511 ****       126.7500 137.7500  96.2500 Du        
   2512 ****       126.7500 138.0000  93.7500 Du        
   2513 ****       126.7500 138.0000  94.0000 Du        
   2514 ****       126.7500 138.0000  94.2500 Du        
   2515 ****       126.7500 138.0000  94.5000 Du        
   2516 ****       126.7500 138.0000  94.7500 Du        
   2517 ****       126.7500 138.0000  95.0000 Du        
   2518 ****       126.7500 138.0000  95.2500 Du        
   2519 ****       126.7500 138.0000  95.5000 Du        
   2520 ****       126.7500 138.0000  95.7500 Du        
   2521 ****       126.7500 138.0000  96.0000 Du        
   2522 ****       126.7500 138.0000  96.2500 Du        
   2523 ****       126.7500 138.0000  96.5000 Du        
   2524 ****       126.7500 138.0000  96.7500 Du        
   2525 ****       126.7500 138.2500  93.5000 Du        
   2526 ****       126.7500 138.2500  93.7500 Du        
   2527 ****       126.7500 138.2500  94.0000 Du        
   2528 ****       126.7500 138.2500  94.2500 Du        
   2529 ****       126.7500 138.2500  94.5000 Du        
   2530 ****       126.7500 138.2500  94.7500 Du        
   2531 ****       126.7500 138.2500  95.0000 Du        
   2532 ****       126.7500 138.2500  95.2500 Du        
   2533 ****       126.7500 138.2500  95.5000 Du        
   2534 ****       126.7500 138.2500  95.7500 Du        
   2535 ****       126.7500 138.2500  96.0000 Du        
   2536 ****       126.7500 138.2500  96.2500 Du        
   2537 ****       126.7500 138.2500  96.5000 Du        
   2538 ****       126.7500 138.2500  96.7500 Du        
   2539 ****       126.7500 138.5000  93.7500 Du        
   2540 ****       126.7500 138.5000  94.0000 Du        
   2541 ****       126.7500 138.5000  94.2500 Du        
   2542 ****       126.7500 138.5000  94.5000 Du        
   2543 ****       126.7500 138.5000  94.7500 Du        
   2544 ****       126.7500 138.5000  95.0000 Du        
   2545 ****       126.7500 138.5000  95.2500 Du        
   2546 ****       126.7500 138.5000  95.5000 Du        
   2547 ****       126.7500 138.5000  95.7500 Du        
   2548 ****       126.7500 138.5000  96.0000 Du        
   2549 ****       126.7500 138.5000  96.2500 Du        
   2550 ****       126.7500 138.5000  96.5000 Du        
   2551 ****       126.7500 138.5000  96.7500 Du        
   2552 ****       126.7500 138.5000  97.0000 Du        
   2553 ****       126.7500 138.7500  93.7500 Du        
   2554 ****       126.7500 138.7500  94.0000 Du        
   2555 ****       126.7500 138.7500  94.2500 Du        
   2556 ****       126.7500 138.7500  94.7500 Du        
   2557 ****       126.7500 138.7500  95.0000 Du        
   2558 ****       126.7500 138.7500  95.2500 Du        
   2559 ****       126.7500 138.7500  95.5000 Du        
   2560 ****       126.7500 138.7500  95.7500 Du        
   2561 ****       126.7500 138.7500  96.0000 Du        
   2562 ****       126.7500 138.7500  96.2500 Du        
   2563 ****       126.7500 138.7500  96.5000 Du        
   2564 ****       126.7500 138.7500  96.7500 Du        
   2565 ****       126.7500 138.7500  97.0000 Du        
   2566 ****       126.7500 138.7500  97.2500 Du        
   2567 ****       126.7500 139.0000  95.2500 Du        
   2568 ****       126.7500 139.0000  95.5000 Du        
   2569 ****       126.7500 139.0000  95.7500 Du        
   2570 ****       126.7500 139.0000  96.0000 Du        
   2571 ****       126.7500 139.0000  96.2500 Du        
   2572 ****       126.7500 139.0000  96.5000 Du        
   2573 ****       126.7500 139.0000  96.7500 Du        
   2574 ****       126.7500 139.0000  97.0000 Du        
   2575 ****       126.7500 139.0000  97.2500 Du        
   2576 ****       126.7500 139.2500  90.7500 Du        
   2577 ****       126.7500 139.2500  91.0000 Du        
   2578 ****       126.7500 139.2500  91.2500 Du        
   2579 ****       126.7500 139.2500  91.5000 Du        
   2580 ****       126.7500 139.2500  91.7500 Du        
   2581 ****       126.7500 139.2500  92.0000 Du        
   2582 ****       126.7500 139.2500  96.2500 Du        
   2583 ****       126.7500 139.2500  96.5000 Du        
   2584 ****       126.7500 139.2500  96.7500 Du        
   2585 ****       126.7500 139.2500  97.0000 Du        
   2586 ****       126.7500 139.2500  97.2500 Du        
   2587 ****       126.7500 139.5000  90.5000 Du        
   2588 ****       126.7500 139.5000  90.7500 Du        
   2589 ****       126.7500 139.5000  91.0000 Du        
   2590 ****       126.7500 139.5000  91.2500 Du        
   2591 ****       126.7500 139.5000  96.7500 Du        
   2592 ****       126.7500 139.5000  97.0000 Du        
   2593 ****       126.7500 139.5000  97.2500 Du        
   2594 ****       126.7500 139.5000  97.5000 Du        
   2595 ****       126.7500 139.5000  97.7500 Du        
   2596 ****       126.7500 139.7500  90.2500 Du        
   2597 ****       126.7500 139.7500  90.5000 Du        
   2598 ****       126.7500 139.7500  90.7500 Du        
   2599 ****       126.7500 139.7500  91.0000 Du        
   2600 ****       126.7500 139.7500  91.2500 Du        
   2601 ****       126.7500 139.7500  96.7500 Du        
   2602 ****       126.7500 139.7500  97.0000 Du        
   2603 ****       126.7500 139.7500  97.2500 Du        
   2604 ****       126.7500 139.7500  97.5000 Du        
   2605 ****       126.7500 139.7500  97.7500 Du        
   2606 ****       126.7500 140.0000  90.2500 Du        
   2607 ****       126.7500 140.0000  90.5000 Du        
   2608 ****       126.7500 140.0000  90.7500 Du        
   2609 ****       126.7500 140.0000  91.0000 Du        
   2610 ****       126.7500 140.0000  91.2500 Du        
   2611 ****       126.7500 140.0000  97.0000 Du        
   2612 ****       126.7500 140.0000  97.2500 Du        
   2613 ****       126.7500 140.0000  97.5000 Du        
   2614 ****       126.7500 140.0000  97.7500 Du        
   2615 ****       126.7500 140.0000  98.0000 Du        
   2616 ****       126.7500 140.2500  90.5000 Du        
   2617 ****       126.7500 140.2500  90.7500 Du        
   2618 ****       126.7500 140.2500  91.0000 Du        
   2619 ****       126.7500 140.2500  97.0000 Du        
   2620 ****       126.7500 140.2500  97.2500 Du        
   2621 ****       126.7500 140.2500  97.5000 Du        
   2622 ****       126.7500 140.2500  97.7500 Du        
   2623 ****       126.7500 140.2500  98.0000 Du        
   2624 ****       126.7500 140.2500  98.2500 Du        
   2625 ****       126.7500 140.5000  97.2500 Du        
   2626 ****       126.7500 140.5000  97.5000 Du        
   2627 ****       126.7500 140.5000  97.7500 Du        
   2628 ****       126.7500 140.5000  98.0000 Du        
   2629 ****       126.7500 140.7500  97.2500 Du        
   2630 ****       126.7500 140.7500  97.5000 Du        
   2631 ****       126.7500 140.7500  97.7500 Du        
   2632 ****       126.7500 140.7500  98.0000 Du        
   2633 ****       126.7500 140.7500  98.2500 Du        
   2634 ****       126.7500 141.0000  97.7500 Du        
   2635 ****       126.7500 143.5000  91.7500 Du        
   2636 ****       126.7500 143.5000  92.0000 Du        
   2637 ****       126.7500 143.7500  91.7500 Du        
   2638 ****       126.7500 143.7500  92.0000 Du        
   2639 ****       126.7500 143.7500  92.2500 Du        
   2640 ****       126.7500 143.7500  92.5000 Du        
   2641 ****       126.7500 143.7500  92.7500 Du        
   2642 ****       126.7500 143.7500  93.0000 Du        
   2643 ****       126.7500 144.0000  92.7500 Du        
   2644 ****       126.7500 144.0000  93.0000 Du        
   2645 ****       126.7500 144.0000  93.2500 Du        
   2646 ****       127.0000 137.2500  94.7500 Du        
   2647 ****       127.0000 137.5000  94.2500 Du        
   2648 ****       127.0000 137.5000  94.5000 Du        
   2649 ****       127.0000 137.5000  94.7500 Du        
   2650 ****       127.0000 137.5000  95.0000 Du        
   2651 ****       127.0000 137.5000  95.2500 Du        
   2652 ****       127.0000 137.7500  94.2500 Du        
   2653 ****       127.0000 137.7500  94.5000 Du        
   2654 ****       127.0000 137.7500  94.7500 Du        
   2655 ****       127.0000 137.7500  95.0000 Du        
   2656 ****       127.0000 137.7500  95.2500 Du        
   2657 ****       127.0000 137.7500  95.5000 Du        
   2658 ****       127.0000 137.7500  95.7500 Du        
   2659 ****       127.0000 138.0000  94.0000 Du        
   2660 ****       127.0000 138.0000  94.2500 Du        
   2661 ****       127.0000 138.0000  94.5000 Du        
   2662 ****       127.0000 138.0000  94.7500 Du        
   2663 ****       127.0000 138.0000  95.0000 Du        
   2664 ****       127.0000 138.0000  95.2500 Du        
   2665 ****       127.0000 138.0000  95.5000 Du        
   2666 ****       127.0000 138.0000  95.7500 Du        
   2667 ****       127.0000 138.0000  96.0000 Du        
   2668 ****       127.0000 138.0000  96.2500 Du        
   2669 ****       127.0000 138.0000  96.5000 Du        
   2670 ****       127.0000 138.0000  96.7500 Du        
   2671 ****       127.0000 138.2500  93.7500 Du        
   2672 ****       127.0000 138.2500  94.0000 Du        
   2673 ****       127.0000 138.2500  94.2500 Du        
   2674 ****       127.0000 138.2500  94.5000 Du        
   2675 ****       127.0000 138.2500  94.7500 Du        
   2676 ****       127.0000 138.2500  95.0000 Du        
   2677 ****       127.0000 138.2500  95.2500 Du        
   2678 ****       127.0000 138.2500  95.5000 Du        
   2679 ****       127.0000 138.2500  95.7500 Du        
   2680 ****       127.0000 138.2500  96.0000 Du        
   2681 ****       127.0000 138.2500  96.2500 Du        
   2682 ****       127.0000 138.2500  96.5000 Du        
   2683 ****       127.0000 138.2500  96.7500 Du        
   2684 ****       127.0000 138.2500  97.0000 Du        
   2685 ****       127.0000 138.5000  94.0000 Du        
   2686 ****       127.0000 138.5000  94.2500 Du        
   2687 ****       127.0000 138.5000  94.5000 Du        
   2688 ****       127.0000 138.5000  94.7500 Du        
   2689 ****       127.0000 138.5000  95.0000 Du        
   2690 ****       127.0000 138.5000  95.2500 Du        
   2691 ****       127.0000 138.5000  95.5000 Du        
   2692 ****       127.0000 138.5000  95.7500 Du        
   2693 ****       127.0000 138.5000  96.0000 Du        
   2694 ****       127.0000 138.5000  96.2500 Du        
   2695 ****       127.0000 138.5000  96.5000 Du        
   2696 ****       127.0000 138.5000  96.7500 Du        
   2697 ****       127.0000 138.5000  97.0000 Du        
   2698 ****       127.0000 138.7500  94.0000 Du        
   2699 ****       127.0000 138.7500  94.2500 Du        
   2700 ****       127.0000 138.7500  94.7500 Du        
   2701 ****       127.0000 138.7500  95.0000 Du        
   2702 ****       127.0000 138.7500  95.2500 Du        
   2703 ****       127.0000 138.7500  95.5000 Du        
   2704 ****       127.0000 138.7500  95.7500 Du        
   2705 ****       127.0000 138.7500  96.0000 Du        
   2706 ****       127.0000 138.7500  96.2500 Du        
   2707 ****       127.0000 138.7500  96.5000 Du        
   2708 ****       127.0000 138.7500  96.7500 Du        
   2709 ****       127.0000 138.7500  97.0000 Du        
   2710 ****       127.0000 138.7500  97.2500 Du        
   2711 ****       127.0000 139.0000  95.7500 Du        
   2712 ****       127.0000 139.0000  96.0000 Du        
   2713 ****       127.0000 139.0000  96.2500 Du        
   2714 ****       127.0000 139.0000  96.5000 Du        
   2715 ****       127.0000 139.0000  96.7500 Du        
   2716 ****       127.0000 139.0000  97.0000 Du        
   2717 ****       127.0000 139.0000  97.2500 Du        
   2718 ****       127.0000 139.2500  96.7500 Du        
   2719 ****       127.0000 139.2500  97.0000 Du        
   2720 ****       127.0000 139.2500  97.2500 Du        
   2721 ****       127.0000 139.2500  97.5000 Du        
   2722 ****       127.0000 139.5000  97.0000 Du        
   2723 ****       127.0000 139.5000  97.2500 Du        
   2724 ****       127.0000 139.5000  97.5000 Du        
   2725 ****       127.0000 139.7500  90.5000 Du        
   2726 ****       127.0000 139.7500  90.7500 Du        
   2727 ****       127.0000 139.7500  97.0000 Du        
   2728 ****       127.0000 139.7500  97.2500 Du        
   2729 ****       127.0000 139.7500  97.5000 Du        
   2730 ****       127.0000 139.7500  97.7500 Du        
   2731 ****       127.0000 140.0000  90.7500 Du        
   2732 ****       127.0000 140.0000  91.0000 Du        
   2733 ****       127.0000 140.0000  97.0000 Du        
   2734 ****       127.0000 140.0000  97.2500 Du        
   2735 ****       127.0000 140.0000  97.5000 Du        
   2736 ****       127.0000 140.0000  97.7500 Du        
   2737 ****       127.0000 140.0000  98.0000 Du        
   2738 ****       127.0000 140.2500  97.2500 Du        
   2739 ****       127.0000 140.2500  97.5000 Du        
   2740 ****       127.0000 140.2500  97.7500 Du        
   2741 ****       127.0000 140.2500  98.0000 Du        
   2742 ****       127.0000 140.2500  98.2500 Du        
   2743 ****       127.0000 140.5000  97.7500 Du        
   2744 ****       127.0000 140.5000  98.0000 Du        
   2745 ****       127.0000 140.7500  98.0000 Du        
   2746 ****       127.0000 143.0000  91.0000 Du        
   2747 ****       127.0000 143.0000  91.2500 Du        
   2748 ****       127.0000 143.2500  90.7500 Du        
   2749 ****       127.0000 143.2500  91.0000 Du        
   2750 ****       127.0000 143.2500  91.2500 Du        
   2751 ****       127.0000 143.2500  91.5000 Du        
   2752 ****       127.0000 143.5000  90.7500 Du        
   2753 ****       127.0000 143.5000  91.0000 Du        
   2754 ****       127.0000 143.5000  91.2500 Du        
   2755 ****       127.0000 143.5000  91.5000 Du        
   2756 ****       127.0000 143.5000  91.7500 Du        
   2757 ****       127.0000 143.5000  92.0000 Du        
   2758 ****       127.0000 143.5000  92.2500 Du        
   2759 ****       127.0000 143.5000  92.5000 Du        
   2760 ****       127.0000 143.5000  92.7500 Du        
   2761 ****       127.0000 143.5000  93.2500 Du        
   2762 ****       127.0000 143.5000  93.7500 Du        
   2763 ****       127.0000 143.5000  94.0000 Du        
   2764 ****       127.0000 143.5000  94.2500 Du        
   2765 ****       127.0000 143.7500  90.2500 Du        
   2766 ****       127.0000 143.7500  90.5000 Du        
   2767 ****       127.0000 143.7500  90.7500 Du        
   2768 ****       127.0000 143.7500  91.0000 Du        
   2769 ****       127.0000 143.7500  91.2500 Du        
   2770 ****       127.0000 143.7500  91.5000 Du        
   2771 ****       127.0000 143.7500  91.7500 Du        
   2772 ****       127.0000 143.7500  92.0000 Du        
   2773 ****       127.0000 143.7500  92.2500 Du        
   2774 ****       127.0000 143.7500  92.5000 Du        
   2775 ****       127.0000 143.7500  92.7500 Du        
   2776 ****       127.0000 143.7500  93.0000 Du        
   2777 ****       127.0000 143.7500  93.2500 Du        
   2778 ****       127.0000 143.7500  93.5000 Du        
   2779 ****       127.0000 143.7500  93.7500 Du        
   2780 ****       127.0000 143.7500  94.0000 Du        
   2781 ****       127.0000 143.7500  94.2500 Du        
   2782 ****       127.0000 144.0000  90.0000 Du        
   2783 ****       127.0000 144.0000  90.2500 Du        
   2784 ****       127.0000 144.0000  90.5000 Du        
   2785 ****       127.0000 144.0000  90.7500 Du        
   2786 ****       127.0000 144.0000  91.0000 Du        
   2787 ****       127.0000 144.0000  91.2500 Du        
   2788 ****       127.0000 144.0000  91.5000 Du        
   2789 ****       127.0000 144.0000  91.7500 Du        
   2790 ****       127.0000 144.0000  92.0000 Du        
   2791 ****       127.0000 144.0000  92.2500 Du        
   2792 ****       127.0000 144.0000  92.5000 Du        
   2793 ****       127.0000 144.0000  92.7500 Du        
   2794 ****       127.0000 144.0000  93.0000 Du        
   2795 ****       127.0000 144.0000  93.2500 Du        
   2796 ****       127.0000 144.0000  93.5000 Du        
   2797 ****       127.0000 144.0000  93.7500 Du        
   2798 ****       127.0000 144.0000  94.0000 Du        
   2799 ****       127.0000 144.2500  90.5000 Du        
   2800 ****       127.0000 144.2500  93.7500 Du        
   2801 ****       127.2500 137.7500  94.5000 Du        
   2802 ****       127.2500 137.7500  94.7500 Du        
   2803 ****       127.2500 137.7500  95.0000 Du        
   2804 ****       127.2500 138.0000  94.2500 Du        
   2805 ****       127.2500 138.0000  94.5000 Du        
   2806 ****       127.2500 138.0000  94.7500 Du        
   2807 ****       127.2500 138.0000  95.0000 Du        
   2808 ****       127.2500 138.0000  95.2500 Du        
   2809 ****       127.2500 138.0000  95.5000 Du        
   2810 ****       127.2500 138.2500  94.0000 Du        
   2811 ****       127.2500 138.2500  94.2500 Du        
   2812 ****       127.2500 138.2500  94.5000 Du        
   2813 ****       127.2500 138.2500  94.7500 Du        
   2814 ****       127.2500 138.2500  95.0000 Du        
   2815 ****       127.2500 138.2500  95.2500 Du        
   2816 ****       127.2500 138.2500  95.5000 Du        
   2817 ****       127.2500 138.2500  95.7500 Du        
   2818 ****       127.2500 138.2500  96.0000 Du        
   2819 ****       127.2500 138.2500  96.2500 Du        
   2820 ****       127.2500 138.2500  96.5000 Du        
   2821 ****       127.2500 138.2500  96.7500 Du        
   2822 ****       127.2500 138.2500  97.0000 Du        
   2823 ****       127.2500 138.5000  94.7500 Du        
   2824 ****       127.2500 138.5000  95.0000 Du        
   2825 ****       127.2500 138.5000  95.2500 Du        
   2826 ****       127.2500 138.5000  95.5000 Du        
   2827 ****       127.2500 138.5000  95.7500 Du        
   2828 ****       127.2500 138.5000  96.0000 Du        
   2829 ****       127.2500 138.5000  96.2500 Du        
   2830 ****       127.2500 138.5000  96.5000 Du        
   2831 ****       127.2500 138.5000  96.7500 Du        
   2832 ****       127.2500 138.5000  97.0000 Du        
   2833 ****       127.2500 138.7500  95.0000 Du        
   2834 ****       127.2500 138.7500  96.0000 Du        
   2835 ****       127.2500 138.7500  96.2500 Du        
   2836 ****       127.2500 138.7500  96.5000 Du        
   2837 ****       127.2500 138.7500  96.7500 Du        
   2838 ****       127.2500 138.7500  97.0000 Du        
   2839 ****       127.2500 138.7500  97.2500 Du        
   2840 ****       127.2500 139.0000  96.0000 Du        
   2841 ****       127.2500 139.0000  96.2500 Du        
   2842 ****       127.2500 139.0000  96.5000 Du        
   2843 ****       127.2500 139.0000  96.7500 Du        
   2844 ****       127.2500 139.0000  97.0000 Du        
   2845 ****       127.2500 139.0000  97.2500 Du        
   2846 ****       127.2500 139.0000  97.5000 Du        
   2847 ****       127.2500 139.2500  96.7500 Du        
   2848 ****       127.2500 139.2500  97.0000 Du        
   2849 ****       127.2500 139.2500  97.2500 Du        
   2850 ****       127.2500 139.2500  97.5000 Du        
   2851 ****       127.2500 139.5000  97.2500 Du        
   2852 ****       127.2500 139.5000  97.5000 Du        
   2853 ****       127.2500 139.7500  97.5000 Du        
   2854 ****       127.2500 139.7500  97.7500 Du        
   2855 ****       127.2500 140.0000  97.5000 Du        
   2856 ****       127.2500 140.0000  97.7500 Du        
   2857 ****       127.2500 140.2500  97.5000 Du        
   2858 ****       127.2500 140.2500  97.7500 Du        
   2859 ****       127.2500 140.2500  98.0000 Du        
   2860 ****       127.2500 143.0000  91.2500 Du        
   2861 ****       127.2500 143.2500  91.0000 Du        
   2862 ****       127.2500 143.2500  91.2500 Du        
   2863 ****       127.2500 143.2500  91.5000 Du        
   2864 ****       127.2500 143.2500  91.7500 Du        
   2865 ****       127.2500 143.2500  92.0000 Du        
   2866 ****       127.2500 143.5000  90.0000 Du        
   2867 ****       127.2500 143.5000  90.2500 Du        
   2868 ****       127.2500 143.5000  90.5000 Du        
   2869 ****       127.2500 143.5000  90.7500 Du        
   2870 ****       127.2500 143.5000  91.0000 Du        
   2871 ****       127.2500 143.5000  91.2500 Du        
   2872 ****       127.2500 143.5000  91.5000 Du        
   2873 ****       127.2500 143.5000  91.7500 Du        
   2874 ****       127.2500 143.5000  92.0000 Du        
   2875 ****       127.2500 143.5000  92.2500 Du        
   2876 ****       127.2500 143.5000  92.5000 Du        
   2877 ****       127.2500 143.5000  92.7500 Du        
   2878 ****       127.2500 143.5000  93.0000 Du        
   2879 ****       127.2500 143.5000  93.2500 Du        
   2880 ****       127.2500 143.5000  93.5000 Du        
   2881 ****       127.2500 143.5000  93.7500 Du        
   2882 ****       127.2500 143.5000  94.0000 Du        
   2883 ****       127.2500 143.5000  94.2500 Du        
   2884 ****       127.2500 143.5000  94.5000 Du        
   2885 ****       127.2500 143.5000  94.7500 Du        
   2886 ****       127.2500 143.7500  89.5000 Du        
   2887 ****       127.2500 143.7500  89.7500 Du        
   2888 ****       127.2500 143.7500  90.0000 Du        
   2889 ****       127.2500 143.7500  90.2500 Du        
   2890 ****       127.2500 143.7500  90.5000 Du        
   2891 ****       127.2500 143.7500  90.7500 Du        
   2892 ****       127.2500 143.7500  91.0000 Du        
   2893 ****       127.2500 143.7500  91.2500 Du        
   2894 ****       127.2500 143.7500  91.5000 Du        
   2895 ****       127.2500 143.7500  91.7500 Du        
   2896 ****       127.2500 143.7500  92.0000 Du        
   2897 ****       127.2500 143.7500  92.2500 Du        
   2898 ****       127.2500 143.7500  92.5000 Du        
   2899 ****       127.2500 143.7500  92.7500 Du        
   2900 ****       127.2500 143.7500  93.0000 Du        
   2901 ****       127.2500 143.7500  93.2500 Du        
   2902 ****       127.2500 143.7500  93.5000 Du        
   2903 ****       127.2500 143.7500  93.7500 Du        
   2904 ****       127.2500 143.7500  94.0000 Du        
   2905 ****       127.2500 143.7500  94.2500 Du        
   2906 ****       127.2500 143.7500  94.5000 Du        
   2907 ****       127.2500 144.0000  89.7500 Du        
   2908 ****       127.2500 144.0000  90.0000 Du        
   2909 ****       127.2500 144.0000  90.2500 Du        
   2910 ****       127.2500 144.0000  90.5000 Du        
   2911 ****       127.2500 144.0000  90.7500 Du        
   2912 ****       127.2500 144.0000  91.0000 Du        
   2913 ****       127.2500 144.0000  91.2500 Du        
   2914 ****       127.2500 144.0000  91.5000 Du        
   2915 ****       127.2500 144.0000  91.7500 Du        
   2916 ****       127.2500 144.0000  92.0000 Du        
   2917 ****       127.2500 144.0000  92.2500 Du        
   2918 ****       127.2500 144.0000  92.5000 Du        
   2919 ****       127.2500 144.0000  92.7500 Du        
   2920 ****       127.2500 144.0000  93.0000 Du        
   2921 ****       127.2500 144.0000  93.2500 Du        
   2922 ****       127.2500 144.0000  93.5000 Du        
   2923 ****       127.2500 144.0000  93.7500 Du        
   2924 ****       127.2500 144.0000  94.0000 Du        
   2925 ****       127.2500 144.0000  94.2500 Du        
   2926 ****       127.2500 144.0000 101.7500 Du        
   2927 ****       127.2500 144.0000 102.0000 Du        
   2928 ****       127.2500 144.2500  90.0000 Du        
   2929 ****       127.2500 144.2500  90.2500 Du        
   2930 ****       127.2500 144.2500  90.5000 Du        
   2931 ****       127.2500 144.2500  90.7500 Du        
   2932 ****       127.2500 144.2500  91.0000 Du        
   2933 ****       127.2500 144.2500  92.7500 Du        
   2934 ****       127.2500 144.2500  93.0000 Du        
   2935 ****       127.2500 144.2500  93.2500 Du        
   2936 ****       127.2500 144.2500  93.5000 Du        
   2937 ****       127.2500 144.2500  93.7500 Du        
   2938 ****       127.2500 144.2500  94.0000 Du        
   2939 ****       127.2500 144.2500 101.7500 Du        
   2940 ****       127.2500 144.2500 102.0000 Du        
   2941 ****       127.5000 138.7500  96.7500 Du        
   2942 ****       127.5000 138.7500  97.0000 Du        
   2943 ****       127.5000 139.0000  96.7500 Du        
   2944 ****       127.5000 139.0000  97.0000 Du        
   2945 ****       127.5000 139.0000  97.2500 Du        
   2946 ****       127.5000 143.2500  90.7500 Du        
   2947 ****       127.5000 143.2500  91.0000 Du        
   2948 ****       127.5000 143.2500  91.2500 Du        
   2949 ****       127.5000 143.2500  91.7500 Du        
   2950 ****       127.5000 143.5000  90.5000 Du        
   2951 ****       127.5000 143.5000  90.7500 Du        
   2952 ****       127.5000 143.5000  91.0000 Du        
   2953 ****       127.5000 143.5000  91.2500 Du        
   2954 ****       127.5000 143.5000  91.5000 Du        
   2955 ****       127.5000 143.5000  91.7500 Du        
   2956 ****       127.5000 143.5000  92.0000 Du        
   2957 ****       127.5000 143.5000  92.2500 Du        
   2958 ****       127.5000 143.5000  92.5000 Du        
   2959 ****       127.5000 143.5000  92.7500 Du        
   2960 ****       127.5000 143.5000  93.0000 Du        
   2961 ****       127.5000 143.5000  93.2500 Du        
   2962 ****       127.5000 143.5000  93.5000 Du        
   2963 ****       127.5000 143.5000  93.7500 Du        
   2964 ****       127.5000 143.5000  94.0000 Du        
   2965 ****       127.5000 143.5000  94.2500 Du        
   2966 ****       127.5000 143.5000  94.5000 Du        
   2967 ****       127.5000 143.5000 101.7500 Du        
   2968 ****       127.5000 143.7500  90.0000 Du        
   2969 ****       127.5000 143.7500  90.2500 Du        
   2970 ****       127.5000 143.7500  90.5000 Du        
   2971 ****       127.5000 143.7500  90.7500 Du        
   2972 ****       127.5000 143.7500  91.0000 Du        
   2973 ****       127.5000 143.7500  91.2500 Du        
   2974 ****       127.5000 143.7500  91.5000 Du        
   2975 ****       127.5000 143.7500  91.7500 Du        
   2976 ****       127.5000 143.7500  92.0000 Du        
   2977 ****       127.5000 143.7500  92.2500 Du        
   2978 ****       127.5000 143.7500  92.5000 Du        
   2979 ****       127.5000 143.7500  92.7500 Du        
   2980 ****       127.5000 143.7500  93.0000 Du        
   2981 ****       127.5000 143.7500  93.2500 Du        
   2982 ****       127.5000 143.7500  93.5000 Du        
   2983 ****       127.5000 143.7500  93.7500 Du        
   2984 ****       127.5000 143.7500  94.0000 Du        
   2985 ****       127.5000 143.7500  94.2500 Du        
   2986 ****       127.5000 143.7500  94.5000 Du        
   2987 ****       127.5000 143.7500 101.5000 Du        
   2988 ****       127.5000 143.7500 101.7500 Du        
   2989 ****       127.5000 143.7500 102.0000 Du        
   2990 ****       127.5000 144.0000  90.0000 Du        
   2991 ****       127.5000 144.0000  90.2500 Du        
   2992 ****       127.5000 144.0000  90.5000 Du        
   2993 ****       127.5000 144.0000  90.7500 Du        
   2994 ****       127.5000 144.0000  91.0000 Du        
   2995 ****       127.5000 144.0000  91.2500 Du        
   2996 ****       127.5000 144.0000  91.5000 Du        
   2997 ****       127.5000 144.0000  91.7500 Du        
   2998 ****       127.5000 144.0000  92.0000 Du        
   2999 ****       127.5000 144.0000  92.2500 Du        
   3000 ****       127.5000 144.0000  92.5000 Du        
   3001 ****       127.5000 144.0000  92.7500 Du        
   3002 ****       127.5000 144.0000  93.0000 Du        
   3003 ****       127.5000 144.0000  93.2500 Du        
   3004 ****       127.5000 144.0000  93.5000 Du        
   3005 ****       127.5000 144.0000  93.7500 Du        
   3006 ****       127.5000 144.0000  94.0000 Du        
   3007 ****       127.5000 144.0000  94.2500 Du        
   3008 ****       127.5000 144.0000 101.5000 Du        
   3009 ****       127.5000 144.0000 101.7500 Du        
   3010 ****       127.5000 144.0000 102.0000 Du        
   3011 ****       127.5000 144.2500  90.5000 Du        
   3012 ****       127.5000 144.2500  90.7500 Du        
   3013 ****       127.5000 144.2500  91.0000 Du        
   3014 ****       127.5000 144.2500  92.5000 Du        
   3015 ****       127.5000 144.2500  92.7500 Du        
   3016 ****       127.5000 144.2500  93.0000 Du        
   3017 ****       127.5000 144.2500  93.2500 Du        
   3018 ****       127.5000 144.2500  93.5000 Du        
   3019 ****       127.5000 144.2500  93.7500 Du        
   3020 ****       127.5000 144.2500  94.0000 Du        
   3021 ****       127.5000 144.2500  94.2500 Du        
   3022 ****       127.5000 144.2500 101.5000 Du        
   3023 ****       127.5000 144.2500 101.7500 Du        
   3024 ****       127.5000 144.2500 102.0000 Du        
   3025 ****       127.5000 144.2500 102.2500 Du        
   3026 ****       127.5000 144.5000  93.7500 Du        
   3027 ****       127.5000 144.5000 101.5000 Du        
   3028 ****       127.5000 144.5000 101.7500 Du        
   3029 ****       127.5000 144.5000 102.0000 Du        
   3030 ****       127.7500 138.7500  97.0000 Du        
   3031 ****       127.7500 139.0000  96.7500 Du        
   3032 ****       127.7500 139.0000  97.0000 Du        
   3033 ****       127.7500 139.0000  97.2500 Du        
   3034 ****       127.7500 143.0000 101.2500 Du        
   3035 ****       127.7500 143.0000 101.5000 Du        
   3036 ****       127.7500 143.0000 101.7500 Du        
   3037 ****       127.7500 143.2500  93.7500 Du        
   3038 ****       127.7500 143.2500  94.0000 Du        
   3039 ****       127.7500 143.2500  94.2500 Du        
   3040 ****       127.7500 143.2500 101.2500 Du        
   3041 ****       127.7500 143.2500 101.5000 Du        
   3042 ****       127.7500 143.2500 101.7500 Du        
   3043 ****       127.7500 143.5000  90.7500 Du        
   3044 ****       127.7500 143.5000  91.0000 Du        
   3045 ****       127.7500 143.5000  91.2500 Du        
   3046 ****       127.7500 143.5000  91.5000 Du        
   3047 ****       127.7500 143.5000  91.7500 Du        
   3048 ****       127.7500 143.5000  92.0000 Du        
   3049 ****       127.7500 143.5000  92.2500 Du        
   3050 ****       127.7500 143.5000  92.5000 Du        
   3051 ****       127.7500 143.5000  92.7500 Du        
   3052 ****       127.7500 143.5000  93.0000 Du        
   3053 ****       127.7500 143.5000  93.2500 Du        
   3054 ****       127.7500 143.5000  93.5000 Du        
   3055 ****       127.7500 143.5000  93.7500 Du        
   3056 ****       127.7500 143.5000  94.0000 Du        
   3057 ****       127.7500 143.5000  94.2500 Du        
   3058 ****       127.7500 143.5000  94.5000 Du        
   3059 ****       127.7500 143.5000  94.7500 Du        
   3060 ****       127.7500 143.5000  95.0000 Du        
   3061 ****       127.7500 143.5000 101.2500 Du        
   3062 ****       127.7500 143.5000 101.5000 Du        
   3063 ****       127.7500 143.5000 101.7500 Du        
   3064 ****       127.7500 143.5000 102.0000 Du        
   3065 ****       127.7500 143.7500  90.5000 Du        
   3066 ****       127.7500 143.7500  90.7500 Du        
   3067 ****       127.7500 143.7500  91.0000 Du        
   3068 ****       127.7500 143.7500  91.2500 Du        
   3069 ****       127.7500 143.7500  91.5000 Du        
   3070 ****       127.7500 143.7500  91.7500 Du        
   3071 ****       127.7500 143.7500  92.0000 Du        
   3072 ****       127.7500 143.7500  92.2500 Du        
   3073 ****       127.7500 143.7500  92.5000 Du        
   3074 ****       127.7500 143.7500  92.7500 Du        
   3075 ****       127.7500 143.7500  93.0000 Du        
   3076 ****       127.7500 143.7500  93.2500 Du        
   3077 ****       127.7500 143.7500  93.5000 Du        
   3078 ****       127.7500 143.7500  93.7500 Du        
   3079 ****       127.7500 143.7500  94.0000 Du        
   3080 ****       127.7500 143.7500  94.2500 Du        
   3081 ****       127.7500 143.7500  94.5000 Du        
   3082 ****       127.7500 143.7500  94.7500 Du        
   3083 ****       127.7500 143.7500 101.2500 Du        
   3084 ****       127.7500 143.7500 101.5000 Du        
   3085 ****       127.7500 143.7500 101.7500 Du        
   3086 ****       127.7500 143.7500 102.0000 Du        
   3087 ****       127.7500 144.0000  90.2500 Du        
   3088 ****       127.7500 144.0000  90.5000 Du        
   3089 ****       127.7500 144.0000  90.7500 Du        
   3090 ****       127.7500 144.0000  91.0000 Du        
   3091 ****       127.7500 144.0000  91.2500 Du        
   3092 ****       127.7500 144.0000  91.5000 Du        
   3093 ****       127.7500 144.0000  91.7500 Du        
   3094 ****       127.7500 144.0000  92.0000 Du        
   3095 ****       127.7500 144.0000  92.2500 Du        
   3096 ****       127.7500 144.0000  92.5000 Du        
   3097 ****       127.7500 144.0000  92.7500 Du        
   3098 ****       127.7500 144.0000  93.0000 Du        
   3099 ****       127.7500 144.0000  93.2500 Du        
   3100 ****       127.7500 144.0000  93.5000 Du        
   3101 ****       127.7500 144.0000  93.7500 Du        
   3102 ****       127.7500 144.0000  94.0000 Du        
   3103 ****       127.7500 144.0000  94.2500 Du        
   3104 ****       127.7500 144.0000  94.5000 Du        
   3105 ****       127.7500 144.0000 101.2500 Du        
   3106 ****       127.7500 144.0000 101.5000 Du        
   3107 ****       127.7500 144.0000 101.7500 Du        
   3108 ****       127.7500 144.0000 102.0000 Du        
   3109 ****       127.7500 144.0000 102.2500 Du        
   3110 ****       127.7500 144.2500  90.5000 Du        
   3111 ****       127.7500 144.2500  90.7500 Du        
   3112 ****       127.7500 144.2500  91.0000 Du        
   3113 ****       127.7500 144.2500  91.2500 Du        
   3114 ****       127.7500 144.2500  91.5000 Du        
   3115 ****       127.7500 144.2500  92.0000 Du        
   3116 ****       127.7500 144.2500  92.2500 Du        
   3117 ****       127.7500 144.2500  92.5000 Du        
   3118 ****       127.7500 144.2500  92.7500 Du        
   3119 ****       127.7500 144.2500  93.0000 Du        
   3120 ****       127.7500 144.2500  93.2500 Du        
   3121 ****       127.7500 144.2500  93.5000 Du        
   3122 ****       127.7500 144.2500  93.7500 Du        
   3123 ****       127.7500 144.2500  94.0000 Du        
   3124 ****       127.7500 144.2500  94.2500 Du        
   3125 ****       127.7500 144.2500 101.0000 Du        
   3126 ****       127.7500 144.2500 101.2500 Du        
   3127 ****       127.7500 144.2500 101.5000 Du        
   3128 ****       127.7500 144.2500 101.7500 Du        
   3129 ****       127.7500 144.2500 102.0000 Du        
   3130 ****       127.7500 144.5000  90.7500 Du        
   3131 ****       127.7500 144.5000  93.0000 Du        
   3132 ****       127.7500 144.5000  93.2500 Du        
   3133 ****       127.7500 144.5000  93.5000 Du        
   3134 ****       127.7500 144.5000  93.7500 Du        
   3135 ****       127.7500 144.5000  94.0000 Du        
   3136 ****       127.7500 144.5000  94.2500 Du        
   3137 ****       127.7500 144.5000 101.0000 Du        
   3138 ****       127.7500 144.5000 101.2500 Du        
   3139 ****       127.7500 144.5000 101.5000 Du        
   3140 ****       127.7500 144.5000 101.7500 Du        
   3141 ****       127.7500 144.5000 102.0000 Du        
   3142 ****       127.7500 144.7500 101.0000 Du        
   3143 ****       127.7500 144.7500 101.2500 Du        
   3144 ****       127.7500 144.7500 101.5000 Du        
   3145 ****       127.7500 144.7500 101.7500 Du        
   3146 ****       127.7500 144.7500 102.0000 Du        
   3147 ****       127.7500 145.0000 101.0000 Du        
   3148 ****       127.7500 145.0000 101.2500 Du        
   3149 ****       127.7500 145.0000 101.5000 Du        
   3150 ****       127.7500 145.0000 101.7500 Du        
   3151 ****       128.0000 139.0000  97.0000 Du        
   3152 ****       128.0000 139.2500  97.5000 Du        
   3153 ****       128.0000 139.2500  97.7500 Du        
   3154 ****       128.0000 142.7500 100.7500 Du        
   3155 ****       128.0000 142.7500 101.0000 Du        
   3156 ****       128.0000 142.7500 101.2500 Du        
   3157 ****       128.0000 142.7500 101.5000 Du        
   3158 ****       128.0000 143.0000 100.7500 Du        
   3159 ****       128.0000 143.0000 101.0000 Du        
   3160 ****       128.0000 143.0000 101.2500 Du        
   3161 ****       128.0000 143.0000 101.5000 Du        
   3162 ****       128.0000 143.0000 101.7500 Du        
   3163 ****       128.0000 143.2500  94.0000 Du        
   3164 ****       128.0000 143.2500 100.7500 Du        
   3165 ****       128.0000 143.2500 101.0000 Du        
   3166 ****       128.0000 143.2500 101.2500 Du        
   3167 ****       128.0000 143.2500 101.5000 Du        
   3168 ****       128.0000 143.2500 101.7500 Du        
   3169 ****       128.0000 143.2500 102.0000 Du        
   3170 ****       128.0000 143.5000  92.2500 Du        
   3171 ****       128.0000 143.5000  92.5000 Du        
   3172 ****       128.0000 143.5000  92.7500 Du        
   3173 ****       128.0000 143.5000  93.0000 Du        
   3174 ****       128.0000 143.5000  93.2500 Du        
   3175 ****       128.0000 143.5000  93.5000 Du        
   3176 ****       128.0000 143.5000  93.7500 Du        
   3177 ****       128.0000 143.5000  94.0000 Du        
   3178 ****       128.0000 143.5000  94.2500 Du        
   3179 ****       128.0000 143.5000  94.5000 Du        
   3180 ****       128.0000 143.5000  94.7500 Du        
   3181 ****       128.0000 143.5000  95.0000 Du        
   3182 ****       128.0000 143.5000 101.0000 Du        
   3183 ****       128.0000 143.5000 101.2500 Du        
   3184 ****       128.0000 143.5000 101.5000 Du        
   3185 ****       128.0000 143.5000 101.7500 Du        
   3186 ****       128.0000 143.5000 102.0000 Du        
   3187 ****       128.0000 143.7500  90.7500 Du        
   3188 ****       128.0000 143.7500  91.0000 Du        
   3189 ****       128.0000 143.7500  91.2500 Du        
   3190 ****       128.0000 143.7500  91.5000 Du        
   3191 ****       128.0000 143.7500  91.7500 Du        
   3192 ****       128.0000 143.7500  92.0000 Du        
   3193 ****       128.0000 143.7500  92.2500 Du        
   3194 ****       128.0000 143.7500  92.5000 Du        
   3195 ****       128.0000 143.7500  92.7500 Du        
   3196 ****       128.0000 143.7500  93.0000 Du        
   3197 ****       128.0000 143.7500  93.2500 Du        
   3198 ****       128.0000 143.7500  93.5000 Du        
   3199 ****       128.0000 143.7500  93.7500 Du        
   3200 ****       128.0000 143.7500  94.0000 Du        
   3201 ****       128.0000 143.7500  94.2500 Du        
   3202 ****       128.0000 143.7500  94.5000 Du        
   3203 ****       128.0000 143.7500  94.7500 Du        
   3204 ****       128.0000 143.7500  95.0000 Du        
   3205 ****       128.0000 143.7500  95.2500 Du        
   3206 ****       128.0000 143.7500 101.0000 Du        
   3207 ****       128.0000 143.7500 101.2500 Du        
   3208 ****       128.0000 143.7500 101.5000 Du        
   3209 ****       128.0000 143.7500 101.7500 Du        
   3210 ****       128.0000 143.7500 102.0000 Du        
   3211 ****       128.0000 143.7500 102.2500 Du        
   3212 ****       128.0000 144.0000  90.5000 Du        
   3213 ****       128.0000 144.0000  90.7500 Du        
   3214 ****       128.0000 144.0000  91.0000 Du        
   3215 ****       128.0000 144.0000  91.2500 Du        
   3216 ****       128.0000 144.0000  91.5000 Du        
   3217 ****       128.0000 144.0000  91.7500 Du        
   3218 ****       128.0000 144.0000  92.0000 Du        
   3219 ****       128.0000 144.0000  92.2500 Du        
   3220 ****       128.0000 144.0000  92.5000 Du        
   3221 ****       128.0000 144.0000  92.7500 Du        
   3222 ****       128.0000 144.0000  93.0000 Du        
   3223 ****       128.0000 144.0000  93.2500 Du        
   3224 ****       128.0000 144.0000  93.5000 Du        
   3225 ****       128.0000 144.0000  93.7500 Du        
   3226 ****       128.0000 144.0000  94.0000 Du        
   3227 ****       128.0000 144.0000  94.2500 Du        
   3228 ****       128.0000 144.0000  94.5000 Du        
   3229 ****       128.0000 144.0000  94.7500 Du        
   3230 ****       128.0000 144.0000  95.0000 Du        
   3231 ****       128.0000 144.0000 100.7500 Du        
   3232 ****       128.0000 144.0000 101.0000 Du        
   3233 ****       128.0000 144.0000 101.2500 Du        
   3234 ****       128.0000 144.0000 101.5000 Du        
   3235 ****       128.0000 144.0000 101.7500 Du        
   3236 ****       128.0000 144.0000 102.0000 Du        
   3237 ****       128.0000 144.0000 102.2500 Du        
   3238 ****       128.0000 144.2500  90.5000 Du        
   3239 ****       128.0000 144.2500  90.7500 Du        
   3240 ****       128.0000 144.2500  91.0000 Du        
   3241 ****       128.0000 144.2500  91.2500 Du        
   3242 ****       128.0000 144.2500  91.5000 Du        
   3243 ****       128.0000 144.2500  91.7500 Du        
   3244 ****       128.0000 144.2500  92.0000 Du        
   3245 ****       128.0000 144.2500  92.2500 Du        
   3246 ****       128.0000 144.2500  92.5000 Du        
   3247 ****       128.0000 144.2500  92.7500 Du        
   3248 ****       128.0000 144.2500  93.0000 Du        
   3249 ****       128.0000 144.2500  93.2500 Du        
   3250 ****       128.0000 144.2500  93.5000 Du        
   3251 ****       128.0000 144.2500  93.7500 Du        
   3252 ****       128.0000 144.2500  94.0000 Du        
   3253 ****       128.0000 144.2500  94.2500 Du        
   3254 ****       128.0000 144.2500  94.5000 Du        
   3255 ****       128.0000 144.2500  94.7500 Du        
   3256 ****       128.0000 144.2500 100.7500 Du        
   3257 ****       128.0000 144.2500 101.0000 Du        
   3258 ****       128.0000 144.2500 101.2500 Du        
   3259 ****       128.0000 144.2500 101.5000 Du        
   3260 ****       128.0000 144.2500 101.7500 Du        
   3261 ****       128.0000 144.2500 102.0000 Du        
   3262 ****       128.0000 144.5000  90.7500 Du        
   3263 ****       128.0000 144.5000  91.0000 Du        
   3264 ****       128.0000 144.5000  91.2500 Du        
   3265 ****       128.0000 144.5000  92.2500 Du        
   3266 ****       128.0000 144.5000  92.5000 Du        
   3267 ****       128.0000 144.5000  92.7500 Du        
   3268 ****       128.0000 144.5000  93.0000 Du        
   3269 ****       128.0000 144.5000  93.2500 Du        
   3270 ****       128.0000 144.5000  93.5000 Du        
   3271 ****       128.0000 144.5000  93.7500 Du        
   3272 ****       128.0000 144.5000  94.0000 Du        
   3273 ****       128.0000 144.5000  94.2500 Du        
   3274 ****       128.0000 144.5000  94.5000 Du        
   3275 ****       128.0000 144.5000 100.7500 Du        
   3276 ****       128.0000 144.5000 101.0000 Du        
   3277 ****       128.0000 144.5000 101.2500 Du        
   3278 ****       128.0000 144.5000 101.5000 Du        
   3279 ****       128.0000 144.5000 101.7500 Du        
   3280 ****       128.0000 144.5000 102.0000 Du        
   3281 ****       128.0000 144.7500 100.5000 Du        
   3282 ****       128.0000 144.7500 100.7500 Du        
   3283 ****       128.0000 144.7500 101.0000 Du        
   3284 ****       128.0000 144.7500 101.2500 Du        
   3285 ****       128.0000 144.7500 101.5000 Du        
   3286 ****       128.0000 144.7500 101.7500 Du        
   3287 ****       128.0000 144.7500 102.0000 Du        
   3288 ****       128.0000 145.0000 100.5000 Du        
   3289 ****       128.0000 145.0000 100.7500 Du        
   3290 ****       128.0000 145.0000 101.0000 Du        
   3291 ****       128.0000 145.0000 101.2500 Du        
   3292 ****       128.0000 145.0000 101.5000 Du        
   3293 ****       128.0000 145.0000 101.7500 Du        
   3294 ****       128.0000 145.0000 102.0000 Du        
   3295 ****       128.0000 145.2500 100.5000 Du        
   3296 ****       128.0000 145.2500 100.7500 Du        
   3297 ****       128.0000 145.2500 101.0000 Du        
   3298 ****       128.0000 145.2500 101.2500 Du        
   3299 ****       128.0000 145.2500 101.5000 Du        
   3300 ****       128.0000 145.2500 101.7500 Du        
   3301 ****       128.0000 145.5000 100.7500 Du        
   3302 ****       128.0000 145.5000 101.0000 Du        
   3303 ****       128.0000 145.5000 101.2500 Du        
   3304 ****       128.2500 139.2500  97.7500 Du        
   3305 ****       128.2500 139.2500  98.0000 Du        
   3306 ****       128.2500 142.7500 100.7500 Du        
   3307 ****       128.2500 142.7500 101.0000 Du        
   3308 ****       128.2500 142.7500 101.2500 Du        
   3309 ****       128.2500 142.7500 101.5000 Du        
   3310 ****       128.2500 142.7500 101.7500 Du        
   3311 ****       128.2500 143.0000 100.7500 Du        
   3312 ****       128.2500 143.0000 101.0000 Du        
   3313 ****       128.2500 143.0000 101.2500 Du        
   3314 ****       128.2500 143.0000 101.5000 Du        
   3315 ****       128.2500 143.0000 101.7500 Du        
   3316 ****       128.2500 143.0000 102.0000 Du        
   3317 ****       128.2500 143.2500 100.7500 Du        
   3318 ****       128.2500 143.2500 101.0000 Du        
   3319 ****       128.2500 143.2500 101.2500 Du        
   3320 ****       128.2500 143.2500 101.5000 Du        
   3321 ****       128.2500 143.2500 101.7500 Du        
   3322 ****       128.2500 143.2500 102.0000 Du        
   3323 ****       128.2500 143.5000  92.5000 Du        
   3324 ****       128.2500 143.5000  92.7500 Du        
   3325 ****       128.2500 143.5000  93.0000 Du        
   3326 ****       128.2500 143.5000  93.2500 Du        
   3327 ****       128.2500 143.5000  93.5000 Du        
   3328 ****       128.2500 143.5000  93.7500 Du        
   3329 ****       128.2500 143.5000  94.0000 Du        
   3330 ****       128.2500 143.5000  94.2500 Du        
   3331 ****       128.2500 143.5000  94.5000 Du        
   3332 ****       128.2500 143.5000  94.7500 Du        
   3333 ****       128.2500 143.5000  95.0000 Du        
   3334 ****       128.2500 143.5000  95.2500 Du        
   3335 ****       128.2500 143.5000 100.7500 Du        
   3336 ****       128.2500 143.5000 101.0000 Du        
   3337 ****       128.2500 143.5000 101.2500 Du        
   3338 ****       128.2500 143.5000 101.5000 Du        
   3339 ****       128.2500 143.5000 101.7500 Du        
   3340 ****       128.2500 143.5000 102.0000 Du        
   3341 ****       128.2500 143.5000 102.2500 Du        
   3342 ****       128.2500 143.7500  91.5000 Du        
   3343 ****       128.2500 143.7500  91.7500 Du        
   3344 ****       128.2500 143.7500  92.0000 Du        
   3345 ****       128.2500 143.7500  92.2500 Du        
   3346 ****       128.2500 143.7500  92.5000 Du        
   3347 ****       128.2500 143.7500  92.7500 Du        
   3348 ****       128.2500 143.7500  93.0000 Du        
   3349 ****       128.2500 143.7500  93.2500 Du        
   3350 ****       128.2500 143.7500  93.5000 Du        
   3351 ****       128.2500 143.7500  93.7500 Du        
   3352 ****       128.2500 143.7500  94.0000 Du        
   3353 ****       128.2500 143.7500  94.2500 Du        
   3354 ****       128.2500 143.7500  94.5000 Du        
   3355 ****       128.2500 143.7500  94.7500 Du        
   3356 ****       128.2500 143.7500  95.0000 Du        
   3357 ****       128.2500 143.7500  95.2500 Du        
   3358 ****       128.2500 143.7500  95.5000 Du        
   3359 ****       128.2500 143.7500 100.7500 Du        
   3360 ****       128.2500 143.7500 101.0000 Du        
   3361 ****       128.2500 143.7500 101.2500 Du        
   3362 ****       128.2500 143.7500 101.5000 Du        
   3363 ****       128.2500 143.7500 101.7500 Du        
   3364 ****       128.2500 143.7500 102.0000 Du        
   3365 ****       128.2500 143.7500 102.2500 Du        
   3366 ****       128.2500 144.0000  91.0000 Du        
   3367 ****       128.2500 144.0000  91.2500 Du        
   3368 ****       128.2500 144.0000  91.5000 Du        
   3369 ****       128.2500 144.0000  91.7500 Du        
   3370 ****       128.2500 144.0000  92.0000 Du        
   3371 ****       128.2500 144.0000  92.2500 Du        
   3372 ****       128.2500 144.0000  92.5000 Du        
   3373 ****       128.2500 144.0000  92.7500 Du        
   3374 ****       128.2500 144.0000  93.0000 Du        
   3375 ****       128.2500 144.0000  93.2500 Du        
   3376 ****       128.2500 144.0000  93.5000 Du        
   3377 ****       128.2500 144.0000  93.7500 Du        
   3378 ****       128.2500 144.0000  94.0000 Du        
   3379 ****       128.2500 144.0000  94.2500 Du        
   3380 ****       128.2500 144.0000  94.5000 Du        
   3381 ****       128.2500 144.0000  94.7500 Du        
   3382 ****       128.2500 144.0000  95.0000 Du        
   3383 ****       128.2500 144.0000  95.2500 Du        
   3384 ****       128.2500 144.0000 100.7500 Du        
   3385 ****       128.2500 144.0000 101.0000 Du        
   3386 ****       128.2500 144.0000 101.2500 Du        
   3387 ****       128.2500 144.0000 101.5000 Du        
   3388 ****       128.2500 144.0000 101.7500 Du        
   3389 ****       128.2500 144.0000 102.0000 Du        
   3390 ****       128.2500 144.2500  90.7500 Du        
   3391 ****       128.2500 144.2500  91.0000 Du        
   3392 ****       128.2500 144.2500  91.2500 Du        
   3393 ****       128.2500 144.2500  91.5000 Du        
   3394 ****       128.2500 144.2500  91.7500 Du        
   3395 ****       128.2500 144.2500  92.0000 Du        
   3396 ****       128.2500 144.2500  92.2500 Du        
   3397 ****       128.2500 144.2500  92.5000 Du        
   3398 ****       128.2500 144.2500  92.7500 Du        
   3399 ****       128.2500 144.2500  93.0000 Du        
   3400 ****       128.2500 144.2500  93.2500 Du        
   3401 ****       128.2500 144.2500  93.5000 Du        
   3402 ****       128.2500 144.2500  93.7500 Du        
   3403 ****       128.2500 144.2500  94.0000 Du        
   3404 ****       128.2500 144.2500  94.2500 Du        
   3405 ****       128.2500 144.2500  94.5000 Du        
   3406 ****       128.2500 144.2500  94.7500 Du        
   3407 ****       128.2500 144.2500  95.0000 Du        
   3408 ****       128.2500 144.2500 100.5000 Du        
   3409 ****       128.2500 144.2500 100.7500 Du        
   3410 ****       128.2500 144.2500 101.0000 Du        
   3411 ****       128.2500 144.2500 101.2500 Du        
   3412 ****       128.2500 144.2500 101.5000 Du        
   3413 ****       128.2500 144.2500 101.7500 Du        
   3414 ****       128.2500 144.2500 102.0000 Du        
   3415 ****       128.2500 144.5000  90.7500 Du        
   3416 ****       128.2500 144.5000  91.0000 Du        
   3417 ****       128.2500 144.5000  91.2500 Du        
   3418 ****       128.2500 144.5000  91.5000 Du        
   3419 ****       128.2500 144.5000  91.7500 Du        
   3420 ****       128.2500 144.5000  92.0000 Du        
   3421 ****       128.2500 144.5000  92.2500 Du        
   3422 ****       128.2500 144.5000  92.5000 Du        
   3423 ****       128.2500 144.5000  92.7500 Du        
   3424 ****       128.2500 144.5000  93.0000 Du        
   3425 ****       128.2500 144.5000  93.2500 Du        
   3426 ****       128.2500 144.5000  93.5000 Du        
   3427 ****       128.2500 144.5000  93.7500 Du        
   3428 ****       128.2500 144.5000  94.0000 Du        
   3429 ****       128.2500 144.5000  94.2500 Du        
   3430 ****       128.2500 144.5000  94.5000 Du        
   3431 ****       128.2500 144.5000  94.7500 Du        
   3432 ****       128.2500 144.5000 100.5000 Du        
   3433 ****       128.2500 144.5000 100.7500 Du        
   3434 ****       128.2500 144.5000 101.0000 Du        
   3435 ****       128.2500 144.5000 101.2500 Du        
   3436 ****       128.2500 144.5000 101.5000 Du        
   3437 ****       128.2500 144.5000 101.7500 Du        
   3438 ****       128.2500 144.5000 102.0000 Du        
   3439 ****       128.2500 144.7500  91.2500 Du        
   3440 ****       128.2500 144.7500  93.7500 Du        
   3441 ****       128.2500 144.7500 100.5000 Du        
   3442 ****       128.2500 144.7500 100.7500 Du        
   3443 ****       128.2500 144.7500 101.0000 Du        
   3444 ****       128.2500 144.7500 101.2500 Du        
   3445 ****       128.2500 144.7500 101.5000 Du        
   3446 ****       128.2500 144.7500 101.7500 Du        
   3447 ****       128.2500 144.7500 102.0000 Du        
   3448 ****       128.2500 145.0000 100.2500 Du        
   3449 ****       128.2500 145.0000 100.5000 Du        
   3450 ****       128.2500 145.0000 100.7500 Du        
   3451 ****       128.2500 145.0000 101.0000 Du        
   3452 ****       128.2500 145.0000 101.2500 Du        
   3453 ****       128.2500 145.0000 101.5000 Du        
   3454 ****       128.2500 145.0000 101.7500 Du        
   3455 ****       128.2500 145.0000 102.0000 Du        
   3456 ****       128.2500 145.2500 100.2500 Du        
   3457 ****       128.2500 145.2500 100.5000 Du        
   3458 ****       128.2500 145.2500 100.7500 Du        
   3459 ****       128.2500 145.2500 101.0000 Du        
   3460 ****       128.2500 145.2500 101.2500 Du        
   3461 ****       128.2500 145.2500 101.5000 Du        
   3462 ****       128.2500 145.2500 101.7500 Du        
   3463 ****       128.2500 145.5000 100.5000 Du        
   3464 ****       128.2500 145.5000 100.7500 Du        
   3465 ****       128.2500 145.5000 101.0000 Du        
   3466 ****       128.2500 145.5000 101.2500 Du        
   3467 ****       128.2500 145.5000 101.5000 Du        
   3468 ****       128.2500 145.5000 101.7500 Du        
   3469 ****       128.2500 145.7500 101.0000 Du        
   3470 ****       128.2500 145.7500 101.2500 Du        
   3471 ****       128.2500 145.7500 101.5000 Du        
   3472 ****       128.2500 145.7500 101.7500 Du        
   3473 ****       128.5000 142.7500 101.0000 Du        
   3474 ****       128.5000 142.7500 101.2500 Du        
   3475 ****       128.5000 142.7500 101.5000 Du        
   3476 ****       128.5000 142.7500 101.7500 Du        
   3477 ****       128.5000 143.0000 100.7500 Du        
   3478 ****       128.5000 143.0000 101.0000 Du        
   3479 ****       128.5000 143.0000 101.2500 Du        
   3480 ****       128.5000 143.0000 101.5000 Du        
   3481 ****       128.5000 143.0000 101.7500 Du        
   3482 ****       128.5000 143.0000 102.0000 Du        
   3483 ****       128.5000 143.2500 100.7500 Du        
   3484 ****       128.5000 143.2500 101.0000 Du        
   3485 ****       128.5000 143.2500 101.2500 Du        
   3486 ****       128.5000 143.2500 101.5000 Du        
   3487 ****       128.5000 143.2500 101.7500 Du        
   3488 ****       128.5000 143.2500 102.0000 Du        
   3489 ****       128.5000 143.5000  94.2500 Du        
   3490 ****       128.5000 143.5000  94.5000 Du        
   3491 ****       128.5000 143.5000  94.7500 Du        
   3492 ****       128.5000 143.5000  95.0000 Du        
   3493 ****       128.5000 143.5000  95.2500 Du        
   3494 ****       128.5000 143.5000  95.5000 Du        
   3495 ****       128.5000 143.5000 100.5000 Du        
   3496 ****       128.5000 143.5000 100.7500 Du        
   3497 ****       128.5000 143.5000 101.0000 Du        
   3498 ****       128.5000 143.5000 101.2500 Du        
   3499 ****       128.5000 143.5000 101.5000 Du        
   3500 ****       128.5000 143.5000 101.7500 Du        
   3501 ****       128.5000 143.5000 102.0000 Du        
   3502 ****       128.5000 143.7500  92.7500 Du        
   3503 ****       128.5000 143.7500  93.0000 Du        
   3504 ****       128.5000 143.7500  93.2500 Du        
   3505 ****       128.5000 143.7500  93.5000 Du        
   3506 ****       128.5000 143.7500  93.7500 Du        
   3507 ****       128.5000 143.7500  94.0000 Du        
   3508 ****       128.5000 143.7500  94.2500 Du        
   3509 ****       128.5000 143.7500  94.5000 Du        
   3510 ****       128.5000 143.7500  94.7500 Du        
   3511 ****       128.5000 143.7500  95.0000 Du        
   3512 ****       128.5000 143.7500  95.2500 Du        
   3513 ****       128.5000 143.7500  95.5000 Du        
   3514 ****       128.5000 143.7500  95.7500 Du        
   3515 ****       128.5000 143.7500 100.5000 Du        
   3516 ****       128.5000 143.7500 100.7500 Du        
   3517 ****       128.5000 143.7500 101.0000 Du        
   3518 ****       128.5000 143.7500 101.2500 Du        
   3519 ****       128.5000 143.7500 101.5000 Du        
   3520 ****       128.5000 143.7500 101.7500 Du        
   3521 ****       128.5000 143.7500 102.0000 Du        
   3522 ****       128.5000 144.0000  91.7500 Du        
   3523 ****       128.5000 144.0000  92.0000 Du        
   3524 ****       128.5000 144.0000  92.2500 Du        
   3525 ****       128.5000 144.0000  92.5000 Du        
   3526 ****       128.5000 144.0000  92.7500 Du        
   3527 ****       128.5000 144.0000  93.0000 Du        
   3528 ****       128.5000 144.0000  93.2500 Du        
   3529 ****       128.5000 144.0000  93.5000 Du        
   3530 ****       128.5000 144.0000  93.7500 Du        
   3531 ****       128.5000 144.0000  94.0000 Du        
   3532 ****       128.5000 144.0000  94.2500 Du        
   3533 ****       128.5000 144.0000  94.5000 Du        
   3534 ****       128.5000 144.0000  94.7500 Du        
   3535 ****       128.5000 144.0000  95.0000 Du        
   3536 ****       128.5000 144.0000  95.2500 Du        
   3537 ****       128.5000 144.0000  95.5000 Du        
   3538 ****       128.5000 144.0000 100.5000 Du        
   3539 ****       128.5000 144.0000 100.7500 Du        
   3540 ****       128.5000 144.0000 101.0000 Du        
   3541 ****       128.5000 144.0000 101.2500 Du        
   3542 ****       128.5000 144.0000 101.5000 Du        
   3543 ****       128.5000 144.0000 101.7500 Du        
   3544 ****       128.5000 144.0000 102.0000 Du        
   3545 ****       128.5000 144.2500  91.5000 Du        
   3546 ****       128.5000 144.2500  91.7500 Du        
   3547 ****       128.5000 144.2500  92.0000 Du        
   3548 ****       128.5000 144.2500  92.2500 Du        
   3549 ****       128.5000 144.2500  92.5000 Du        
   3550 ****       128.5000 144.2500  92.7500 Du        
   3551 ****       128.5000 144.2500  93.0000 Du        
   3552 ****       128.5000 144.2500  93.2500 Du        
   3553 ****       128.5000 144.2500  93.5000 Du        
   3554 ****       128.5000 144.2500  93.7500 Du        
   3555 ****       128.5000 144.2500  94.0000 Du        
   3556 ****       128.5000 144.2500  94.2500 Du        
   3557 ****       128.5000 144.2500  94.5000 Du        
   3558 ****       128.5000 144.2500  94.7500 Du        
   3559 ****       128.5000 144.2500  95.0000 Du        
   3560 ****       128.5000 144.2500  95.2500 Du        
   3561 ****       128.5000 144.2500 100.2500 Du        
   3562 ****       128.5000 144.2500 100.5000 Du        
   3563 ****       128.5000 144.2500 100.7500 Du        
   3564 ****       128.5000 144.2500 101.0000 Du        
   3565 ****       128.5000 144.2500 101.2500 Du        
   3566 ****       128.5000 144.2500 101.5000 Du        
   3567 ****       128.5000 144.2500 101.7500 Du        
   3568 ****       128.5000 144.2500 102.0000 Du        
   3569 ****       128.5000 144.5000  91.2500 Du        
   3570 ****       128.5000 144.5000  91.5000 Du        
   3571 ****       128.5000 144.5000  91.7500 Du        
   3572 ****       128.5000 144.5000  92.0000 Du        
   3573 ****       128.5000 144.5000  92.2500 Du        
   3574 ****       128.5000 144.5000  92.5000 Du        
   3575 ****       128.5000 144.5000  92.7500 Du        
   3576 ****       128.5000 144.5000  93.0000 Du        
   3577 ****       128.5000 144.5000  93.2500 Du        
   3578 ****       128.5000 144.5000  93.5000 Du        
   3579 ****       128.5000 144.5000  93.7500 Du        
   3580 ****       128.5000 144.5000  94.0000 Du        
   3581 ****       128.5000 144.5000  94.2500 Du        
   3582 ****       128.5000 144.5000  94.5000 Du        
   3583 ****       128.5000 144.5000  94.7500 Du        
   3584 ****       128.5000 144.5000  95.0000 Du        
   3585 ****       128.5000 144.5000 100.2500 Du        
   3586 ****       128.5000 144.5000 100.5000 Du        
   3587 ****       128.5000 144.5000 100.7500 Du        
   3588 ****       128.5000 144.5000 101.0000 Du        
   3589 ****       128.5000 144.5000 101.2500 Du        
   3590 ****       128.5000 144.5000 101.5000 Du        
   3591 ****       128.5000 144.5000 101.7500 Du        
   3592 ****       128.5000 144.5000 102.0000 Du        
   3593 ****       128.5000 144.7500  91.7500 Du        
   3594 ****       128.5000 144.7500  92.0000 Du        
   3595 ****       128.5000 144.7500  92.2500 Du        
   3596 ****       128.5000 144.7500  92.5000 Du        
   3597 ****       128.5000 144.7500  92.7500 Du        
   3598 ****       128.5000 144.7500  93.0000 Du        
   3599 ****       128.5000 144.7500  93.2500 Du        
   3600 ****       128.5000 144.7500 100.2500 Du        
   3601 ****       128.5000 144.7500 100.5000 Du        
   3602 ****       128.5000 144.7500 100.7500 Du        
   3603 ****       128.5000 144.7500 101.0000 Du        
   3604 ****       128.5000 144.7500 101.2500 Du        
   3605 ****       128.5000 144.7500 101.5000 Du        
   3606 ****       128.5000 144.7500 101.7500 Du        
   3607 ****       128.5000 145.0000 100.2500 Du        
   3608 ****       128.5000 145.0000 100.5000 Du        
   3609 ****       128.5000 145.0000 100.7500 Du        
   3610 ****       128.5000 145.0000 101.0000 Du        
   3611 ****       128.5000 145.0000 101.2500 Du        
   3612 ****       128.5000 145.0000 101.5000 Du        
   3613 ****       128.5000 145.0000 101.7500 Du        
   3614 ****       128.5000 145.2500 100.2500 Du        
   3615 ****       128.5000 145.2500 100.5000 Du        
   3616 ****       128.5000 145.2500 100.7500 Du        
   3617 ****       128.5000 145.2500 101.0000 Du        
   3618 ****       128.5000 145.2500 101.2500 Du        
   3619 ****       128.5000 145.2500 101.5000 Du        
   3620 ****       128.5000 145.2500 101.7500 Du        
   3621 ****       128.5000 145.5000 100.5000 Du        
   3622 ****       128.5000 145.5000 100.7500 Du        
   3623 ****       128.5000 145.5000 101.0000 Du        
   3624 ****       128.5000 145.5000 101.2500 Du        
   3625 ****       128.5000 145.5000 101.5000 Du        
   3626 ****       128.5000 145.5000 101.7500 Du        
   3627 ****       128.5000 145.7500 100.7500 Du        
   3628 ****       128.5000 145.7500 101.0000 Du        
   3629 ****       128.5000 145.7500 101.2500 Du        
   3630 ****       128.5000 145.7500 101.5000 Du        
   3631 ****       128.5000 145.7500 101.7500 Du        
   3632 ****       128.5000 146.0000 101.5000 Du        
   3633 ****       128.5000 146.0000 101.7500 Du        
   3634 ****       128.7500 139.0000  97.7500 Du        
   3635 ****       128.7500 139.2500  97.7500 Du        
   3636 ****       128.7500 142.7500 100.7500 Du        
   3637 ****       128.7500 142.7500 101.0000 Du        
   3638 ****       128.7500 142.7500 101.2500 Du        
   3639 ****       128.7500 142.7500 101.5000 Du        
   3640 ****       128.7500 142.7500 101.7500 Du        
   3641 ****       128.7500 142.7500 102.0000 Du        
   3642 ****       128.7500 143.0000 100.7500 Du        
   3643 ****       128.7500 143.0000 101.0000 Du        
   3644 ****       128.7500 143.0000 101.2500 Du        
   3645 ****       128.7500 143.0000 101.5000 Du        
   3646 ****       128.7500 143.0000 101.7500 Du        
   3647 ****       128.7500 143.0000 102.0000 Du        
   3648 ****       128.7500 143.0000 102.2500 Du        
   3649 ****       128.7500 143.2500 100.7500 Du        
   3650 ****       128.7500 143.2500 101.0000 Du        
   3651 ****       128.7500 143.2500 101.2500 Du        
   3652 ****       128.7500 143.2500 101.5000 Du        
   3653 ****       128.7500 143.2500 101.7500 Du        
   3654 ****       128.7500 143.2500 102.0000 Du        
   3655 ****       128.7500 143.2500 102.2500 Du        
   3656 ****       128.7500 143.5000  94.2500 Du        
   3657 ****       128.7500 143.5000  94.5000 Du        
   3658 ****       128.7500 143.5000  94.7500 Du        
   3659 ****       128.7500 143.5000  95.0000 Du        
   3660 ****       128.7500 143.5000  95.2500 Du        
   3661 ****       128.7500 143.5000  95.5000 Du        
   3662 ****       128.7500 143.5000  95.7500 Du        
   3663 ****       128.7500 143.5000 100.5000 Du        
   3664 ****       128.7500 143.5000 100.7500 Du        
   3665 ****       128.7500 143.5000 101.0000 Du        
   3666 ****       128.7500 143.5000 101.2500 Du        
   3667 ****       128.7500 143.5000 101.5000 Du        
   3668 ****       128.7500 143.5000 101.7500 Du        
   3669 ****       128.7500 143.5000 102.0000 Du        
   3670 ****       128.7500 143.5000 102.2500 Du        
   3671 ****       128.7500 143.7500  92.7500 Du        
   3672 ****       128.7500 143.7500  93.0000 Du        
   3673 ****       128.7500 143.7500  93.2500 Du        
   3674 ****       128.7500 143.7500  93.5000 Du        
   3675 ****       128.7500 143.7500  93.7500 Du        
   3676 ****       128.7500 143.7500  94.0000 Du        
   3677 ****       128.7500 143.7500  94.2500 Du        
   3678 ****       128.7500 143.7500  94.5000 Du        
   3679 ****       128.7500 143.7500  94.7500 Du        
   3680 ****       128.7500 143.7500  95.0000 Du        
   3681 ****       128.7500 143.7500  95.2500 Du        
   3682 ****       128.7500 143.7500  95.5000 Du        
   3683 ****       128.7500 143.7500  95.7500 Du        
   3684 ****       128.7500 143.7500 100.2500 Du        
   3685 ****       128.7500 143.7500 100.5000 Du        
   3686 ****       128.7500 143.7500 100.7500 Du        
   3687 ****       128.7500 143.7500 101.0000 Du        
   3688 ****       128.7500 143.7500 101.2500 Du        
   3689 ****       128.7500 143.7500 101.5000 Du        
   3690 ****       128.7500 143.7500 101.7500 Du        
   3691 ****       128.7500 143.7500 102.0000 Du        
   3692 ****       128.7500 143.7500 102.2500 Du        
   3693 ****       128.7500 144.0000  92.0000 Du        
   3694 ****       128.7500 144.0000  92.2500 Du        
   3695 ****       128.7500 144.0000  92.5000 Du        
   3696 ****       128.7500 144.0000  92.7500 Du        
   3697 ****       128.7500 144.0000  93.0000 Du        
   3698 ****       128.7500 144.0000  93.2500 Du        
   3699 ****       128.7500 144.0000  93.5000 Du        
   3700 ****       128.7500 144.0000  93.7500 Du        
   3701 ****       128.7500 144.0000  94.0000 Du        
   3702 ****       128.7500 144.0000  94.2500 Du        
   3703 ****       128.7500 144.0000  94.5000 Du        
   3704 ****       128.7500 144.0000  94.7500 Du        
   3705 ****       128.7500 144.0000  95.0000 Du        
   3706 ****       128.7500 144.0000  95.2500 Du        
   3707 ****       128.7500 144.0000  95.5000 Du        
   3708 ****       128.7500 144.0000 100.2500 Du        
   3709 ****       128.7500 144.0000 100.5000 Du        
   3710 ****       128.7500 144.0000 100.7500 Du        
   3711 ****       128.7500 144.0000 101.0000 Du        
   3712 ****       128.7500 144.0000 101.2500 Du        
   3713 ****       128.7500 144.0000 101.5000 Du        
   3714 ****       128.7500 144.0000 101.7500 Du        
   3715 ****       128.7500 144.0000 102.0000 Du        
   3716 ****       128.7500 144.2500  91.5000 Du        
   3717 ****       128.7500 144.2500  91.7500 Du        
   3718 ****       128.7500 144.2500  92.0000 Du        
   3719 ****       128.7500 144.2500  92.2500 Du        
   3720 ****       128.7500 144.2500  92.5000 Du        
   3721 ****       128.7500 144.2500  92.7500 Du        
   3722 ****       128.7500 144.2500  93.0000 Du        
   3723 ****       128.7500 144.2500  93.2500 Du        
   3724 ****       128.7500 144.2500  93.5000 Du        
   3725 ****       128.7500 144.2500  93.7500 Du        
   3726 ****       128.7500 144.2500  94.0000 Du        
   3727 ****       128.7500 144.2500  94.2500 Du        
   3728 ****       128.7500 144.2500  94.5000 Du        
   3729 ****       128.7500 144.2500  94.7500 Du        
   3730 ****       128.7500 144.2500  95.0000 Du        
   3731 ****       128.7500 144.2500  95.2500 Du        
   3732 ****       128.7500 144.2500 100.0000 Du        
   3733 ****       128.7500 144.2500 100.2500 Du        
   3734 ****       128.7500 144.2500 100.5000 Du        
   3735 ****       128.7500 144.2500 100.7500 Du        
   3736 ****       128.7500 144.2500 101.0000 Du        
   3737 ****       128.7500 144.2500 101.2500 Du        
   3738 ****       128.7500 144.2500 101.5000 Du        
   3739 ****       128.7500 144.2500 101.7500 Du        
   3740 ****       128.7500 144.2500 102.0000 Du        
   3741 ****       128.7500 144.5000  91.2500 Du        
   3742 ****       128.7500 144.5000  91.5000 Du        
   3743 ****       128.7500 144.5000  91.7500 Du        
   3744 ****       128.7500 144.5000  92.0000 Du        
   3745 ****       128.7500 144.5000  92.2500 Du        
   3746 ****       128.7500 144.5000  92.5000 Du        
   3747 ****       128.7500 144.5000  92.7500 Du        
   3748 ****       128.7500 144.5000  93.0000 Du        
   3749 ****       128.7500 144.5000  93.2500 Du        
   3750 ****       128.7500 144.5000  93.5000 Du        
   3751 ****       128.7500 144.5000  93.7500 Du        
   3752 ****       128.7500 144.5000  94.7500 Du        
   3753 ****       128.7500 144.5000 100.0000 Du        
   3754 ****       128.7500 144.5000 100.2500 Du        
   3755 ****       128.7500 144.5000 100.5000 Du        
   3756 ****       128.7500 144.5000 100.7500 Du        
   3757 ****       128.7500 144.5000 101.0000 Du        
   3758 ****       128.7500 144.5000 101.2500 Du        
   3759 ****       128.7500 144.5000 101.5000 Du        
   3760 ****       128.7500 144.5000 101.7500 Du        
   3761 ****       128.7500 144.7500  91.2500 Du        
   3762 ****       128.7500 144.7500  91.5000 Du        
   3763 ****       128.7500 144.7500  91.7500 Du        
   3764 ****       128.7500 144.7500  92.0000 Du        
   3765 ****       128.7500 144.7500  92.2500 Du        
   3766 ****       128.7500 144.7500  92.5000 Du        
   3767 ****       128.7500 144.7500  92.7500 Du        
   3768 ****       128.7500 144.7500  93.0000 Du        
   3769 ****       128.7500 144.7500  93.2500 Du        
   3770 ****       128.7500 144.7500 100.0000 Du        
   3771 ****       128.7500 144.7500 100.2500 Du        
   3772 ****       128.7500 144.7500 100.5000 Du        
   3773 ****       128.7500 144.7500 100.7500 Du        
   3774 ****       128.7500 144.7500 101.0000 Du        
   3775 ****       128.7500 144.7500 101.2500 Du        
   3776 ****       128.7500 144.7500 101.5000 Du        
   3777 ****       128.7500 144.7500 101.7500 Du        
   3778 ****       128.7500 145.0000  91.2500 Du        
   3779 ****       128.7500 145.0000  91.5000 Du        
   3780 ****       128.7500 145.0000  91.7500 Du        
   3781 ****       128.7500 145.0000  92.0000 Du        
   3782 ****       128.7500 145.0000  92.2500 Du        
   3783 ****       128.7500 145.0000 100.0000 Du        
   3784 ****       128.7500 145.0000 100.2500 Du        
   3785 ****       128.7500 145.0000 100.5000 Du        
   3786 ****       128.7500 145.0000 100.7500 Du        
   3787 ****       128.7500 145.0000 101.0000 Du        
   3788 ****       128.7500 145.0000 101.2500 Du        
   3789 ****       128.7500 145.0000 101.5000 Du        
   3790 ****       128.7500 145.0000 101.7500 Du        
   3791 ****       128.7500 145.2500 100.0000 Du        
   3792 ****       128.7500 145.2500 100.2500 Du        
   3793 ****       128.7500 145.2500 100.5000 Du        
   3794 ****       128.7500 145.2500 100.7500 Du        
   3795 ****       128.7500 145.2500 101.0000 Du        
   3796 ****       128.7500 145.2500 101.2500 Du        
   3797 ****       128.7500 145.2500 101.5000 Du        
   3798 ****       128.7500 145.2500 101.7500 Du        
   3799 ****       128.7500 145.5000 100.2500 Du        
   3800 ****       128.7500 145.5000 100.5000 Du        
   3801 ****       128.7500 145.5000 100.7500 Du        
   3802 ****       128.7500 145.5000 101.0000 Du        
   3803 ****       128.7500 145.5000 101.2500 Du        
   3804 ****       128.7500 145.5000 101.5000 Du        
   3805 ****       128.7500 145.5000 101.7500 Du        
   3806 ****       128.7500 145.7500 100.7500 Du        
   3807 ****       128.7500 145.7500 101.0000 Du        
   3808 ****       128.7500 145.7500 101.2500 Du        
   3809 ****       128.7500 145.7500 101.5000 Du        
   3810 ****       128.7500 145.7500 101.7500 Du        
   3811 ****       128.7500 146.0000 101.2500 Du        
   3812 ****       128.7500 146.0000 101.5000 Du        
   3813 ****       128.7500 146.0000 101.7500 Du        
   3814 ****       129.0000 139.0000  98.0000 Du        
   3815 ****       129.0000 140.0000 103.7500 Du        
   3816 ****       129.0000 140.2500 103.5000 Du        
   3817 ****       129.0000 140.2500 103.7500 Du        
   3818 ****       129.0000 142.2500 102.0000 Du        
   3819 ****       129.0000 142.2500 102.2500 Du        
   3820 ****       129.0000 142.2500 102.5000 Du        
   3821 ****       129.0000 142.5000 101.7500 Du        
   3822 ****       129.0000 142.5000 102.0000 Du        
   3823 ****       129.0000 142.5000 102.2500 Du        
   3824 ****       129.0000 142.7500 101.0000 Du        
   3825 ****       129.0000 142.7500 101.2500 Du        
   3826 ****       129.0000 142.7500 101.5000 Du        
   3827 ****       129.0000 142.7500 101.7500 Du        
   3828 ****       129.0000 142.7500 102.0000 Du        
   3829 ****       129.0000 142.7500 102.2500 Du        
   3830 ****       129.0000 142.7500 102.5000 Du        
   3831 ****       129.0000 143.0000 101.0000 Du        
   3832 ****       129.0000 143.0000 101.2500 Du        
   3833 ****       129.0000 143.0000 101.5000 Du        
   3834 ****       129.0000 143.0000 101.7500 Du        
   3835 ****       129.0000 143.0000 102.0000 Du        
   3836 ****       129.0000 143.0000 102.2500 Du        
   3837 ****       129.0000 143.0000 102.5000 Du        
   3838 ****       129.0000 143.2500 100.7500 Du        
   3839 ****       129.0000 143.2500 101.0000 Du        
   3840 ****       129.0000 143.2500 101.2500 Du        
   3841 ****       129.0000 143.2500 101.5000 Du        
   3842 ****       129.0000 143.2500 101.7500 Du        
   3843 ****       129.0000 143.2500 102.0000 Du        
   3844 ****       129.0000 143.2500 102.2500 Du        
   3845 ****       129.0000 143.5000  94.5000 Du        
   3846 ****       129.0000 143.5000  94.7500 Du        
   3847 ****       129.0000 143.5000  95.0000 Du        
   3848 ****       129.0000 143.5000  95.2500 Du        
   3849 ****       129.0000 143.5000  95.5000 Du        
   3850 ****       129.0000 143.5000  95.7500 Du        
   3851 ****       129.0000 143.5000  96.0000 Du        
   3852 ****       129.0000 143.5000 100.5000 Du        
   3853 ****       129.0000 143.5000 100.7500 Du        
   3854 ****       129.0000 143.5000 101.0000 Du        
   3855 ****       129.0000 143.5000 101.2500 Du        
   3856 ****       129.0000 143.5000 101.5000 Du        
   3857 ****       129.0000 143.5000 101.7500 Du        
   3858 ****       129.0000 143.5000 102.0000 Du        
   3859 ****       129.0000 143.5000 102.2500 Du        
   3860 ****       129.0000 143.7500  93.7500 Du        
   3861 ****       129.0000 143.7500  94.0000 Du        
   3862 ****       129.0000 143.7500  94.2500 Du        
   3863 ****       129.0000 143.7500  94.5000 Du        
   3864 ****       129.0000 143.7500  94.7500 Du        
   3865 ****       129.0000 143.7500  95.0000 Du        
   3866 ****       129.0000 143.7500  95.2500 Du        
   3867 ****       129.0000 143.7500  95.5000 Du        
   3868 ****       129.0000 143.7500  95.7500 Du        
   3869 ****       129.0000 143.7500 100.0000 Du        
   3870 ****       129.0000 143.7500 100.2500 Du        
   3871 ****       129.0000 143.7500 100.5000 Du        
   3872 ****       129.0000 143.7500 100.7500 Du        
   3873 ****       129.0000 143.7500 101.0000 Du        
   3874 ****       129.0000 143.7500 101.2500 Du        
   3875 ****       129.0000 143.7500 101.5000 Du        
   3876 ****       129.0000 143.7500 101.7500 Du        
   3877 ****       129.0000 143.7500 102.0000 Du        
   3878 ****       129.0000 144.0000  92.2500 Du        
   3879 ****       129.0000 144.0000  92.5000 Du        
   3880 ****       129.0000 144.0000  92.7500 Du        
   3881 ****       129.0000 144.0000  93.0000 Du        
   3882 ****       129.0000 144.0000  93.2500 Du        
   3883 ****       129.0000 144.0000  93.5000 Du        
   3884 ****       129.0000 144.0000  93.7500 Du        
   3885 ****       129.0000 144.0000  94.0000 Du        
   3886 ****       129.0000 144.0000  94.2500 Du        
   3887 ****       129.0000 144.0000  94.5000 Du        
   3888 ****       129.0000 144.0000  94.7500 Du        
   3889 ****       129.0000 144.0000  95.0000 Du        
   3890 ****       129.0000 144.0000  95.2500 Du        
   3891 ****       129.0000 144.0000  95.5000 Du        
   3892 ****       129.0000 144.0000  99.7500 Du        
   3893 ****       129.0000 144.0000 100.0000 Du        
   3894 ****       129.0000 144.0000 100.2500 Du        
   3895 ****       129.0000 144.0000 100.5000 Du        
   3896 ****       129.0000 144.0000 100.7500 Du        
   3897 ****       129.0000 144.0000 101.0000 Du        
   3898 ****       129.0000 144.0000 101.2500 Du        
   3899 ****       129.0000 144.0000 101.5000 Du        
   3900 ****       129.0000 144.0000 101.7500 Du        
   3901 ****       129.0000 144.0000 102.0000 Du        
   3902 ****       129.0000 144.2500  91.7500 Du        
   3903 ****       129.0000 144.2500  92.0000 Du        
   3904 ****       129.0000 144.2500  92.2500 Du        
   3905 ****       129.0000 144.2500  92.5000 Du        
   3906 ****       129.0000 144.2500  92.7500 Du        
   3907 ****       129.0000 144.2500  93.0000 Du        
   3908 ****       129.0000 144.2500  93.2500 Du        
   3909 ****       129.0000 144.2500  93.5000 Du        
   3910 ****       129.0000 144.2500  99.7500 Du        
   3911 ****       129.0000 144.2500 100.0000 Du        
   3912 ****       129.0000 144.2500 100.2500 Du        
   3913 ****       129.0000 144.2500 100.5000 Du        
   3914 ****       129.0000 144.2500 100.7500 Du        
   3915 ****       129.0000 144.2500 101.0000 Du        
   3916 ****       129.0000 144.2500 101.2500 Du        
   3917 ****       129.0000 144.2500 101.5000 Du        
   3918 ****       129.0000 144.2500 101.7500 Du        
   3919 ****       129.0000 144.2500 102.0000 Du        
   3920 ****       129.0000 144.5000  91.2500 Du        
   3921 ****       129.0000 144.5000  91.5000 Du        
   3922 ****       129.0000 144.5000  91.7500 Du        
   3923 ****       129.0000 144.5000  92.0000 Du        
   3924 ****       129.0000 144.5000  92.2500 Du        
   3925 ****       129.0000 144.5000  92.5000 Du        
   3926 ****       129.0000 144.5000  92.7500 Du        
   3927 ****       129.0000 144.5000  93.0000 Du        
   3928 ****       129.0000 144.5000  93.2500 Du        
   3929 ****       129.0000 144.5000  99.7500 Du        
   3930 ****       129.0000 144.5000 100.0000 Du        
   3931 ****       129.0000 144.5000 100.2500 Du        
   3932 ****       129.0000 144.5000 100.5000 Du        
   3933 ****       129.0000 144.5000 100.7500 Du        
   3934 ****       129.0000 144.5000 101.0000 Du        
   3935 ****       129.0000 144.5000 101.2500 Du        
   3936 ****       129.0000 144.5000 101.5000 Du        
   3937 ****       129.0000 144.5000 101.7500 Du        
   3938 ****       129.0000 144.7500  91.2500 Du        
   3939 ****       129.0000 144.7500  91.5000 Du        
   3940 ****       129.0000 144.7500  91.7500 Du        
   3941 ****       129.0000 144.7500  92.0000 Du        
   3942 ****       129.0000 144.7500  92.2500 Du        
   3943 ****       129.0000 144.7500  92.5000 Du        
   3944 ****       129.0000 144.7500  92.7500 Du        
   3945 ****       129.0000 144.7500  99.7500 Du        
   3946 ****       129.0000 144.7500 100.0000 Du        
   3947 ****       129.0000 144.7500 100.2500 Du        
   3948 ****       129.0000 144.7500 100.5000 Du        
   3949 ****       129.0000 144.7500 100.7500 Du        
   3950 ****       129.0000 144.7500 101.0000 Du        
   3951 ****       129.0000 144.7500 101.2500 Du        
   3952 ****       129.0000 144.7500 101.5000 Du        
   3953 ****       129.0000 144.7500 101.7500 Du        
   3954 ****       129.0000 145.0000  91.2500 Du        
   3955 ****       129.0000 145.0000  91.5000 Du        
   3956 ****       129.0000 145.0000  91.7500 Du        
   3957 ****       129.0000 145.0000  92.0000 Du        
   3958 ****       129.0000 145.0000  92.2500 Du        
   3959 ****       129.0000 145.0000  92.5000 Du        
   3960 ****       129.0000 145.0000 100.0000 Du        
   3961 ****       129.0000 145.0000 100.2500 Du        
   3962 ****       129.0000 145.0000 100.5000 Du        
   3963 ****       129.0000 145.0000 100.7500 Du        
   3964 ****       129.0000 145.0000 101.0000 Du        
   3965 ****       129.0000 145.0000 101.2500 Du        
   3966 ****       129.0000 145.0000 101.5000 Du        
   3967 ****       129.0000 145.0000 101.7500 Du        
   3968 ****       129.0000 145.2500  91.5000 Du        
   3969 ****       129.0000 145.2500  91.7500 Du        
   3970 ****       129.0000 145.2500  92.0000 Du        
   3971 ****       129.0000 145.2500 100.0000 Du        
   3972 ****       129.0000 145.2500 100.2500 Du        
   3973 ****       129.0000 145.2500 100.5000 Du        
   3974 ****       129.0000 145.2500 100.7500 Du        
   3975 ****       129.0000 145.2500 101.0000 Du        
   3976 ****       129.0000 145.2500 101.2500 Du        
   3977 ****       129.0000 145.2500 101.5000 Du        
   3978 ****       129.0000 145.2500 101.7500 Du        
   3979 ****       129.0000 145.5000 100.2500 Du        
   3980 ****       129.0000 145.5000 100.5000 Du        
   3981 ****       129.0000 145.5000 100.7500 Du        
   3982 ****       129.0000 145.5000 101.0000 Du        
   3983 ****       129.0000 145.5000 101.2500 Du        
   3984 ****       129.0000 145.5000 101.5000 Du        
   3985 ****       129.0000 145.5000 101.7500 Du        
   3986 ****       129.0000 145.7500 100.7500 Du        
   3987 ****       129.0000 145.7500 101.0000 Du        
   3988 ****       129.0000 145.7500 101.2500 Du        
   3989 ****       129.0000 145.7500 101.5000 Du        
   3990 ****       129.0000 145.7500 101.7500 Du        
   3991 ****       129.0000 146.0000 101.2500 Du        
   3992 ****       129.0000 146.0000 101.5000 Du        
   3993 ****       129.0000 146.0000 101.7500 Du        
   3994 ****       129.2500 136.0000  84.5000 Du        
   3995 ****       129.2500 136.0000  84.7500 Du        
   3996 ****       129.2500 139.7500 103.7500 Du        
   3997 ****       129.2500 139.7500 104.0000 Du        
   3998 ****       129.2500 139.7500 104.2500 Du        
   3999 ****       129.2500 139.7500 104.5000 Du        
   4000 ****       129.2500 140.0000 103.5000 Du        
   4001 ****       129.2500 140.0000 103.7500 Du        
   4002 ****       129.2500 140.0000 104.0000 Du        
   4003 ****       129.2500 140.0000 104.2500 Du        
   4004 ****       129.2500 140.2500 103.2500 Du        
   4005 ****       129.2500 140.2500 103.5000 Du        
   4006 ****       129.2500 140.2500 103.7500 Du        
   4007 ****       129.2500 140.2500 104.0000 Du        
   4008 ****       129.2500 140.2500 104.2500 Du        
   4009 ****       129.2500 140.5000 103.2500 Du        
   4010 ****       129.2500 140.5000 103.5000 Du        
   4011 ****       129.2500 140.5000 103.7500 Du        
   4012 ****       129.2500 140.5000 104.0000 Du        
   4013 ****       129.2500 140.7500 103.0000 Du        
   4014 ****       129.2500 140.7500 103.2500 Du        
   4015 ****       129.2500 140.7500 103.5000 Du        
   4016 ****       129.2500 140.7500 103.7500 Du        
   4017 ****       129.2500 140.7500 104.0000 Du        
   4018 ****       129.2500 141.0000 103.0000 Du        
   4019 ****       129.2500 141.0000 103.2500 Du        
   4020 ****       129.2500 141.0000 103.5000 Du        
   4021 ****       129.2500 141.0000 103.7500 Du        
   4022 ****       129.2500 141.2500 103.0000 Du        
   4023 ****       129.2500 141.2500 103.2500 Du        
   4024 ****       129.2500 141.2500 103.5000 Du        
   4025 ****       129.2500 141.2500 103.7500 Du        
   4026 ****       129.2500 141.5000 102.7500 Du        
   4027 ****       129.2500 141.5000 103.0000 Du        
   4028 ****       129.2500 141.5000 103.2500 Du        
   4029 ****       129.2500 141.5000 103.5000 Du        
   4030 ****       129.2500 141.7500 102.2500 Du        
   4031 ****       129.2500 141.7500 102.5000 Du        
   4032 ****       129.2500 141.7500 102.7500 Du        
   4033 ****       129.2500 141.7500 103.0000 Du        
   4034 ****       129.2500 141.7500 103.2500 Du        
   4035 ****       129.2500 142.0000 102.0000 Du        
   4036 ****       129.2500 142.0000 102.2500 Du        
   4037 ****       129.2500 142.0000 102.5000 Du        
   4038 ****       129.2500 142.0000 102.7500 Du        
   4039 ****       129.2500 142.0000 103.0000 Du        
   4040 ****       129.2500 142.0000 103.2500 Du        
   4041 ****       129.2500 142.2500 101.7500 Du        
   4042 ****       129.2500 142.2500 102.0000 Du        
   4043 ****       129.2500 142.2500 102.2500 Du        
   4044 ****       129.2500 142.2500 102.5000 Du        
   4045 ****       129.2500 142.2500 102.7500 Du        
   4046 ****       129.2500 142.2500 103.0000 Du        
   4047 ****       129.2500 142.2500 103.2500 Du        
   4048 ****       129.2500 142.5000 101.7500 Du        
   4049 ****       129.2500 142.5000 102.0000 Du        
   4050 ****       129.2500 142.5000 102.2500 Du        
   4051 ****       129.2500 142.5000 102.5000 Du        
   4052 ****       129.2500 142.5000 102.7500 Du        
   4053 ****       129.2500 142.5000 103.0000 Du        
   4054 ****       129.2500 142.7500 101.0000 Du        
   4055 ****       129.2500 142.7500 101.2500 Du        
   4056 ****       129.2500 142.7500 101.5000 Du        
   4057 ****       129.2500 142.7500 101.7500 Du        
   4058 ****       129.2500 142.7500 102.0000 Du        
   4059 ****       129.2500 142.7500 102.2500 Du        
   4060 ****       129.2500 142.7500 102.5000 Du        
   4061 ****       129.2500 142.7500 102.7500 Du        
   4062 ****       129.2500 143.0000 101.0000 Du        
   4063 ****       129.2500 143.0000 101.2500 Du        
   4064 ****       129.2500 143.0000 101.5000 Du        
   4065 ****       129.2500 143.0000 101.7500 Du        
   4066 ****       129.2500 143.0000 102.0000 Du        
   4067 ****       129.2500 143.0000 102.2500 Du        
   4068 ****       129.2500 143.0000 102.5000 Du        
   4069 ****       129.2500 143.0000 102.7500 Du        
   4070 ****       129.2500 143.2500 101.0000 Du        
   4071 ****       129.2500 143.2500 101.2500 Du        
   4072 ****       129.2500 143.2500 101.5000 Du        
   4073 ****       129.2500 143.2500 101.7500 Du        
   4074 ****       129.2500 143.2500 102.0000 Du        
   4075 ****       129.2500 143.2500 102.2500 Du        
   4076 ****       129.2500 143.2500 102.5000 Du        
   4077 ****       129.2500 143.5000  94.7500 Du        
   4078 ****       129.2500 143.5000  95.0000 Du        
   4079 ****       129.2500 143.5000  95.2500 Du        
   4080 ****       129.2500 143.5000  95.5000 Du        
   4081 ****       129.2500 143.5000  95.7500 Du        
   4082 ****       129.2500 143.5000 100.5000 Du        
   4083 ****       129.2500 143.5000 100.7500 Du        
   4084 ****       129.2500 143.5000 101.0000 Du        
   4085 ****       129.2500 143.5000 101.2500 Du        
   4086 ****       129.2500 143.5000 101.5000 Du        
   4087 ****       129.2500 143.5000 101.7500 Du        
   4088 ****       129.2500 143.5000 102.0000 Du        
   4089 ****       129.2500 143.5000 102.2500 Du        
   4090 ****       129.2500 143.7500  94.5000 Du        
   4091 ****       129.2500 143.7500  94.7500 Du        
   4092 ****       129.2500 143.7500  95.0000 Du        
   4093 ****       129.2500 143.7500  95.2500 Du        
   4094 ****       129.2500 143.7500  95.5000 Du        
   4095 ****       129.2500 143.7500  99.7500 Du        
   4096 ****       129.2500 143.7500 100.0000 Du        
   4097 ****       129.2500 143.7500 100.2500 Du        
   4098 ****       129.2500 143.7500 100.5000 Du        
   4099 ****       129.2500 143.7500 100.7500 Du        
   4100 ****       129.2500 143.7500 101.0000 Du        
   4101 ****       129.2500 143.7500 101.2500 Du        
   4102 ****       129.2500 143.7500 101.5000 Du        
   4103 ****       129.2500 143.7500 101.7500 Du        
   4104 ****       129.2500 143.7500 102.0000 Du        
   4105 ****       129.2500 144.0000  99.7500 Du        
   4106 ****       129.2500 144.0000 100.0000 Du        
   4107 ****       129.2500 144.0000 100.2500 Du        
   4108 ****       129.2500 144.0000 100.5000 Du        
   4109 ****       129.2500 144.0000 100.7500 Du        
   4110 ****       129.2500 144.0000 101.0000 Du        
   4111 ****       129.2500 144.0000 101.2500 Du        
   4112 ****       129.2500 144.0000 101.5000 Du        
   4113 ****       129.2500 144.0000 101.7500 Du        
   4114 ****       129.2500 144.0000 102.0000 Du        
   4115 ****       129.2500 144.2500  92.0000 Du        
   4116 ****       129.2500 144.2500  99.7500 Du        
   4117 ****       129.2500 144.2500 100.0000 Du        
   4118 ****       129.2500 144.2500 100.2500 Du        
   4119 ****       129.2500 144.2500 100.5000 Du        
   4120 ****       129.2500 144.2500 100.7500 Du        
   4121 ****       129.2500 144.2500 101.0000 Du        
   4122 ****       129.2500 144.2500 101.2500 Du        
   4123 ****       129.2500 144.2500 101.5000 Du        
   4124 ****       129.2500 144.2500 101.7500 Du        
   4125 ****       129.2500 144.2500 102.0000 Du        
   4126 ****       129.2500 144.5000  91.5000 Du        
   4127 ****       129.2500 144.5000  91.7500 Du        
   4128 ****       129.2500 144.5000  92.0000 Du        
   4129 ****       129.2500 144.5000  92.2500 Du        
   4130 ****       129.2500 144.5000  92.5000 Du        
   4131 ****       129.2500 144.5000  92.7500 Du        
   4132 ****       129.2500 144.5000  99.7500 Du        
   4133 ****       129.2500 144.5000 100.0000 Du        
   4134 ****       129.2500 144.5000 100.2500 Du        
   4135 ****       129.2500 144.5000 100.5000 Du        
   4136 ****       129.2500 144.5000 100.7500 Du        
   4137 ****       129.2500 144.5000 101.0000 Du        
   4138 ****       129.2500 144.5000 101.2500 Du        
   4139 ****       129.2500 144.5000 101.5000 Du        
   4140 ****       129.2500 144.5000 101.7500 Du        
   4141 ****       129.2500 144.7500  91.2500 Du        
   4142 ****       129.2500 144.7500  91.5000 Du        
   4143 ****       129.2500 144.7500  91.7500 Du        
   4144 ****       129.2500 144.7500  92.0000 Du        
   4145 ****       129.2500 144.7500  92.2500 Du        
   4146 ****       129.2500 144.7500  92.5000 Du        
   4147 ****       129.2500 144.7500  99.7500 Du        
   4148 ****       129.2500 144.7500 100.0000 Du        
   4149 ****       129.2500 144.7500 100.2500 Du        
   4150 ****       129.2500 144.7500 100.5000 Du        
   4151 ****       129.2500 144.7500 100.7500 Du        
   4152 ****       129.2500 144.7500 101.0000 Du        
   4153 ****       129.2500 144.7500 101.2500 Du        
   4154 ****       129.2500 144.7500 101.5000 Du        
   4155 ****       129.2500 144.7500 101.7500 Du        
   4156 ****       129.2500 145.0000  91.2500 Du        
   4157 ****       129.2500 145.0000  91.5000 Du        
   4158 ****       129.2500 145.0000  91.7500 Du        
   4159 ****       129.2500 145.0000  92.0000 Du        
   4160 ****       129.2500 145.0000  92.2500 Du        
   4161 ****       129.2500 145.0000 100.0000 Du        
   4162 ****       129.2500 145.0000 100.2500 Du        
   4163 ****       129.2500 145.0000 100.5000 Du        
   4164 ****       129.2500 145.0000 100.7500 Du        
   4165 ****       129.2500 145.0000 101.0000 Du        
   4166 ****       129.2500 145.0000 101.2500 Du        
   4167 ****       129.2500 145.0000 101.5000 Du        
   4168 ****       129.2500 145.0000 101.7500 Du        
   4169 ****       129.2500 145.2500  91.5000 Du        
   4170 ****       129.2500 145.2500  91.7500 Du        
   4171 ****       129.2500 145.2500 100.0000 Du        
   4172 ****       129.2500 145.2500 100.2500 Du        
   4173 ****       129.2500 145.2500 100.5000 Du        
   4174 ****       129.2500 145.2500 100.7500 Du        
   4175 ****       129.2500 145.2500 101.0000 Du        
   4176 ****       129.2500 145.2500 101.2500 Du        
   4177 ****       129.2500 145.2500 101.5000 Du        
   4178 ****       129.2500 145.2500 101.7500 Du        
   4179 ****       129.2500 145.5000 100.2500 Du        
   4180 ****       129.2500 145.5000 100.5000 Du        
   4181 ****       129.2500 145.5000 100.7500 Du        
   4182 ****       129.2500 145.5000 101.0000 Du        
   4183 ****       129.2500 145.5000 101.2500 Du        
   4184 ****       129.2500 145.5000 101.5000 Du        
   4185 ****       129.2500 145.5000 101.7500 Du        
   4186 ****       129.2500 145.7500 100.5000 Du        
   4187 ****       129.2500 145.7500 100.7500 Du        
   4188 ****       129.2500 145.7500 101.0000 Du        
   4189 ****       129.2500 145.7500 101.2500 Du        
   4190 ****       129.2500 145.7500 101.5000 Du        
   4191 ****       129.2500 145.7500 101.7500 Du        
   4192 ****       129.2500 146.0000 101.2500 Du        
   4193 ****       129.2500 146.0000 101.5000 Du        
   4194 ****       129.2500 146.0000 101.7500 Du        
   4195 ****       129.5000 136.0000  84.5000 Du        
   4196 ****       129.5000 136.0000  84.7500 Du        
   4197 ****       129.5000 136.0000  85.0000 Du        
   4198 ****       129.5000 136.2500  84.7500 Du        
   4199 ****       129.5000 136.2500  85.0000 Du        
   4200 ****       129.5000 139.5000 104.2500 Du        
   4201 ****       129.5000 139.5000 104.5000 Du        
   4202 ****       129.5000 139.5000 104.7500 Du        
   4203 ****       129.5000 139.5000 105.0000 Du        
   4204 ****       129.5000 139.5000 105.2500 Du        
   4205 ****       129.5000 139.7500 103.7500 Du        
   4206 ****       129.5000 139.7500 104.0000 Du        
   4207 ****       129.5000 139.7500 104.2500 Du        
   4208 ****       129.5000 139.7500 104.5000 Du        
   4209 ****       129.5000 139.7500 104.7500 Du        
   4210 ****       129.5000 139.7500 105.0000 Du        
   4211 ****       129.5000 140.0000 103.5000 Du        
   4212 ****       129.5000 140.0000 103.7500 Du        
   4213 ****       129.5000 140.0000 104.0000 Du        
   4214 ****       129.5000 140.0000 104.2500 Du        
   4215 ****       129.5000 140.0000 104.5000 Du        
   4216 ****       129.5000 140.0000 104.7500 Du        
   4217 ****       129.5000 140.2500 103.2500 Du        
   4218 ****       129.5000 140.2500 103.5000 Du        
   4219 ****       129.5000 140.2500 103.7500 Du        
   4220 ****       129.5000 140.2500 104.0000 Du        
   4221 ****       129.5000 140.2500 104.2500 Du        
   4222 ****       129.5000 140.2500 104.5000 Du        
   4223 ****       129.5000 140.5000 103.0000 Du        
   4224 ****       129.5000 140.5000 103.2500 Du        
   4225 ****       129.5000 140.5000 103.5000 Du        
   4226 ****       129.5000 140.5000 103.7500 Du        
   4227 ****       129.5000 140.5000 104.0000 Du        
   4228 ****       129.5000 140.5000 104.2500 Du        
   4229 ****       129.5000 140.5000 104.5000 Du        
   4230 ****       129.5000 140.7500 102.7500 Du        
   4231 ****       129.5000 140.7500 103.0000 Du        
   4232 ****       129.5000 140.7500 103.2500 Du        
   4233 ****       129.5000 140.7500 103.5000 Du        
   4234 ****       129.5000 140.7500 103.7500 Du        
   4235 ****       129.5000 140.7500 104.0000 Du        
   4236 ****       129.5000 140.7500 104.2500 Du        
   4237 ****       129.5000 141.0000 102.7500 Du        
   4238 ****       129.5000 141.0000 103.0000 Du        
   4239 ****       129.5000 141.0000 103.2500 Du        
   4240 ****       129.5000 141.0000 103.5000 Du        
   4241 ****       129.5000 141.0000 103.7500 Du        
   4242 ****       129.5000 141.0000 104.0000 Du        
   4243 ****       129.5000 141.0000 104.2500 Du        
   4244 ****       129.5000 141.2500 102.7500 Du        
   4245 ****       129.5000 141.2500 103.0000 Du        
   4246 ****       129.5000 141.2500 103.2500 Du        
   4247 ****       129.5000 141.2500 103.5000 Du        
   4248 ****       129.5000 141.2500 103.7500 Du        
   4249 ****       129.5000 141.2500 104.0000 Du        
   4250 ****       129.5000 141.2500 104.2500 Du        
   4251 ****       129.5000 141.5000 102.5000 Du        
   4252 ****       129.5000 141.5000 102.7500 Du        
   4253 ****       129.5000 141.5000 103.0000 Du        
   4254 ****       129.5000 141.5000 103.2500 Du        
   4255 ****       129.5000 141.5000 103.5000 Du        
   4256 ****       129.5000 141.5000 103.7500 Du        
   4257 ****       129.5000 141.5000 104.0000 Du        
   4258 ****       129.5000 141.7500 102.2500 Du        
   4259 ****       129.5000 141.7500 102.5000 Du        
   4260 ****       129.5000 141.7500 102.7500 Du        
   4261 ****       129.5000 141.7500 103.0000 Du        
   4262 ****       129.5000 141.7500 103.2500 Du        
   4263 ****       129.5000 141.7500 103.5000 Du        
   4264 ****       129.5000 141.7500 103.7500 Du        
   4265 ****       129.5000 141.7500 104.0000 Du        
   4266 ****       129.5000 142.0000 102.0000 Du        
   4267 ****       129.5000 142.0000 102.2500 Du        
   4268 ****       129.5000 142.0000 102.5000 Du        
   4269 ****       129.5000 142.0000 102.7500 Du        
   4270 ****       129.5000 142.0000 103.0000 Du        
   4271 ****       129.5000 142.0000 103.2500 Du        
   4272 ****       129.5000 142.0000 103.5000 Du        
   4273 ****       129.5000 142.0000 103.7500 Du        
   4274 ****       129.5000 142.0000 104.0000 Du        
   4275 ****       129.5000 142.2500 102.2500 Du        
   4276 ****       129.5000 142.2500 102.5000 Du        
   4277 ****       129.5000 142.2500 102.7500 Du        
   4278 ****       129.5000 142.2500 103.0000 Du        
   4279 ****       129.5000 142.2500 103.2500 Du        
   4280 ****       129.5000 142.2500 103.5000 Du        
   4281 ****       129.5000 142.2500 103.7500 Du        
   4282 ****       129.5000 142.5000 102.5000 Du        
   4283 ****       129.5000 142.5000 102.7500 Du        
   4284 ****       129.5000 142.5000 103.0000 Du        
   4285 ****       129.5000 142.7500 102.0000 Du        
   4286 ****       129.5000 142.7500 102.2500 Du        
   4287 ****       129.5000 142.7500 102.5000 Du        
   4288 ****       129.5000 142.7500 102.7500 Du        
   4289 ****       129.5000 142.7500 103.0000 Du        
   4290 ****       129.5000 143.0000 101.7500 Du        
   4291 ****       129.5000 143.0000 102.0000 Du        
   4292 ****       129.5000 143.0000 102.2500 Du        
   4293 ****       129.5000 143.0000 102.5000 Du        
   4294 ****       129.5000 143.2500 101.7500 Du        
   4295 ****       129.5000 143.2500 102.0000 Du        
   4296 ****       129.5000 143.2500 102.2500 Du        
   4297 ****       129.5000 143.5000 101.2500 Du        
   4298 ****       129.5000 143.5000 101.5000 Du        
   4299 ****       129.5000 143.5000 101.7500 Du        
   4300 ****       129.5000 143.5000 102.0000 Du        
   4301 ****       129.5000 143.5000 102.2500 Du        
   4302 ****       129.5000 143.7500  99.5000 Du        
   4303 ****       129.5000 143.7500  99.7500 Du        
   4304 ****       129.5000 143.7500 100.0000 Du        
   4305 ****       129.5000 143.7500 100.2500 Du        
   4306 ****       129.5000 143.7500 100.5000 Du        
   4307 ****       129.5000 143.7500 100.7500 Du        
   4308 ****       129.5000 143.7500 101.0000 Du        
   4309 ****       129.5000 143.7500 101.2500 Du        
   4310 ****       129.5000 143.7500 101.5000 Du        
   4311 ****       129.5000 143.7500 101.7500 Du        
   4312 ****       129.5000 143.7500 102.0000 Du        
   4313 ****       129.5000 144.0000  99.5000 Du        
   4314 ****       129.5000 144.0000  99.7500 Du        
   4315 ****       129.5000 144.0000 100.0000 Du        
   4316 ****       129.5000 144.0000 100.2500 Du        
   4317 ****       129.5000 144.0000 100.5000 Du        
   4318 ****       129.5000 144.0000 100.7500 Du        
   4319 ****       129.5000 144.0000 101.0000 Du        
   4320 ****       129.5000 144.0000 101.2500 Du        
   4321 ****       129.5000 144.0000 101.5000 Du        
   4322 ****       129.5000 144.0000 101.7500 Du        
   4323 ****       129.5000 144.0000 102.0000 Du        
   4324 ****       129.5000 144.2500  99.7500 Du        
   4325 ****       129.5000 144.2500 100.0000 Du        
   4326 ****       129.5000 144.2500 100.2500 Du        
   4327 ****       129.5000 144.2500 100.5000 Du        
   4328 ****       129.5000 144.2500 100.7500 Du        
   4329 ****       129.5000 144.2500 101.0000 Du        
   4330 ****       129.5000 144.2500 101.2500 Du        
   4331 ****       129.5000 144.2500 101.5000 Du        
   4332 ****       129.5000 144.2500 101.7500 Du        
   4333 ****       129.5000 144.5000  99.7500 Du        
   4334 ****       129.5000 144.5000 100.0000 Du        
   4335 ****       129.5000 144.5000 100.2500 Du        
   4336 ****       129.5000 144.5000 100.5000 Du        
   4337 ****       129.5000 144.5000 100.7500 Du        
   4338 ****       129.5000 144.5000 101.0000 Du        
   4339 ****       129.5000 144.5000 101.2500 Du        
   4340 ****       129.5000 144.5000 101.5000 Du        
   4341 ****       129.5000 144.5000 101.7500 Du        
   4342 ****       129.5000 144.7500  99.7500 Du        
   4343 ****       129.5000 144.7500 100.0000 Du        
   4344 ****       129.5000 144.7500 100.2500 Du        
   4345 ****       129.5000 144.7500 100.5000 Du        
   4346 ****       129.5000 144.7500 100.7500 Du        
   4347 ****       129.5000 144.7500 101.0000 Du        
   4348 ****       129.5000 144.7500 101.2500 Du        
   4349 ****       129.5000 144.7500 101.5000 Du        
   4350 ****       129.5000 144.7500 101.7500 Du        
   4351 ****       129.5000 145.0000 100.0000 Du        
   4352 ****       129.5000 145.0000 100.2500 Du        
   4353 ****       129.5000 145.0000 100.5000 Du        
   4354 ****       129.5000 145.0000 100.7500 Du        
   4355 ****       129.5000 145.0000 101.0000 Du        
   4356 ****       129.5000 145.0000 101.2500 Du        
   4357 ****       129.5000 145.0000 101.5000 Du        
   4358 ****       129.5000 145.0000 101.7500 Du        
   4359 ****       129.5000 145.2500 100.0000 Du        
   4360 ****       129.5000 145.2500 100.2500 Du        
   4361 ****       129.5000 145.2500 100.5000 Du        
   4362 ****       129.5000 145.2500 100.7500 Du        
   4363 ****       129.5000 145.2500 101.0000 Du        
   4364 ****       129.5000 145.2500 101.2500 Du        
   4365 ****       129.5000 145.2500 101.5000 Du        
   4366 ****       129.5000 145.5000 100.2500 Du        
   4367 ****       129.5000 145.5000 100.5000 Du        
   4368 ****       129.5000 145.5000 100.7500 Du        
   4369 ****       129.5000 145.5000 101.0000 Du        
   4370 ****       129.5000 145.5000 101.2500 Du        
   4371 ****       129.5000 145.5000 101.5000 Du        
   4372 ****       129.5000 145.5000 101.7500 Du        
   4373 ****       129.5000 145.7500 100.7500 Du        
   4374 ****       129.5000 145.7500 101.0000 Du        
   4375 ****       129.5000 145.7500 101.2500 Du        
   4376 ****       129.5000 145.7500 101.5000 Du        
   4377 ****       129.7500 134.7500  84.7500 Du        
   4378 ****       129.7500 135.0000  84.7500 Du        
   4379 ****       129.7500 135.0000  85.0000 Du        
   4380 ****       129.7500 135.2500  84.7500 Du        
   4381 ****       129.7500 135.2500  85.0000 Du        
   4382 ****       129.7500 135.2500  85.2500 Du        
   4383 ****       129.7500 135.5000  84.7500 Du        
   4384 ****       129.7500 135.5000  85.0000 Du        
   4385 ****       129.7500 135.5000  85.2500 Du        
   4386 ****       129.7500 135.7500  84.7500 Du        
   4387 ****       129.7500 135.7500  85.0000 Du        
   4388 ****       129.7500 135.7500  85.2500 Du        
   4389 ****       129.7500 136.0000  84.5000 Du        
   4390 ****       129.7500 136.0000  84.7500 Du        
   4391 ****       129.7500 136.0000  85.0000 Du        
   4392 ****       129.7500 136.0000  85.2500 Du        
   4393 ****       129.7500 136.2500  84.7500 Du        
   4394 ****       129.7500 136.2500  85.0000 Du        
   4395 ****       129.7500 136.2500  85.2500 Du        
   4396 ****       129.7500 139.2500 104.5000 Du        
   4397 ****       129.7500 139.2500 104.7500 Du        
   4398 ****       129.7500 139.2500 105.0000 Du        
   4399 ****       129.7500 139.2500 105.2500 Du        
   4400 ****       129.7500 139.2500 105.5000 Du        
   4401 ****       129.7500 139.5000 104.0000 Du        
   4402 ****       129.7500 139.5000 104.2500 Du        
   4403 ****       129.7500 139.5000 104.5000 Du        
   4404 ****       129.7500 139.5000 104.7500 Du        
   4405 ****       129.7500 139.5000 105.0000 Du        
   4406 ****       129.7500 139.5000 105.2500 Du        
   4407 ****       129.7500 139.5000 105.5000 Du        
   4408 ****       129.7500 139.7500 103.7500 Du        
   4409 ****       129.7500 139.7500 104.0000 Du        
   4410 ****       129.7500 139.7500 104.2500 Du        
   4411 ****       129.7500 139.7500 104.5000 Du        
   4412 ****       129.7500 139.7500 104.7500 Du        
   4413 ****       129.7500 139.7500 105.0000 Du        
   4414 ****       129.7500 139.7500 105.2500 Du        
   4415 ****       129.7500 139.7500 105.5000 Du        
   4416 ****       129.7500 140.0000 103.5000 Du        
   4417 ****       129.7500 140.0000 103.7500 Du        
   4418 ****       129.7500 140.0000 104.0000 Du        
   4419 ****       129.7500 140.0000 104.2500 Du        
   4420 ****       129.7500 140.0000 104.5000 Du        
   4421 ****       129.7500 140.0000 104.7500 Du        
   4422 ****       129.7500 140.0000 105.0000 Du        
   4423 ****       129.7500 140.0000 105.2500 Du        
   4424 ****       129.7500 140.0000 105.5000 Du        
   4425 ****       129.7500 140.2500 103.2500 Du        
   4426 ****       129.7500 140.2500 103.5000 Du        
   4427 ****       129.7500 140.2500 103.7500 Du        
   4428 ****       129.7500 140.2500 104.0000 Du        
   4429 ****       129.7500 140.2500 104.2500 Du        
   4430 ****       129.7500 140.2500 104.5000 Du        
   4431 ****       129.7500 140.2500 104.7500 Du        
   4432 ****       129.7500 140.2500 105.0000 Du        
   4433 ****       129.7500 140.2500 105.2500 Du        
   4434 ****       129.7500 140.5000 103.0000 Du        
   4435 ****       129.7500 140.5000 103.2500 Du        
   4436 ****       129.7500 140.5000 103.5000 Du        
   4437 ****       129.7500 140.5000 103.7500 Du        
   4438 ****       129.7500 140.5000 104.0000 Du        
   4439 ****       129.7500 140.5000 104.2500 Du        
   4440 ****       129.7500 140.5000 104.5000 Du        
   4441 ****       129.7500 140.5000 104.7500 Du        
   4442 ****       129.7500 140.5000 105.0000 Du        
   4443 ****       129.7500 140.7500 102.5000 Du        
   4444 ****       129.7500 140.7500 102.7500 Du        
   4445 ****       129.7500 140.7500 103.0000 Du        
   4446 ****       129.7500 140.7500 103.2500 Du        
   4447 ****       129.7500 140.7500 103.5000 Du        
   4448 ****       129.7500 140.7500 103.7500 Du        
   4449 ****       129.7500 140.7500 104.0000 Du        
   4450 ****       129.7500 140.7500 104.2500 Du        
   4451 ****       129.7500 140.7500 104.5000 Du        
   4452 ****       129.7500 140.7500 104.7500 Du        
   4453 ****       129.7500 140.7500 105.0000 Du        
   4454 ****       129.7500 141.0000 102.5000 Du        
   4455 ****       129.7500 141.0000 102.7500 Du        
   4456 ****       129.7500 141.0000 103.0000 Du        
   4457 ****       129.7500 141.0000 103.2500 Du        
   4458 ****       129.7500 141.0000 103.5000 Du        
   4459 ****       129.7500 141.0000 103.7500 Du        
   4460 ****       129.7500 141.0000 104.0000 Du        
   4461 ****       129.7500 141.0000 104.2500 Du        
   4462 ****       129.7500 141.0000 104.5000 Du        
   4463 ****       129.7500 141.0000 104.7500 Du        
   4464 ****       129.7500 141.0000 105.0000 Du        
   4465 ****       129.7500 141.2500 102.5000 Du        
   4466 ****       129.7500 141.2500 102.7500 Du        
   4467 ****       129.7500 141.2500 103.0000 Du        
   4468 ****       129.7500 141.2500 103.2500 Du        
   4469 ****       129.7500 141.2500 103.5000 Du        
   4470 ****       129.7500 141.2500 103.7500 Du        
   4471 ****       129.7500 141.2500 104.0000 Du        
   4472 ****       129.7500 141.2500 104.2500 Du        
   4473 ****       129.7500 141.2500 104.5000 Du        
   4474 ****       129.7500 141.2500 104.7500 Du        
   4475 ****       129.7500 141.2500 105.0000 Du        
   4476 ****       129.7500 141.5000 102.5000 Du        
   4477 ****       129.7500 141.5000 102.7500 Du        
   4478 ****       129.7500 141.5000 103.0000 Du        
   4479 ****       129.7500 141.5000 103.2500 Du        
   4480 ****       129.7500 141.5000 103.5000 Du        
   4481 ****       129.7500 141.5000 103.7500 Du        
   4482 ****       129.7500 141.5000 104.0000 Du        
   4483 ****       129.7500 141.5000 104.2500 Du        
   4484 ****       129.7500 141.5000 104.5000 Du        
   4485 ****       129.7500 141.5000 104.7500 Du        
   4486 ****       129.7500 141.5000 105.0000 Du        
   4487 ****       129.7500 141.7500 102.0000 Du        
   4488 ****       129.7500 141.7500 102.2500 Du        
   4489 ****       129.7500 141.7500 102.5000 Du        
   4490 ****       129.7500 141.7500 102.7500 Du        
   4491 ****       129.7500 141.7500 103.0000 Du        
   4492 ****       129.7500 141.7500 103.2500 Du        
   4493 ****       129.7500 141.7500 103.5000 Du        
   4494 ****       129.7500 141.7500 103.7500 Du        
   4495 ****       129.7500 141.7500 104.0000 Du        
   4496 ****       129.7500 141.7500 104.2500 Du        
   4497 ****       129.7500 141.7500 104.5000 Du        
   4498 ****       129.7500 141.7500 104.7500 Du        
   4499 ****       129.7500 141.7500 105.0000 Du        
   4500 ****       129.7500 142.0000 102.0000 Du        
   4501 ****       129.7500 142.0000 102.2500 Du        
   4502 ****       129.7500 142.0000 102.5000 Du        
   4503 ****       129.7500 142.0000 102.7500 Du        
   4504 ****       129.7500 142.0000 103.0000 Du        
   4505 ****       129.7500 142.0000 103.2500 Du        
   4506 ****       129.7500 142.0000 103.5000 Du        
   4507 ****       129.7500 142.0000 103.7500 Du        
   4508 ****       129.7500 142.0000 104.0000 Du        
   4509 ****       129.7500 142.0000 104.2500 Du        
   4510 ****       129.7500 142.0000 104.5000 Du        
   4511 ****       129.7500 142.0000 104.7500 Du        
   4512 ****       129.7500 142.0000 105.0000 Du        
   4513 ****       129.7500 142.2500 102.2500 Du        
   4514 ****       129.7500 142.2500 102.5000 Du        
   4515 ****       129.7500 142.2500 102.7500 Du        
   4516 ****       129.7500 142.2500 103.0000 Du        
   4517 ****       129.7500 142.2500 103.2500 Du        
   4518 ****       129.7500 142.2500 103.5000 Du        
   4519 ****       129.7500 142.2500 103.7500 Du        
   4520 ****       129.7500 142.2500 104.0000 Du        
   4521 ****       129.7500 142.2500 104.2500 Du        
   4522 ****       129.7500 142.2500 104.5000 Du        
   4523 ****       129.7500 142.2500 104.7500 Du        
   4524 ****       129.7500 142.2500 105.0000 Du        
   4525 ****       129.7500 142.5000 102.2500 Du        
   4526 ****       129.7500 142.5000 102.5000 Du        
   4527 ****       129.7500 142.5000 102.7500 Du        
   4528 ****       129.7500 142.5000 103.0000 Du        
   4529 ****       129.7500 142.5000 103.2500 Du        
   4530 ****       129.7500 142.5000 103.5000 Du        
   4531 ****       129.7500 142.5000 103.7500 Du        
   4532 ****       129.7500 142.7500 102.0000 Du        
   4533 ****       129.7500 142.7500 102.2500 Du        
   4534 ****       129.7500 142.7500 102.5000 Du        
   4535 ****       129.7500 142.7500 102.7500 Du        
   4536 ****       129.7500 142.7500 103.0000 Du        
   4537 ****       129.7500 142.7500 103.2500 Du        
   4538 ****       129.7500 143.0000 101.7500 Du        
   4539 ****       129.7500 143.0000 102.0000 Du        
   4540 ****       129.7500 143.0000 102.2500 Du        
   4541 ****       129.7500 143.0000 102.5000 Du        
   4542 ****       129.7500 143.0000 102.7500 Du        
   4543 ****       129.7500 143.2500 101.7500 Du        
   4544 ****       129.7500 143.2500 102.0000 Du        
   4545 ****       129.7500 143.2500 102.2500 Du        
   4546 ****       129.7500 143.2500 102.5000 Du        
   4547 ****       129.7500 143.5000  99.5000 Du        
   4548 ****       129.7500 143.5000  99.7500 Du        
   4549 ****       129.7500 143.5000 100.0000 Du        
   4550 ****       129.7500 143.5000 100.2500 Du        
   4551 ****       129.7500 143.5000 100.5000 Du        
   4552 ****       129.7500 143.5000 101.0000 Du        
   4553 ****       129.7500 143.5000 101.2500 Du        
   4554 ****       129.7500 143.5000 101.5000 Du        
   4555 ****       129.7500 143.5000 101.7500 Du        
   4556 ****       129.7500 143.5000 102.0000 Du        
   4557 ****       129.7500 143.5000 102.2500 Du        
   4558 ****       129.7500 143.7500  99.2500 Du        
   4559 ****       129.7500 143.7500  99.5000 Du        
   4560 ****       129.7500 143.7500  99.7500 Du        
   4561 ****       129.7500 143.7500 100.0000 Du        
   4562 ****       129.7500 143.7500 100.2500 Du        
   4563 ****       129.7500 143.7500 100.5000 Du        
   4564 ****       129.7500 143.7500 100.7500 Du        
   4565 ****       129.7500 143.7500 101.0000 Du        
   4566 ****       129.7500 143.7500 101.2500 Du        
   4567 ****       129.7500 143.7500 101.5000 Du        
   4568 ****       129.7500 143.7500 101.7500 Du        
   4569 ****       129.7500 143.7500 102.0000 Du        
   4570 ****       129.7500 144.0000  99.5000 Du        
   4571 ****       129.7500 144.0000  99.7500 Du        
   4572 ****       129.7500 144.0000 100.0000 Du        
   4573 ****       129.7500 144.0000 100.2500 Du        
   4574 ****       129.7500 144.0000 100.5000 Du        
   4575 ****       129.7500 144.0000 100.7500 Du        
   4576 ****       129.7500 144.0000 101.0000 Du        
   4577 ****       129.7500 144.0000 101.2500 Du        
   4578 ****       129.7500 144.0000 101.5000 Du        
   4579 ****       129.7500 144.0000 101.7500 Du        
   4580 ****       129.7500 144.2500  99.5000 Du        
   4581 ****       129.7500 144.2500  99.7500 Du        
   4582 ****       129.7500 144.2500 100.0000 Du        
   4583 ****       129.7500 144.2500 100.2500 Du        
   4584 ****       129.7500 144.2500 100.5000 Du        
   4585 ****       129.7500 144.2500 100.7500 Du        
   4586 ****       129.7500 144.2500 101.0000 Du        
   4587 ****       129.7500 144.2500 101.2500 Du        
   4588 ****       129.7500 144.5000  99.5000 Du        
   4589 ****       129.7500 144.5000  99.7500 Du        
   4590 ****       129.7500 144.5000 100.0000 Du        
   4591 ****       129.7500 144.5000 100.2500 Du        
   4592 ****       129.7500 144.5000 100.5000 Du        
   4593 ****       129.7500 144.5000 100.7500 Du        
   4594 ****       129.7500 144.5000 101.0000 Du        
   4595 ****       129.7500 144.5000 101.2500 Du        
   4596 ****       129.7500 144.5000 101.5000 Du        
   4597 ****       129.7500 144.7500  99.7500 Du        
   4598 ****       129.7500 144.7500 100.0000 Du        
   4599 ****       129.7500 144.7500 100.2500 Du        
   4600 ****       129.7500 144.7500 100.5000 Du        
   4601 ****       129.7500 144.7500 100.7500 Du        
   4602 ****       129.7500 144.7500 101.0000 Du        
   4603 ****       129.7500 144.7500 101.2500 Du        
   4604 ****       129.7500 145.0000 100.0000 Du        
   4605 ****       129.7500 145.0000 100.2500 Du        
   4606 ****       129.7500 145.0000 100.5000 Du        
   4607 ****       129.7500 145.0000 100.7500 Du        
   4608 ****       129.7500 145.0000 101.0000 Du        
   4609 ****       129.7500 145.0000 101.2500 Du        
   4610 ****       129.7500 145.2500 100.0000 Du        
   4611 ****       129.7500 145.2500 100.2500 Du        
   4612 ****       129.7500 145.2500 100.5000 Du        
   4613 ****       129.7500 145.2500 100.7500 Du        
   4614 ****       129.7500 145.2500 101.0000 Du        
   4615 ****       129.7500 145.5000 100.2500 Du        
   4616 ****       129.7500 145.5000 100.5000 Du        
   4617 ****       129.7500 145.5000 100.7500 Du        
   4618 ****       129.7500 145.5000 101.0000 Du        
   4619 ****       130.0000 135.0000  84.7500 Du        
   4620 ****       130.0000 135.0000  85.0000 Du        
   4621 ****       130.0000 135.2500  84.7500 Du        
   4622 ****       130.0000 135.2500  85.0000 Du        
   4623 ****       130.0000 135.2500  85.2500 Du        
   4624 ****       130.0000 135.5000  84.7500 Du        
   4625 ****       130.0000 135.5000  85.0000 Du        
   4626 ****       130.0000 135.5000  85.2500 Du        
   4627 ****       130.0000 135.5000  85.5000 Du        
   4628 ****       130.0000 135.7500  84.7500 Du        
   4629 ****       130.0000 135.7500  85.0000 Du        
   4630 ****       130.0000 135.7500  85.2500 Du        
   4631 ****       130.0000 135.7500  85.5000 Du        
   4632 ****       130.0000 136.0000  84.5000 Du        
   4633 ****       130.0000 136.0000  84.7500 Du        
   4634 ****       130.0000 136.0000  85.0000 Du        
   4635 ****       130.0000 136.0000  85.2500 Du        
   4636 ****       130.0000 136.0000  85.5000 Du        
   4637 ****       130.0000 136.2500  84.7500 Du        
   4638 ****       130.0000 136.2500  85.0000 Du        
   4639 ****       130.0000 136.2500  85.2500 Du        
   4640 ****       130.0000 139.2500 104.2500 Du        
   4641 ****       130.0000 139.2500 104.5000 Du        
   4642 ****       130.0000 139.2500 104.7500 Du        
   4643 ****       130.0000 139.2500 105.0000 Du        
   4644 ****       130.0000 139.2500 105.2500 Du        
   4645 ****       130.0000 139.2500 105.5000 Du        
   4646 ****       130.0000 139.5000 104.0000 Du        
   4647 ****       130.0000 139.5000 104.2500 Du        
   4648 ****       130.0000 139.5000 104.5000 Du        
   4649 ****       130.0000 139.5000 104.7500 Du        
   4650 ****       130.0000 139.5000 105.0000 Du        
   4651 ****       130.0000 139.5000 105.2500 Du        
   4652 ****       130.0000 139.5000 105.5000 Du        
   4653 ****       130.0000 139.5000 105.7500 Du        
   4654 ****       130.0000 139.7500 103.7500 Du        
   4655 ****       130.0000 139.7500 104.0000 Du        
   4656 ****       130.0000 139.7500 104.2500 Du        
   4657 ****       130.0000 139.7500 104.5000 Du        
   4658 ****       130.0000 139.7500 104.7500 Du        
   4659 ****       130.0000 139.7500 105.0000 Du        
   4660 ****       130.0000 139.7500 105.2500 Du        
   4661 ****       130.0000 139.7500 105.5000 Du        
   4662 ****       130.0000 139.7500 105.7500 Du        
   4663 ****       130.0000 140.0000 103.5000 Du        
   4664 ****       130.0000 140.0000 103.7500 Du        
   4665 ****       130.0000 140.0000 104.0000 Du        
   4666 ****       130.0000 140.0000 104.2500 Du        
   4667 ****       130.0000 140.0000 104.5000 Du        
   4668 ****       130.0000 140.0000 104.7500 Du        
   4669 ****       130.0000 140.0000 105.0000 Du        
   4670 ****       130.0000 140.0000 105.2500 Du        
   4671 ****       130.0000 140.0000 105.5000 Du        
   4672 ****       130.0000 140.0000 105.7500 Du        
   4673 ****       130.0000 140.2500 103.2500 Du        
   4674 ****       130.0000 140.2500 103.5000 Du        
   4675 ****       130.0000 140.2500 103.7500 Du        
   4676 ****       130.0000 140.2500 104.0000 Du        
   4677 ****       130.0000 140.2500 104.2500 Du        
   4678 ****       130.0000 140.2500 104.5000 Du        
   4679 ****       130.0000 140.2500 104.7500 Du        
   4680 ****       130.0000 140.2500 105.0000 Du        
   4681 ****       130.0000 140.2500 105.2500 Du        
   4682 ****       130.0000 140.2500 105.5000 Du        
   4683 ****       130.0000 140.2500 105.7500 Du        
   4684 ****       130.0000 140.5000 103.0000 Du        
   4685 ****       130.0000 140.5000 103.2500 Du        
   4686 ****       130.0000 140.5000 103.5000 Du        
   4687 ****       130.0000 140.5000 103.7500 Du        
   4688 ****       130.0000 140.5000 104.0000 Du        
   4689 ****       130.0000 140.5000 104.2500 Du        
   4690 ****       130.0000 140.5000 104.5000 Du        
   4691 ****       130.0000 140.5000 104.7500 Du        
   4692 ****       130.0000 140.5000 105.0000 Du        
   4693 ****       130.0000 140.5000 105.2500 Du        
   4694 ****       130.0000 140.5000 105.5000 Du        
   4695 ****       130.0000 140.7500 102.7500 Du        
   4696 ****       130.0000 140.7500 103.0000 Du        
   4697 ****       130.0000 140.7500 103.2500 Du        
   4698 ****       130.0000 140.7500 103.5000 Du        
   4699 ****       130.0000 140.7500 103.7500 Du        
   4700 ****       130.0000 140.7500 104.0000 Du        
   4701 ****       130.0000 140.7500 104.2500 Du        
   4702 ****       130.0000 140.7500 104.5000 Du        
   4703 ****       130.0000 140.7500 104.7500 Du        
   4704 ****       130.0000 140.7500 105.0000 Du        
   4705 ****       130.0000 140.7500 105.2500 Du        
   4706 ****       130.0000 140.7500 105.5000 Du        
   4707 ****       130.0000 141.0000 102.5000 Du        
   4708 ****       130.0000 141.0000 102.7500 Du        
   4709 ****       130.0000 141.0000 103.0000 Du        
   4710 ****       130.0000 141.0000 103.2500 Du        
   4711 ****       130.0000 141.0000 103.5000 Du        
   4712 ****       130.0000 141.0000 103.7500 Du        
   4713 ****       130.0000 141.0000 104.0000 Du        
   4714 ****       130.0000 141.0000 104.2500 Du        
   4715 ****       130.0000 141.0000 104.5000 Du        
   4716 ****       130.0000 141.0000 104.7500 Du        
   4717 ****       130.0000 141.0000 105.0000 Du        
   4718 ****       130.0000 141.0000 105.2500 Du        
   4719 ****       130.0000 141.0000 105.5000 Du        
   4720 ****       130.0000 141.2500 102.5000 Du        
   4721 ****       130.0000 141.2500 102.7500 Du        
   4722 ****       130.0000 141.2500 103.0000 Du        
   4723 ****       130.0000 141.2500 103.2500 Du        
   4724 ****       130.0000 141.2500 103.5000 Du        
   4725 ****       130.0000 141.2500 103.7500 Du        
   4726 ****       130.0000 141.2500 104.0000 Du        
   4727 ****       130.0000 141.2500 104.2500 Du        
   4728 ****       130.0000 141.2500 104.5000 Du        
   4729 ****       130.0000 141.2500 104.7500 Du        
   4730 ****       130.0000 141.2500 105.0000 Du        
   4731 ****       130.0000 141.2500 105.2500 Du        
   4732 ****       130.0000 141.2500 105.5000 Du        
   4733 ****       130.0000 141.2500 105.7500 Du        
   4734 ****       130.0000 141.5000 102.2500 Du        
   4735 ****       130.0000 141.5000 102.5000 Du        
   4736 ****       130.0000 141.5000 102.7500 Du        
   4737 ****       130.0000 141.5000 103.0000 Du        
   4738 ****       130.0000 141.5000 103.2500 Du        
   4739 ****       130.0000 141.5000 103.5000 Du        
   4740 ****       130.0000 141.5000 103.7500 Du        
   4741 ****       130.0000 141.5000 104.0000 Du        
   4742 ****       130.0000 141.5000 104.2500 Du        
   4743 ****       130.0000 141.5000 104.5000 Du        
   4744 ****       130.0000 141.5000 104.7500 Du        
   4745 ****       130.0000 141.5000 105.0000 Du        
   4746 ****       130.0000 141.5000 105.2500 Du        
   4747 ****       130.0000 141.5000 105.5000 Du        
   4748 ****       130.0000 141.5000 105.7500 Du        
   4749 ****       130.0000 141.7500 102.0000 Du        
   4750 ****       130.0000 141.7500 102.2500 Du        
   4751 ****       130.0000 141.7500 102.5000 Du        
   4752 ****       130.0000 141.7500 102.7500 Du        
   4753 ****       130.0000 141.7500 103.0000 Du        
   4754 ****       130.0000 141.7500 103.2500 Du        
   4755 ****       130.0000 141.7500 103.5000 Du        
   4756 ****       130.0000 141.7500 103.7500 Du        
   4757 ****       130.0000 141.7500 104.0000 Du        
   4758 ****       130.0000 141.7500 104.2500 Du        
   4759 ****       130.0000 141.7500 104.5000 Du        
   4760 ****       130.0000 141.7500 104.7500 Du        
   4761 ****       130.0000 141.7500 105.0000 Du        
   4762 ****       130.0000 141.7500 105.2500 Du        
   4763 ****       130.0000 141.7500 105.5000 Du        
   4764 ****       130.0000 141.7500 105.7500 Du        
   4765 ****       130.0000 142.0000 102.0000 Du        
   4766 ****       130.0000 142.0000 102.2500 Du        
   4767 ****       130.0000 142.0000 102.5000 Du        
   4768 ****       130.0000 142.0000 102.7500 Du        
   4769 ****       130.0000 142.0000 103.0000 Du        
   4770 ****       130.0000 142.0000 103.2500 Du        
   4771 ****       130.0000 142.0000 103.5000 Du        
   4772 ****       130.0000 142.0000 103.7500 Du        
   4773 ****       130.0000 142.0000 104.0000 Du        
   4774 ****       130.0000 142.0000 104.2500 Du        
   4775 ****       130.0000 142.0000 104.5000 Du        
   4776 ****       130.0000 142.0000 104.7500 Du        
   4777 ****       130.0000 142.0000 105.0000 Du        
   4778 ****       130.0000 142.0000 105.2500 Du        
   4779 ****       130.0000 142.0000 105.5000 Du        
   4780 ****       130.0000 142.0000 105.7500 Du        
   4781 ****       130.0000 142.0000 106.0000 Du        
   4782 ****       130.0000 142.2500 102.2500 Du        
   4783 ****       130.0000 142.2500 102.5000 Du        
   4784 ****       130.0000 142.2500 102.7500 Du        
   4785 ****       130.0000 142.2500 103.0000 Du        
   4786 ****       130.0000 142.2500 103.2500 Du        
   4787 ****       130.0000 142.2500 103.5000 Du        
   4788 ****       130.0000 142.2500 103.7500 Du        
   4789 ****       130.0000 142.2500 104.0000 Du        
   4790 ****       130.0000 142.2500 104.2500 Du        
   4791 ****       130.0000 142.2500 104.5000 Du        
   4792 ****       130.0000 142.2500 104.7500 Du        
   4793 ****       130.0000 142.2500 105.0000 Du        
   4794 ****       130.0000 142.2500 105.2500 Du        
   4795 ****       130.0000 142.2500 105.5000 Du        
   4796 ****       130.0000 142.2500 105.7500 Du        
   4797 ****       130.0000 142.2500 106.0000 Du        
   4798 ****       130.0000 142.5000 102.2500 Du        
   4799 ****       130.0000 142.5000 102.5000 Du        
   4800 ****       130.0000 142.5000 102.7500 Du        
   4801 ****       130.0000 142.5000 103.0000 Du        
   4802 ****       130.0000 142.5000 103.2500 Du        
   4803 ****       130.0000 142.5000 103.5000 Du        
   4804 ****       130.0000 142.5000 103.7500 Du        
   4805 ****       130.0000 142.5000 104.0000 Du        
   4806 ****       130.0000 142.5000 104.2500 Du        
   4807 ****       130.0000 142.5000 104.5000 Du        
   4808 ****       130.0000 142.5000 104.7500 Du        
   4809 ****       130.0000 142.5000 105.0000 Du        
   4810 ****       130.0000 142.5000 105.2500 Du        
   4811 ****       130.0000 142.5000 105.5000 Du        
   4812 ****       130.0000 142.5000 105.7500 Du        
   4813 ****       130.0000 142.5000 106.0000 Du        
   4814 ****       130.0000 142.7500 102.0000 Du        
   4815 ****       130.0000 142.7500 102.2500 Du        
   4816 ****       130.0000 142.7500 102.5000 Du        
   4817 ****       130.0000 142.7500 102.7500 Du        
   4818 ****       130.0000 142.7500 103.0000 Du        
   4819 ****       130.0000 142.7500 103.2500 Du        
   4820 ****       130.0000 142.7500 103.5000 Du        
   4821 ****       130.0000 142.7500 103.7500 Du        
   4822 ****       130.0000 142.7500 104.0000 Du        
   4823 ****       130.0000 143.0000 101.7500 Du        
   4824 ****       130.0000 143.0000 102.0000 Du        
   4825 ****       130.0000 143.0000 102.2500 Du        
   4826 ****       130.0000 143.0000 102.5000 Du        
   4827 ****       130.0000 143.0000 102.7500 Du        
   4828 ****       130.0000 143.0000 103.0000 Du        
   4829 ****       130.0000 143.2500  99.0000 Du        
   4830 ****       130.0000 143.2500  99.2500 Du        
   4831 ****       130.0000 143.2500  99.5000 Du        
   4832 ****       130.0000 143.2500  99.7500 Du        
   4833 ****       130.0000 143.2500 100.2500 Du        
   4834 ****       130.0000 143.2500 102.0000 Du        
   4835 ****       130.0000 143.2500 102.2500 Du        
   4836 ****       130.0000 143.2500 102.5000 Du        
   4837 ****       130.0000 143.5000  98.5000 Du        
   4838 ****       130.0000 143.5000  98.7500 Du        
   4839 ****       130.0000 143.5000  99.0000 Du        
   4840 ****       130.0000 143.5000  99.2500 Du        
   4841 ****       130.0000 143.5000  99.5000 Du        
   4842 ****       130.0000 143.5000  99.7500 Du        
   4843 ****       130.0000 143.5000 100.0000 Du        
   4844 ****       130.0000 143.5000 100.2500 Du        
   4845 ****       130.0000 143.5000 100.5000 Du        
   4846 ****       130.0000 143.5000 102.0000 Du        
   4847 ****       130.0000 143.7500  98.7500 Du        
   4848 ****       130.0000 143.7500  99.0000 Du        
   4849 ****       130.0000 143.7500  99.2500 Du        
   4850 ****       130.0000 143.7500  99.5000 Du        
   4851 ****       130.0000 143.7500  99.7500 Du        
   4852 ****       130.0000 143.7500 100.0000 Du        
   4853 ****       130.0000 143.7500 100.2500 Du        
   4854 ****       130.0000 143.7500 100.5000 Du        
   4855 ****       130.0000 143.7500 100.7500 Du        
   4856 ****       130.0000 144.0000  99.0000 Du        
   4857 ****       130.0000 144.0000  99.2500 Du        
   4858 ****       130.0000 144.0000  99.5000 Du        
   4859 ****       130.0000 144.0000  99.7500 Du        
   4860 ****       130.0000 144.0000 100.0000 Du        
   4861 ****       130.0000 144.0000 100.2500 Du        
   4862 ****       130.0000 144.0000 100.5000 Du        
   4863 ****       130.0000 144.2500  99.2500 Du        
   4864 ****       130.0000 144.2500  99.5000 Du        
   4865 ****       130.0000 144.2500  99.7500 Du        
   4866 ****       130.0000 144.2500 100.0000 Du        
   4867 ****       130.0000 144.2500 100.2500 Du        
   4868 ****       130.0000 144.2500 100.5000 Du        
   4869 ****       130.0000 144.5000  99.5000 Du        
   4870 ****       130.0000 144.5000  99.7500 Du        
   4871 ****       130.0000 144.5000 100.0000 Du        
   4872 ****       130.0000 144.5000 100.2500 Du        
   4873 ****       130.0000 144.5000 100.5000 Du        
   4874 ****       130.0000 144.7500  99.7500 Du        
   4875 ****       130.0000 144.7500 100.0000 Du        
   4876 ****       130.0000 144.7500 100.2500 Du        
   4877 ****       130.0000 145.0000  99.7500 Du        
   4878 ****       130.0000 145.0000 100.0000 Du        
   4879 ****       130.0000 145.0000 100.2500 Du        
   4880 ****       130.0000 145.2500 100.0000 Du        
   4881 ****       130.0000 145.2500 100.2500 Du        
   4882 ****       130.2500 135.2500  84.7500 Du        
   4883 ****       130.2500 135.2500  85.0000 Du        
   4884 ****       130.2500 135.2500  85.2500 Du        
   4885 ****       130.2500 135.5000  84.7500 Du        
   4886 ****       130.2500 135.5000  85.0000 Du        
   4887 ****       130.2500 135.5000  85.2500 Du        
   4888 ****       130.2500 135.5000  85.5000 Du        
   4889 ****       130.2500 135.7500  84.7500 Du        
   4890 ****       130.2500 135.7500  85.0000 Du        
   4891 ****       130.2500 135.7500  85.2500 Du        
   4892 ****       130.2500 135.7500  85.5000 Du        
   4893 ****       130.2500 136.0000  84.7500 Du        
   4894 ****       130.2500 136.0000  85.0000 Du        
   4895 ****       130.2500 136.0000  85.2500 Du        
   4896 ****       130.2500 136.0000  85.5000 Du        
   4897 ****       130.2500 136.2500  85.0000 Du        
   4898 ****       130.2500 136.2500  85.2500 Du        
   4899 ****       130.2500 136.2500  85.5000 Du        
   4900 ****       130.2500 139.2500 104.2500 Du        
   4901 ****       130.2500 139.2500 104.5000 Du        
   4902 ****       130.2500 139.2500 104.7500 Du        
   4903 ****       130.2500 139.2500 105.0000 Du        
   4904 ****       130.2500 139.2500 105.2500 Du        
   4905 ****       130.2500 139.2500 105.5000 Du        
   4906 ****       130.2500 139.5000 104.0000 Du        
   4907 ****       130.2500 139.5000 104.2500 Du        
   4908 ****       130.2500 139.5000 104.5000 Du        
   4909 ****       130.2500 139.5000 104.7500 Du        
   4910 ****       130.2500 139.5000 105.0000 Du        
   4911 ****       130.2500 139.5000 105.2500 Du        
   4912 ****       130.2500 139.5000 105.5000 Du        
   4913 ****       130.2500 139.5000 105.7500 Du        
   4914 ****       130.2500 139.7500 103.7500 Du        
   4915 ****       130.2500 139.7500 104.0000 Du        
   4916 ****       130.2500 139.7500 104.2500 Du        
   4917 ****       130.2500 139.7500 104.5000 Du        
   4918 ****       130.2500 139.7500 104.7500 Du        
   4919 ****       130.2500 139.7500 105.0000 Du        
   4920 ****       130.2500 139.7500 105.2500 Du        
   4921 ****       130.2500 139.7500 105.5000 Du        
   4922 ****       130.2500 139.7500 105.7500 Du        
   4923 ****       130.2500 140.0000 103.5000 Du        
   4924 ****       130.2500 140.0000 103.7500 Du        
   4925 ****       130.2500 140.0000 104.0000 Du        
   4926 ****       130.2500 140.0000 104.2500 Du        
   4927 ****       130.2500 140.0000 104.5000 Du        
   4928 ****       130.2500 140.0000 104.7500 Du        
   4929 ****       130.2500 140.0000 105.0000 Du        
   4930 ****       130.2500 140.0000 105.2500 Du        
   4931 ****       130.2500 140.0000 105.5000 Du        
   4932 ****       130.2500 140.0000 105.7500 Du        
   4933 ****       130.2500 140.2500 103.2500 Du        
   4934 ****       130.2500 140.2500 103.5000 Du        
   4935 ****       130.2500 140.2500 103.7500 Du        
   4936 ****       130.2500 140.2500 104.0000 Du        
   4937 ****       130.2500 140.2500 104.2500 Du        
   4938 ****       130.2500 140.2500 104.5000 Du        
   4939 ****       130.2500 140.2500 104.7500 Du        
   4940 ****       130.2500 140.2500 105.0000 Du        
   4941 ****       130.2500 140.2500 105.2500 Du        
   4942 ****       130.2500 140.2500 105.5000 Du        
   4943 ****       130.2500 140.2500 105.7500 Du        
   4944 ****       130.2500 140.2500 106.0000 Du        
   4945 ****       130.2500 140.5000 103.0000 Du        
   4946 ****       130.2500 140.5000 103.2500 Du        
   4947 ****       130.2500 140.5000 103.5000 Du        
   4948 ****       130.2500 140.5000 103.7500 Du        
   4949 ****       130.2500 140.5000 104.0000 Du        
   4950 ****       130.2500 140.5000 104.2500 Du        
   4951 ****       130.2500 140.5000 104.5000 Du        
   4952 ****       130.2500 140.5000 104.7500 Du        
   4953 ****       130.2500 140.5000 105.0000 Du        
   4954 ****       130.2500 140.5000 105.2500 Du        
   4955 ****       130.2500 140.5000 105.5000 Du        
   4956 ****       130.2500 140.5000 105.7500 Du        
   4957 ****       130.2500 140.7500 102.7500 Du        
   4958 ****       130.2500 140.7500 103.0000 Du        
   4959 ****       130.2500 140.7500 103.2500 Du        
   4960 ****       130.2500 140.7500 103.5000 Du        
   4961 ****       130.2500 140.7500 103.7500 Du        
   4962 ****       130.2500 140.7500 104.0000 Du        
   4963 ****       130.2500 140.7500 104.2500 Du        
   4964 ****       130.2500 140.7500 104.5000 Du        
   4965 ****       130.2500 140.7500 104.7500 Du        
   4966 ****       130.2500 140.7500 105.0000 Du        
   4967 ****       130.2500 140.7500 105.2500 Du        
   4968 ****       130.2500 140.7500 105.5000 Du        
   4969 ****       130.2500 140.7500 105.7500 Du        
   4970 ****       130.2500 140.7500 106.0000 Du        
   4971 ****       130.2500 141.0000 102.5000 Du        
   4972 ****       130.2500 141.0000 102.7500 Du        
   4973 ****       130.2500 141.0000 103.0000 Du        
   4974 ****       130.2500 141.0000 103.2500 Du        
   4975 ****       130.2500 141.0000 103.5000 Du        
   4976 ****       130.2500 141.0000 103.7500 Du        
   4977 ****       130.2500 141.0000 104.0000 Du        
   4978 ****       130.2500 141.0000 104.2500 Du        
   4979 ****       130.2500 141.0000 104.5000 Du        
   4980 ****       130.2500 141.0000 104.7500 Du        
   4981 ****       130.2500 141.0000 105.0000 Du        
   4982 ****       130.2500 141.0000 105.2500 Du        
   4983 ****       130.2500 141.0000 105.5000 Du        
   4984 ****       130.2500 141.0000 105.7500 Du        
   4985 ****       130.2500 141.0000 106.0000 Du        
   4986 ****       130.2500 141.2500 102.5000 Du        
   4987 ****       130.2500 141.2500 102.7500 Du        
   4988 ****       130.2500 141.2500 103.0000 Du        
   4989 ****       130.2500 141.2500 103.2500 Du        
   4990 ****       130.2500 141.2500 103.5000 Du        
   4991 ****       130.2500 141.2500 103.7500 Du        
   4992 ****       130.2500 141.2500 104.0000 Du        
   4993 ****       130.2500 141.2500 104.2500 Du        
   4994 ****       130.2500 141.2500 104.5000 Du        
   4995 ****       130.2500 141.2500 104.7500 Du        
   4996 ****       130.2500 141.2500 105.0000 Du        
   4997 ****       130.2500 141.2500 105.2500 Du        
   4998 ****       130.2500 141.2500 105.5000 Du        
   4999 ****       130.2500 141.2500 105.7500 Du        
   5000 ****       130.2500 141.2500 106.0000 Du        
   5001 ****       130.2500 141.5000 102.2500 Du        
   5002 ****       130.2500 141.5000 102.5000 Du        
   5003 ****       130.2500 141.5000 102.7500 Du        
   5004 ****       130.2500 141.5000 103.0000 Du        
   5005 ****       130.2500 141.5000 103.2500 Du        
   5006 ****       130.2500 141.5000 103.5000 Du        
   5007 ****       130.2500 141.5000 103.7500 Du        
   5008 ****       130.2500 141.5000 104.0000 Du        
   5009 ****       130.2500 141.5000 104.2500 Du        
   5010 ****       130.2500 141.5000 104.5000 Du        
   5011 ****       130.2500 141.5000 104.7500 Du        
   5012 ****       130.2500 141.5000 105.0000 Du        
   5013 ****       130.2500 141.5000 105.2500 Du        
   5014 ****       130.2500 141.5000 105.5000 Du        
   5015 ****       130.2500 141.5000 105.7500 Du        
   5016 ****       130.2500 141.5000 106.0000 Du        
   5017 ****       130.2500 141.7500 102.2500 Du        
   5018 ****       130.2500 141.7500 102.5000 Du        
   5019 ****       130.2500 141.7500 102.7500 Du        
   5020 ****       130.2500 141.7500 103.0000 Du        
   5021 ****       130.2500 141.7500 103.2500 Du        
   5022 ****       130.2500 141.7500 103.5000 Du        
   5023 ****       130.2500 141.7500 103.7500 Du        
   5024 ****       130.2500 141.7500 104.0000 Du        
   5025 ****       130.2500 141.7500 104.2500 Du        
   5026 ****       130.2500 141.7500 104.5000 Du        
   5027 ****       130.2500 141.7500 104.7500 Du        
   5028 ****       130.2500 141.7500 105.0000 Du        
   5029 ****       130.2500 141.7500 105.2500 Du        
   5030 ****       130.2500 141.7500 105.5000 Du        
   5031 ****       130.2500 141.7500 105.7500 Du        
   5032 ****       130.2500 141.7500 106.0000 Du        
   5033 ****       130.2500 142.0000 102.2500 Du        
   5034 ****       130.2500 142.0000 102.5000 Du        
   5035 ****       130.2500 142.0000 102.7500 Du        
   5036 ****       130.2500 142.0000 103.0000 Du        
   5037 ****       130.2500 142.0000 103.2500 Du        
   5038 ****       130.2500 142.0000 103.5000 Du        
   5039 ****       130.2500 142.0000 103.7500 Du        
   5040 ****       130.2500 142.0000 104.0000 Du        
   5041 ****       130.2500 142.0000 104.2500 Du        
   5042 ****       130.2500 142.0000 104.5000 Du        
   5043 ****       130.2500 142.0000 104.7500 Du        
   5044 ****       130.2500 142.0000 105.0000 Du        
   5045 ****       130.2500 142.0000 105.2500 Du        
   5046 ****       130.2500 142.0000 105.5000 Du        
   5047 ****       130.2500 142.0000 105.7500 Du        
   5048 ****       130.2500 142.0000 106.0000 Du        
   5049 ****       130.2500 142.2500 102.2500 Du        
   5050 ****       130.2500 142.2500 102.5000 Du        
   5051 ****       130.2500 142.2500 102.7500 Du        
   5052 ****       130.2500 142.2500 103.0000 Du        
   5053 ****       130.2500 142.2500 103.2500 Du        
   5054 ****       130.2500 142.2500 103.5000 Du        
   5055 ****       130.2500 142.2500 103.7500 Du        
   5056 ****       130.2500 142.2500 104.0000 Du        
   5057 ****       130.2500 142.2500 104.2500 Du        
   5058 ****       130.2500 142.2500 104.5000 Du        
   5059 ****       130.2500 142.2500 104.7500 Du        
   5060 ****       130.2500 142.2500 105.0000 Du        
   5061 ****       130.2500 142.2500 105.2500 Du        
   5062 ****       130.2500 142.2500 105.5000 Du        
   5063 ****       130.2500 142.2500 105.7500 Du        
   5064 ****       130.2500 142.2500 106.0000 Du        
   5065 ****       130.2500 142.5000 102.0000 Du        
   5066 ****       130.2500 142.5000 102.2500 Du        
   5067 ****       130.2500 142.5000 102.5000 Du        
   5068 ****       130.2500 142.5000 102.7500 Du        
   5069 ****       130.2500 142.5000 103.0000 Du        
   5070 ****       130.2500 142.5000 103.2500 Du        
   5071 ****       130.2500 142.5000 103.5000 Du        
   5072 ****       130.2500 142.5000 103.7500 Du        
   5073 ****       130.2500 142.5000 104.0000 Du        
   5074 ****       130.2500 142.5000 104.2500 Du        
   5075 ****       130.2500 142.5000 104.5000 Du        
   5076 ****       130.2500 142.5000 104.7500 Du        
   5077 ****       130.2500 142.5000 105.0000 Du        
   5078 ****       130.2500 142.5000 105.2500 Du        
   5079 ****       130.2500 142.5000 105.5000 Du        
   5080 ****       130.2500 142.5000 105.7500 Du        
   5081 ****       130.2500 142.5000 106.0000 Du        
   5082 ****       130.2500 142.7500 101.7500 Du        
   5083 ****       130.2500 142.7500 102.0000 Du        
   5084 ****       130.2500 142.7500 102.2500 Du        
   5085 ****       130.2500 142.7500 102.5000 Du        
   5086 ****       130.2500 142.7500 102.7500 Du        
   5087 ****       130.2500 142.7500 103.0000 Du        
   5088 ****       130.2500 142.7500 103.2500 Du        
   5089 ****       130.2500 142.7500 103.5000 Du        
   5090 ****       130.2500 142.7500 103.7500 Du        
   5091 ****       130.2500 142.7500 104.0000 Du        
   5092 ****       130.2500 142.7500 104.2500 Du        
   5093 ****       130.2500 142.7500 104.5000 Du        
   5094 ****       130.2500 142.7500 104.7500 Du        
   5095 ****       130.2500 142.7500 105.0000 Du        
   5096 ****       130.2500 142.7500 105.2500 Du        
   5097 ****       130.2500 142.7500 105.5000 Du        
   5098 ****       130.2500 142.7500 105.7500 Du        
   5099 ****       130.2500 142.7500 106.0000 Du        
   5100 ****       130.2500 143.0000 101.7500 Du        
   5101 ****       130.2500 143.0000 102.0000 Du        
   5102 ****       130.2500 143.0000 102.2500 Du        
   5103 ****       130.2500 143.0000 102.5000 Du        
   5104 ****       130.2500 143.0000 102.7500 Du        
   5105 ****       130.2500 143.0000 103.0000 Du        
   5106 ****       130.2500 143.0000 103.2500 Du        
   5107 ****       130.2500 143.0000 103.5000 Du        
   5108 ****       130.2500 143.2500  98.7500 Du        
   5109 ****       130.2500 143.2500  99.0000 Du        
   5110 ****       130.2500 143.2500  99.2500 Du        
   5111 ****       130.2500 143.2500  99.7500 Du        
   5112 ****       130.2500 143.2500 100.0000 Du        
   5113 ****       130.2500 143.2500 100.2500 Du        
   5114 ****       130.2500 143.2500 102.0000 Du        
   5115 ****       130.2500 143.2500 102.2500 Du        
   5116 ****       130.2500 143.2500 102.5000 Du        
   5117 ****       130.2500 143.2500 102.7500 Du        
   5118 ****       130.2500 143.5000  98.5000 Du        
   5119 ****       130.2500 143.5000  98.7500 Du        
   5120 ****       130.2500 143.5000  99.0000 Du        
   5121 ****       130.2500 143.5000  99.2500 Du        
   5122 ****       130.2500 143.5000  99.5000 Du        
   5123 ****       130.2500 143.5000  99.7500 Du        
   5124 ****       130.2500 143.5000 100.0000 Du        
   5125 ****       130.2500 143.7500  98.7500 Du        
   5126 ****       130.2500 143.7500  99.0000 Du        
   5127 ****       130.2500 143.7500  99.2500 Du        
   5128 ****       130.2500 143.7500  99.5000 Du        
   5129 ****       130.2500 143.7500  99.7500 Du        
   5130 ****       130.2500 143.7500 100.0000 Du        
   5131 ****       130.2500 143.7500 100.2500 Du        
   5132 ****       130.2500 144.0000  99.0000 Du        
   5133 ****       130.2500 144.0000  99.2500 Du        
   5134 ****       130.2500 144.0000  99.5000 Du        
   5135 ****       130.2500 144.0000  99.7500 Du        
   5136 ****       130.2500 144.0000 100.0000 Du        
   5137 ****       130.2500 144.0000 100.2500 Du        
   5138 ****       130.2500 144.2500  99.2500 Du        
   5139 ****       130.2500 144.2500  99.5000 Du        
   5140 ****       130.2500 144.2500  99.7500 Du        
   5141 ****       130.2500 144.2500 100.0000 Du        
   5142 ****       130.2500 144.5000  99.5000 Du        
   5143 ****       130.2500 144.5000  99.7500 Du        
   5144 ****       130.2500 144.5000 100.0000 Du        
   5145 ****       130.2500 144.7500  99.7500 Du        
   5146 ****       130.2500 144.7500 100.0000 Du        
   5147 ****       130.2500 145.0000  99.7500 Du        
   5148 ****       130.5000 135.5000  84.7500 Du        
   5149 ****       130.5000 135.5000  85.0000 Du        
   5150 ****       130.5000 135.5000  85.2500 Du        
   5151 ****       130.5000 135.7500  84.7500 Du        
   5152 ****       130.5000 135.7500  85.0000 Du        
   5153 ****       130.5000 135.7500  85.2500 Du        
   5154 ****       130.5000 135.7500  85.5000 Du        
   5155 ****       130.5000 136.0000  84.7500 Du        
   5156 ****       130.5000 136.0000  85.0000 Du        
   5157 ****       130.5000 136.0000  85.2500 Du        
   5158 ****       130.5000 136.0000  85.5000 Du        
   5159 ****       130.5000 136.2500  85.0000 Du        
   5160 ****       130.5000 136.2500  85.2500 Du        
   5161 ****       130.5000 136.2500  85.5000 Du        
   5162 ****       130.5000 139.2500 104.2500 Du        
   5163 ****       130.5000 139.2500 104.5000 Du        
   5164 ****       130.5000 139.2500 104.7500 Du        
   5165 ****       130.5000 139.2500 105.0000 Du        
   5166 ****       130.5000 139.2500 105.2500 Du        
   5167 ****       130.5000 139.5000 104.0000 Du        
   5168 ****       130.5000 139.5000 104.2500 Du        
   5169 ****       130.5000 139.5000 104.5000 Du        
   5170 ****       130.5000 139.5000 104.7500 Du        
   5171 ****       130.5000 139.5000 105.0000 Du        
   5172 ****       130.5000 139.5000 105.2500 Du        
   5173 ****       130.5000 139.5000 105.5000 Du        
   5174 ****       130.5000 139.5000 105.7500 Du        
   5175 ****       130.5000 139.7500 103.7500 Du        
   5176 ****       130.5000 139.7500 104.0000 Du        
   5177 ****       130.5000 139.7500 104.2500 Du        
   5178 ****       130.5000 139.7500 104.5000 Du        
   5179 ****       130.5000 139.7500 104.7500 Du        
   5180 ****       130.5000 139.7500 105.0000 Du        
   5181 ****       130.5000 139.7500 105.2500 Du        
   5182 ****       130.5000 139.7500 105.5000 Du        
   5183 ****       130.5000 139.7500 105.7500 Du        
   5184 ****       130.5000 139.7500 106.0000 Du        
   5185 ****       130.5000 140.0000 103.5000 Du        
   5186 ****       130.5000 140.0000 103.7500 Du        
   5187 ****       130.5000 140.0000 104.0000 Du        
   5188 ****       130.5000 140.0000 104.2500 Du        
   5189 ****       130.5000 140.0000 104.5000 Du        
   5190 ****       130.5000 140.0000 104.7500 Du        
   5191 ****       130.5000 140.0000 105.0000 Du        
   5192 ****       130.5000 140.0000 105.2500 Du        
   5193 ****       130.5000 140.0000 105.5000 Du        
   5194 ****       130.5000 140.0000 105.7500 Du        
   5195 ****       130.5000 140.0000 106.0000 Du        
   5196 ****       130.5000 140.2500 103.2500 Du        
   5197 ****       130.5000 140.2500 103.5000 Du        
   5198 ****       130.5000 140.2500 103.7500 Du        
   5199 ****       130.5000 140.2500 104.0000 Du        
   5200 ****       130.5000 140.2500 104.2500 Du        
   5201 ****       130.5000 140.2500 104.5000 Du        
   5202 ****       130.5000 140.2500 104.7500 Du        
   5203 ****       130.5000 140.2500 105.0000 Du        
   5204 ****       130.5000 140.2500 105.2500 Du        
   5205 ****       130.5000 140.2500 105.5000 Du        
   5206 ****       130.5000 140.2500 105.7500 Du        
   5207 ****       130.5000 140.2500 106.0000 Du        
   5208 ****       130.5000 140.5000 103.0000 Du        
   5209 ****       130.5000 140.5000 103.2500 Du        
   5210 ****       130.5000 140.5000 103.5000 Du        
   5211 ****       130.5000 140.5000 103.7500 Du        
   5212 ****       130.5000 140.5000 104.0000 Du        
   5213 ****       130.5000 140.5000 104.2500 Du        
   5214 ****       130.5000 140.5000 104.5000 Du        
   5215 ****       130.5000 140.5000 104.7500 Du        
   5216 ****       130.5000 140.5000 105.0000 Du        
   5217 ****       130.5000 140.5000 105.2500 Du        
   5218 ****       130.5000 140.5000 105.5000 Du        
   5219 ****       130.5000 140.5000 105.7500 Du        
   5220 ****       130.5000 140.5000 106.0000 Du        
   5221 ****       130.5000 140.7500 102.7500 Du        
   5222 ****       130.5000 140.7500 103.0000 Du        
   5223 ****       130.5000 140.7500 103.2500 Du        
   5224 ****       130.5000 140.7500 103.5000 Du        
   5225 ****       130.5000 140.7500 103.7500 Du        
   5226 ****       130.5000 140.7500 104.0000 Du        
   5227 ****       130.5000 140.7500 104.2500 Du        
   5228 ****       130.5000 140.7500 104.5000 Du        
   5229 ****       130.5000 140.7500 104.7500 Du        
   5230 ****       130.5000 140.7500 105.0000 Du        
   5231 ****       130.5000 140.7500 105.2500 Du        
   5232 ****       130.5000 140.7500 105.5000 Du        
   5233 ****       130.5000 140.7500 105.7500 Du        
   5234 ****       130.5000 140.7500 106.0000 Du        
   5235 ****       130.5000 141.0000 102.5000 Du        
   5236 ****       130.5000 141.0000 102.7500 Du        
   5237 ****       130.5000 141.0000 103.0000 Du        
   5238 ****       130.5000 141.0000 103.2500 Du        
   5239 ****       130.5000 141.0000 103.5000 Du        
   5240 ****       130.5000 141.0000 103.7500 Du        
   5241 ****       130.5000 141.0000 104.0000 Du        
   5242 ****       130.5000 141.0000 104.2500 Du        
   5243 ****       130.5000 141.0000 104.5000 Du        
   5244 ****       130.5000 141.0000 104.7500 Du        
   5245 ****       130.5000 141.0000 105.0000 Du        
   5246 ****       130.5000 141.0000 105.2500 Du        
   5247 ****       130.5000 141.0000 105.5000 Du        
   5248 ****       130.5000 141.0000 105.7500 Du        
   5249 ****       130.5000 141.2500 102.5000 Du        
   5250 ****       130.5000 141.2500 102.7500 Du        
   5251 ****       130.5000 141.2500 103.0000 Du        
   5252 ****       130.5000 141.2500 103.2500 Du        
   5253 ****       130.5000 141.2500 103.5000 Du        
   5254 ****       130.5000 141.2500 103.7500 Du        
   5255 ****       130.5000 141.2500 104.0000 Du        
   5256 ****       130.5000 141.2500 104.2500 Du        
   5257 ****       130.5000 141.2500 104.5000 Du        
   5258 ****       130.5000 141.2500 104.7500 Du        
   5259 ****       130.5000 141.2500 105.0000 Du        
   5260 ****       130.5000 141.2500 105.2500 Du        
   5261 ****       130.5000 141.2500 105.5000 Du        
   5262 ****       130.5000 141.2500 105.7500 Du        
   5263 ****       130.5000 141.5000 102.5000 Du        
   5264 ****       130.5000 141.5000 102.7500 Du        
   5265 ****       130.5000 141.5000 103.0000 Du        
   5266 ****       130.5000 141.5000 103.2500 Du        
   5267 ****       130.5000 141.5000 103.5000 Du        
   5268 ****       130.5000 141.5000 103.7500 Du        
   5269 ****       130.5000 141.5000 104.0000 Du        
   5270 ****       130.5000 141.5000 104.2500 Du        
   5271 ****       130.5000 141.5000 104.5000 Du        
   5272 ****       130.5000 141.5000 104.7500 Du        
   5273 ****       130.5000 141.5000 105.0000 Du        
   5274 ****       130.5000 141.5000 105.2500 Du        
   5275 ****       130.5000 141.5000 105.5000 Du        
   5276 ****       130.5000 141.7500 102.5000 Du        
   5277 ****       130.5000 141.7500 102.7500 Du        
   5278 ****       130.5000 141.7500 103.0000 Du        
   5279 ****       130.5000 141.7500 103.2500 Du        
   5280 ****       130.5000 141.7500 103.5000 Du        
   5281 ****       130.5000 141.7500 103.7500 Du        
   5282 ****       130.5000 141.7500 104.0000 Du        
   5283 ****       130.5000 141.7500 104.2500 Du        
   5284 ****       130.5000 141.7500 104.5000 Du        
   5285 ****       130.5000 141.7500 104.7500 Du        
   5286 ****       130.5000 141.7500 105.0000 Du        
   5287 ****       130.5000 141.7500 105.2500 Du        
   5288 ****       130.5000 141.7500 105.5000 Du        
   5289 ****       130.5000 142.0000 102.5000 Du        
   5290 ****       130.5000 142.0000 102.7500 Du        
   5291 ****       130.5000 142.0000 103.0000 Du        
   5292 ****       130.5000 142.0000 103.2500 Du        
   5293 ****       130.5000 142.0000 103.5000 Du        
   5294 ****       130.5000 142.0000 103.7500 Du        
   5295 ****       130.5000 142.0000 104.0000 Du        
   5296 ****       130.5000 142.0000 104.2500 Du        
   5297 ****       130.5000 142.0000 104.5000 Du        
   5298 ****       130.5000 142.0000 104.7500 Du        
   5299 ****       130.5000 142.0000 105.0000 Du        
   5300 ****       130.5000 142.0000 105.2500 Du        
   5301 ****       130.5000 142.0000 105.5000 Du        
   5302 ****       130.5000 142.2500 102.5000 Du        
   5303 ****       130.5000 142.2500 102.7500 Du        
   5304 ****       130.5000 142.2500 103.0000 Du        
   5305 ****       130.5000 142.2500 103.2500 Du        
   5306 ****       130.5000 142.2500 103.5000 Du        
   5307 ****       130.5000 142.2500 103.7500 Du        
   5308 ****       130.5000 142.2500 104.0000 Du        
   5309 ****       130.5000 142.2500 104.2500 Du        
   5310 ****       130.5000 142.2500 104.5000 Du        
   5311 ****       130.5000 142.2500 104.7500 Du        
   5312 ****       130.5000 142.2500 105.0000 Du        
   5313 ****       130.5000 142.2500 105.2500 Du        
   5314 ****       130.5000 142.2500 105.5000 Du        
   5315 ****       130.5000 142.5000 102.5000 Du        
   5316 ****       130.5000 142.5000 102.7500 Du        
   5317 ****       130.5000 142.5000 103.0000 Du        
   5318 ****       130.5000 142.5000 103.2500 Du        
   5319 ****       130.5000 142.5000 103.5000 Du        
   5320 ****       130.5000 142.5000 103.7500 Du        
   5321 ****       130.5000 142.5000 104.0000 Du        
   5322 ****       130.5000 142.5000 104.2500 Du        
   5323 ****       130.5000 142.5000 104.5000 Du        
   5324 ****       130.5000 142.5000 104.7500 Du        
   5325 ****       130.5000 142.5000 105.0000 Du        
   5326 ****       130.5000 142.5000 105.2500 Du        
   5327 ****       130.5000 142.7500 102.2500 Du        
   5328 ****       130.5000 142.7500 102.5000 Du        
   5329 ****       130.5000 142.7500 102.7500 Du        
   5330 ****       130.5000 142.7500 103.0000 Du        
   5331 ****       130.5000 142.7500 103.2500 Du        
   5332 ****       130.5000 142.7500 103.5000 Du        
   5333 ****       130.5000 142.7500 103.7500 Du        
   5334 ****       130.5000 142.7500 104.0000 Du        
   5335 ****       130.5000 142.7500 104.2500 Du        
   5336 ****       130.5000 142.7500 104.5000 Du        
   5337 ****       130.5000 142.7500 104.7500 Du        
   5338 ****       130.5000 143.0000  99.2500 Du        
   5339 ****       130.5000 143.0000 102.0000 Du        
   5340 ****       130.5000 143.0000 102.2500 Du        
   5341 ****       130.5000 143.0000 102.5000 Du        
   5342 ****       130.5000 143.0000 102.7500 Du        
   5343 ****       130.5000 143.0000 103.0000 Du        
   5344 ****       130.5000 143.0000 103.2500 Du        
   5345 ****       130.5000 143.0000 103.5000 Du        
   5346 ****       130.5000 143.0000 103.7500 Du        
   5347 ****       130.5000 143.2500  98.7500 Du        
   5348 ****       130.5000 143.2500  99.0000 Du        
   5349 ****       130.5000 143.2500  99.2500 Du        
   5350 ****       130.5000 143.2500 102.7500 Du        
   5351 ****       130.5000 143.5000  98.2500 Du        
   5352 ****       130.5000 143.5000  98.5000 Du        
   5353 ****       130.5000 143.5000  98.7500 Du        
   5354 ****       130.5000 143.5000  99.0000 Du        
   5355 ****       130.5000 143.5000  99.2500 Du        
   5356 ****       130.5000 143.5000  99.5000 Du        
   5357 ****       130.5000 143.5000  99.7500 Du        
   5358 ****       130.5000 143.7500  98.7500 Du        
   5359 ****       130.5000 143.7500  99.0000 Du        
   5360 ****       130.5000 143.7500  99.2500 Du        
   5361 ****       130.5000 143.7500  99.5000 Du        
   5362 ****       130.5000 143.7500  99.7500 Du        
   5363 ****       130.5000 143.7500 100.0000 Du        
   5364 ****       130.5000 144.0000  99.0000 Du        
   5365 ****       130.5000 144.0000  99.2500 Du        
   5366 ****       130.5000 144.0000  99.5000 Du        
   5367 ****       130.5000 144.0000  99.7500 Du        
   5368 ****       130.5000 144.2500  99.2500 Du        
   5369 ****       130.5000 144.2500  99.5000 Du        
   5370 ****       130.5000 144.2500  99.7500 Du        
   5371 ****       130.5000 144.5000  99.2500 Du        
   5372 ****       130.5000 144.5000  99.5000 Du        
   5373 ****       130.5000 144.5000  99.7500 Du        
   5374 ****       130.5000 144.7500  99.5000 Du        
   5375 ****       130.7500 135.5000  84.7500 Du        
   5376 ****       130.7500 135.7500  84.7500 Du        
   5377 ****       130.7500 135.7500  85.0000 Du        
   5378 ****       130.7500 135.7500  85.2500 Du        
   5379 ****       130.7500 135.7500  85.5000 Du        
   5380 ****       130.7500 136.0000  84.7500 Du        
   5381 ****       130.7500 136.0000  85.0000 Du        
   5382 ****       130.7500 136.0000  85.2500 Du        
   5383 ****       130.7500 136.0000  85.5000 Du        
   5384 ****       130.7500 136.2500  85.0000 Du        
   5385 ****       130.7500 136.2500  85.2500 Du        
   5386 ****       130.7500 136.2500  85.5000 Du        
   5387 ****       130.7500 136.2500  85.7500 Du        
   5388 ****       130.7500 138.2500  96.5000 Du        
   5389 ****       130.7500 138.2500  96.7500 Du        
   5390 ****       130.7500 139.2500 104.2500 Du        
   5391 ****       130.7500 139.2500 104.5000 Du        
   5392 ****       130.7500 139.2500 104.7500 Du        
   5393 ****       130.7500 139.2500 105.0000 Du        
   5394 ****       130.7500 139.2500 105.2500 Du        
   5395 ****       130.7500 139.5000 104.0000 Du        
   5396 ****       130.7500 139.5000 104.2500 Du        
   5397 ****       130.7500 139.5000 104.5000 Du        
   5398 ****       130.7500 139.5000 104.7500 Du        
   5399 ****       130.7500 139.5000 105.0000 Du        
   5400 ****       130.7500 139.5000 105.2500 Du        
   5401 ****       130.7500 139.5000 105.5000 Du        
   5402 ****       130.7500 139.5000 105.7500 Du        
   5403 ****       130.7500 139.5000 106.0000 Du        
   5404 ****       130.7500 139.7500 103.7500 Du        
   5405 ****       130.7500 139.7500 104.0000 Du        
   5406 ****       130.7500 139.7500 104.2500 Du        
   5407 ****       130.7500 139.7500 104.5000 Du        
   5408 ****       130.7500 139.7500 104.7500 Du        
   5409 ****       130.7500 139.7500 105.0000 Du        
   5410 ****       130.7500 139.7500 105.2500 Du        
   5411 ****       130.7500 139.7500 105.5000 Du        
   5412 ****       130.7500 139.7500 105.7500 Du        
   5413 ****       130.7500 139.7500 106.0000 Du        
   5414 ****       130.7500 140.0000 103.5000 Du        
   5415 ****       130.7500 140.0000 103.7500 Du        
   5416 ****       130.7500 140.0000 104.0000 Du        
   5417 ****       130.7500 140.0000 104.2500 Du        
   5418 ****       130.7500 140.0000 104.5000 Du        
   5419 ****       130.7500 140.0000 104.7500 Du        
   5420 ****       130.7500 140.0000 105.0000 Du        
   5421 ****       130.7500 140.0000 105.2500 Du        
   5422 ****       130.7500 140.0000 105.5000 Du        
   5423 ****       130.7500 140.0000 105.7500 Du        
   5424 ****       130.7500 140.0000 106.0000 Du        
   5425 ****       130.7500 140.2500 103.2500 Du        
   5426 ****       130.7500 140.2500 103.5000 Du        
   5427 ****       130.7500 140.2500 103.7500 Du        
   5428 ****       130.7500 140.2500 104.0000 Du        
   5429 ****       130.7500 140.2500 104.2500 Du        
   5430 ****       130.7500 140.2500 104.5000 Du        
   5431 ****       130.7500 140.2500 104.7500 Du        
   5432 ****       130.7500 140.2500 105.0000 Du        
   5433 ****       130.7500 140.2500 105.2500 Du        
   5434 ****       130.7500 140.2500 105.5000 Du        
   5435 ****       130.7500 140.2500 105.7500 Du        
   5436 ****       130.7500 140.2500 106.0000 Du        
   5437 ****       130.7500 140.5000 103.0000 Du        
   5438 ****       130.7500 140.5000 103.2500 Du        
   5439 ****       130.7500 140.5000 103.5000 Du        
   5440 ****       130.7500 140.5000 103.7500 Du        
   5441 ****       130.7500 140.5000 104.0000 Du        
   5442 ****       130.7500 140.5000 104.2500 Du        
   5443 ****       130.7500 140.5000 104.5000 Du        
   5444 ****       130.7500 140.5000 104.7500 Du        
   5445 ****       130.7500 140.5000 105.0000 Du        
   5446 ****       130.7500 140.5000 105.2500 Du        
   5447 ****       130.7500 140.5000 105.5000 Du        
   5448 ****       130.7500 140.5000 105.7500 Du        
   5449 ****       130.7500 140.5000 106.0000 Du        
   5450 ****       130.7500 140.7500 102.7500 Du        
   5451 ****       130.7500 140.7500 103.0000 Du        
   5452 ****       130.7500 140.7500 103.2500 Du        
   5453 ****       130.7500 140.7500 103.5000 Du        
   5454 ****       130.7500 140.7500 103.7500 Du        
   5455 ****       130.7500 140.7500 104.0000 Du        
   5456 ****       130.7500 140.7500 104.2500 Du        
   5457 ****       130.7500 140.7500 104.5000 Du        
   5458 ****       130.7500 140.7500 104.7500 Du        
   5459 ****       130.7500 140.7500 105.0000 Du        
   5460 ****       130.7500 140.7500 105.2500 Du        
   5461 ****       130.7500 140.7500 105.5000 Du        
   5462 ****       130.7500 140.7500 105.7500 Du        
   5463 ****       130.7500 141.0000 102.5000 Du        
   5464 ****       130.7500 141.0000 102.7500 Du        
   5465 ****       130.7500 141.0000 103.0000 Du        
   5466 ****       130.7500 141.0000 103.2500 Du        
   5467 ****       130.7500 141.0000 103.5000 Du        
   5468 ****       130.7500 141.0000 103.7500 Du        
   5469 ****       130.7500 141.0000 104.0000 Du        
   5470 ****       130.7500 141.0000 104.2500 Du        
   5471 ****       130.7500 141.0000 104.5000 Du        
   5472 ****       130.7500 141.0000 104.7500 Du        
   5473 ****       130.7500 141.0000 105.0000 Du        
   5474 ****       130.7500 141.0000 105.2500 Du        
   5475 ****       130.7500 141.0000 105.5000 Du        
   5476 ****       130.7500 141.2500 102.2500 Du        
   5477 ****       130.7500 141.2500 102.5000 Du        
   5478 ****       130.7500 141.2500 102.7500 Du        
   5479 ****       130.7500 141.2500 103.0000 Du        
   5480 ****       130.7500 141.2500 103.2500 Du        
   5481 ****       130.7500 141.2500 103.5000 Du        
   5482 ****       130.7500 141.2500 103.7500 Du        
   5483 ****       130.7500 141.2500 104.0000 Du        
   5484 ****       130.7500 141.2500 104.2500 Du        
   5485 ****       130.7500 141.2500 104.5000 Du        
   5486 ****       130.7500 141.2500 104.7500 Du        
   5487 ****       130.7500 141.2500 105.0000 Du        
   5488 ****       130.7500 141.2500 105.2500 Du        
   5489 ****       130.7500 141.5000 102.7500 Du        
   5490 ****       130.7500 141.5000 103.0000 Du        
   5491 ****       130.7500 141.5000 103.2500 Du        
   5492 ****       130.7500 141.5000 103.5000 Du        
   5493 ****       130.7500 141.5000 103.7500 Du        
   5494 ****       130.7500 141.5000 104.0000 Du        
   5495 ****       130.7500 141.5000 104.2500 Du        
   5496 ****       130.7500 141.5000 104.5000 Du        
   5497 ****       130.7500 141.5000 104.7500 Du        
   5498 ****       130.7500 141.5000 105.0000 Du        
   5499 ****       130.7500 141.5000 105.2500 Du        
   5500 ****       130.7500 141.7500 102.2500 Du        
   5501 ****       130.7500 141.7500 102.7500 Du        
   5502 ****       130.7500 141.7500 103.0000 Du        
   5503 ****       130.7500 141.7500 103.2500 Du        
   5504 ****       130.7500 141.7500 103.5000 Du        
   5505 ****       130.7500 141.7500 103.7500 Du        
   5506 ****       130.7500 141.7500 104.0000 Du        
   5507 ****       130.7500 141.7500 104.2500 Du        
   5508 ****       130.7500 141.7500 104.5000 Du        
   5509 ****       130.7500 141.7500 104.7500 Du        
   5510 ****       130.7500 141.7500 105.0000 Du        
   5511 ****       130.7500 142.0000 102.2500 Du        
   5512 ****       130.7500 142.0000 102.5000 Du        
   5513 ****       130.7500 142.0000 102.7500 Du        
   5514 ****       130.7500 142.0000 103.0000 Du        
   5515 ****       130.7500 142.0000 103.2500 Du        
   5516 ****       130.7500 142.0000 103.5000 Du        
   5517 ****       130.7500 142.0000 103.7500 Du        
   5518 ****       130.7500 142.0000 104.0000 Du        
   5519 ****       130.7500 142.0000 104.2500 Du        
   5520 ****       130.7500 142.0000 104.5000 Du        
   5521 ****       130.7500 142.0000 104.7500 Du        
   5522 ****       130.7500 142.2500 102.5000 Du        
   5523 ****       130.7500 142.2500 102.7500 Du        
   5524 ****       130.7500 142.2500 103.0000 Du        
   5525 ****       130.7500 142.2500 103.2500 Du        
   5526 ****       130.7500 142.2500 103.5000 Du        
   5527 ****       130.7500 142.2500 103.7500 Du        
   5528 ****       130.7500 142.2500 104.0000 Du        
   5529 ****       130.7500 142.2500 104.2500 Du        
   5530 ****       130.7500 142.2500 104.5000 Du        
   5531 ****       130.7500 142.5000 102.2500 Du        
   5532 ****       130.7500 142.5000 102.5000 Du        
   5533 ****       130.7500 142.5000 102.7500 Du        
   5534 ****       130.7500 142.5000 103.0000 Du        
   5535 ****       130.7500 142.5000 103.2500 Du        
   5536 ****       130.7500 142.5000 103.5000 Du        
   5537 ****       130.7500 142.5000 103.7500 Du        
   5538 ****       130.7500 142.5000 104.0000 Du        
   5539 ****       130.7500 142.7500  99.2500 Du        
   5540 ****       130.7500 142.7500 102.2500 Du        
   5541 ****       130.7500 142.7500 102.5000 Du        
   5542 ****       130.7500 142.7500 102.7500 Du        
   5543 ****       130.7500 142.7500 103.0000 Du        
   5544 ****       130.7500 142.7500 103.2500 Du        
   5545 ****       130.7500 142.7500 103.5000 Du        
   5546 ****       130.7500 142.7500 103.7500 Du        
   5547 ****       130.7500 142.7500 104.0000 Du        
   5548 ****       130.7500 143.0000  98.5000 Du        
   5549 ****       130.7500 143.0000  98.7500 Du        
   5550 ****       130.7500 143.0000  99.0000 Du        
   5551 ****       130.7500 143.0000  99.2500 Du        
   5552 ****       130.7500 143.0000  99.5000 Du        
   5553 ****       130.7500 143.0000 102.5000 Du        
   5554 ****       130.7500 143.0000 102.7500 Du        
   5555 ****       130.7500 143.0000 103.0000 Du        
   5556 ****       130.7500 143.0000 103.2500 Du        
   5557 ****       130.7500 143.0000 103.5000 Du        
   5558 ****       130.7500 143.0000 103.7500 Du        
   5559 ****       130.7500 143.2500  98.5000 Du        
   5560 ****       130.7500 143.2500  98.7500 Du        
   5561 ****       130.7500 143.2500  99.0000 Du        
   5562 ****       130.7500 143.2500  99.2500 Du        
   5563 ****       130.7500 143.2500  99.5000 Du        
   5564 ****       130.7500 143.2500  99.7500 Du        
   5565 ****       130.7500 143.5000  98.2500 Du        
   5566 ****       130.7500 143.5000  98.5000 Du        
   5567 ****       130.7500 143.5000  98.7500 Du        
   5568 ****       130.7500 143.5000  99.0000 Du        
   5569 ****       130.7500 143.5000  99.2500 Du        
   5570 ****       130.7500 143.5000  99.5000 Du        
   5571 ****       130.7500 143.5000  99.7500 Du        
   5572 ****       130.7500 143.5000 100.0000 Du        
   5573 ****       130.7500 143.7500  98.5000 Du        
   5574 ****       130.7500 143.7500  98.7500 Du        
   5575 ****       130.7500 143.7500  99.0000 Du        
   5576 ****       130.7500 143.7500  99.2500 Du        
   5577 ****       130.7500 143.7500  99.5000 Du        
   5578 ****       130.7500 143.7500  99.7500 Du        
   5579 ****       130.7500 144.0000  98.7500 Du        
   5580 ****       130.7500 144.0000  99.0000 Du        
   5581 ****       130.7500 144.0000  99.2500 Du        
   5582 ****       130.7500 144.0000  99.5000 Du        
   5583 ****       130.7500 144.0000  99.7500 Du        
   5584 ****       130.7500 144.2500  99.0000 Du        
   5585 ****       130.7500 144.2500  99.2500 Du        
   5586 ****       130.7500 144.2500  99.5000 Du        
   5587 ****       130.7500 144.5000  99.2500 Du        
   5588 ****       130.7500 144.5000  99.5000 Du        
   5589 ****       131.0000 135.7500  85.0000 Du        
   5590 ****       131.0000 136.0000  85.0000 Du        
   5591 ****       131.0000 136.0000  85.2500 Du        
   5592 ****       131.0000 136.0000  85.5000 Du        
   5593 ****       131.0000 136.2500  85.2500 Du        
   5594 ****       131.0000 136.2500  85.5000 Du        
   5595 ****       131.0000 136.2500  85.7500 Du        
   5596 ****       131.0000 137.7500  96.0000 Du        
   5597 ****       131.0000 137.7500  96.2500 Du        
   5598 ****       131.0000 137.7500  96.5000 Du        
   5599 ****       131.0000 137.7500  96.7500 Du        
   5600 ****       131.0000 138.0000  96.0000 Du        
   5601 ****       131.0000 138.0000  96.2500 Du        
   5602 ****       131.0000 138.0000  96.5000 Du        
   5603 ****       131.0000 138.0000  96.7500 Du        
   5604 ****       131.0000 138.0000  97.0000 Du        
   5605 ****       131.0000 138.2500  96.0000 Du        
   5606 ****       131.0000 138.2500  96.2500 Du        
   5607 ****       131.0000 138.2500  96.5000 Du        
   5608 ****       131.0000 138.2500  96.7500 Du        
   5609 ****       131.0000 138.2500  97.0000 Du        
   5610 ****       131.0000 139.2500 104.2500 Du        
   5611 ****       131.0000 139.2500 104.5000 Du        
   5612 ****       131.0000 139.2500 104.7500 Du        
   5613 ****       131.0000 139.2500 105.0000 Du        
   5614 ****       131.0000 139.2500 105.2500 Du        
   5615 ****       131.0000 139.5000 104.0000 Du        
   5616 ****       131.0000 139.5000 104.2500 Du        
   5617 ****       131.0000 139.5000 104.5000 Du        
   5618 ****       131.0000 139.5000 104.7500 Du        
   5619 ****       131.0000 139.5000 105.0000 Du        
   5620 ****       131.0000 139.5000 105.2500 Du        
   5621 ****       131.0000 139.5000 105.5000 Du        
   5622 ****       131.0000 139.5000 105.7500 Du        
   5623 ****       131.0000 139.5000 106.0000 Du        
   5624 ****       131.0000 139.7500 103.7500 Du        
   5625 ****       131.0000 139.7500 104.0000 Du        
   5626 ****       131.0000 139.7500 104.2500 Du        
   5627 ****       131.0000 139.7500 104.5000 Du        
   5628 ****       131.0000 139.7500 104.7500 Du        
   5629 ****       131.0000 139.7500 105.0000 Du        
   5630 ****       131.0000 139.7500 105.2500 Du        
   5631 ****       131.0000 139.7500 105.5000 Du        
   5632 ****       131.0000 139.7500 105.7500 Du        
   5633 ****       131.0000 139.7500 106.0000 Du        
   5634 ****       131.0000 139.7500 106.2500 Du        
   5635 ****       131.0000 140.0000 103.5000 Du        
   5636 ****       131.0000 140.0000 103.7500 Du        
   5637 ****       131.0000 140.0000 104.0000 Du        
   5638 ****       131.0000 140.0000 104.2500 Du        
   5639 ****       131.0000 140.0000 104.5000 Du        
   5640 ****       131.0000 140.0000 104.7500 Du        
   5641 ****       131.0000 140.0000 105.0000 Du        
   5642 ****       131.0000 140.0000 105.2500 Du        
   5643 ****       131.0000 140.0000 105.5000 Du        
   5644 ****       131.0000 140.0000 105.7500 Du        
   5645 ****       131.0000 140.0000 106.0000 Du        
   5646 ****       131.0000 140.0000 106.2500 Du        
   5647 ****       131.0000 140.2500 103.2500 Du        
   5648 ****       131.0000 140.2500 103.5000 Du        
   5649 ****       131.0000 140.2500 103.7500 Du        
   5650 ****       131.0000 140.2500 104.0000 Du        
   5651 ****       131.0000 140.2500 104.2500 Du        
   5652 ****       131.0000 140.2500 104.5000 Du        
   5653 ****       131.0000 140.2500 104.7500 Du        
   5654 ****       131.0000 140.2500 105.0000 Du        
   5655 ****       131.0000 140.2500 105.2500 Du        
   5656 ****       131.0000 140.2500 105.5000 Du        
   5657 ****       131.0000 140.2500 105.7500 Du        
   5658 ****       131.0000 140.2500 106.0000 Du        
   5659 ****       131.0000 140.5000 103.0000 Du        
   5660 ****       131.0000 140.5000 103.2500 Du        
   5661 ****       131.0000 140.5000 103.5000 Du        
   5662 ****       131.0000 140.5000 103.7500 Du        
   5663 ****       131.0000 140.5000 104.0000 Du        
   5664 ****       131.0000 140.5000 104.2500 Du        
   5665 ****       131.0000 140.5000 104.5000 Du        
   5666 ****       131.0000 140.5000 104.7500 Du        
   5667 ****       131.0000 140.5000 105.0000 Du        
   5668 ****       131.0000 140.5000 105.2500 Du        
   5669 ****       131.0000 140.5000 105.5000 Du        
   5670 ****       131.0000 140.5000 105.7500 Du        
   5671 ****       131.0000 140.7500 102.7500 Du        
   5672 ****       131.0000 140.7500 103.0000 Du        
   5673 ****       131.0000 140.7500 103.2500 Du        
   5674 ****       131.0000 140.7500 103.5000 Du        
   5675 ****       131.0000 140.7500 103.7500 Du        
   5676 ****       131.0000 140.7500 104.0000 Du        
   5677 ****       131.0000 140.7500 104.2500 Du        
   5678 ****       131.0000 140.7500 104.5000 Du        
   5679 ****       131.0000 140.7500 104.7500 Du        
   5680 ****       131.0000 140.7500 105.0000 Du        
   5681 ****       131.0000 140.7500 105.2500 Du        
   5682 ****       131.0000 140.7500 105.5000 Du        
   5683 ****       131.0000 141.0000 102.2500 Du        
   5684 ****       131.0000 141.0000 102.5000 Du        
   5685 ****       131.0000 141.0000 102.7500 Du        
   5686 ****       131.0000 141.0000 103.0000 Du        
   5687 ****       131.0000 141.0000 103.2500 Du        
   5688 ****       131.0000 141.0000 103.5000 Du        
   5689 ****       131.0000 141.0000 103.7500 Du        
   5690 ****       131.0000 141.0000 104.0000 Du        
   5691 ****       131.0000 141.0000 104.2500 Du        
   5692 ****       131.0000 141.0000 104.5000 Du        
   5693 ****       131.0000 141.0000 104.7500 Du        
   5694 ****       131.0000 141.0000 105.0000 Du        
   5695 ****       131.0000 141.0000 105.2500 Du        
   5696 ****       131.0000 141.2500 102.0000 Du        
   5697 ****       131.0000 141.2500 102.2500 Du        
   5698 ****       131.0000 141.2500 102.5000 Du        
   5699 ****       131.0000 141.2500 102.7500 Du        
   5700 ****       131.0000 141.2500 103.0000 Du        
   5701 ****       131.0000 141.2500 103.2500 Du        
   5702 ****       131.0000 141.2500 103.5000 Du        
   5703 ****       131.0000 141.2500 103.7500 Du        
   5704 ****       131.0000 141.2500 104.0000 Du        
   5705 ****       131.0000 141.2500 104.2500 Du        
   5706 ****       131.0000 141.2500 104.5000 Du        
   5707 ****       131.0000 141.2500 104.7500 Du        
   5708 ****       131.0000 141.2500 105.0000 Du        
   5709 ****       131.0000 141.5000 102.7500 Du        
   5710 ****       131.0000 141.5000 103.0000 Du        
   5711 ****       131.0000 141.5000 103.2500 Du        
   5712 ****       131.0000 141.5000 103.5000 Du        
   5713 ****       131.0000 141.5000 103.7500 Du        
   5714 ****       131.0000 141.5000 104.0000 Du        
   5715 ****       131.0000 141.5000 104.2500 Du        
   5716 ****       131.0000 141.5000 104.5000 Du        
   5717 ****       131.0000 141.7500 102.5000 Du        
   5718 ****       131.0000 141.7500 102.7500 Du        
   5719 ****       131.0000 141.7500 103.0000 Du        
   5720 ****       131.0000 141.7500 103.2500 Du        
   5721 ****       131.0000 141.7500 103.5000 Du        
   5722 ****       131.0000 141.7500 103.7500 Du        
   5723 ****       131.0000 141.7500 104.0000 Du        
   5724 ****       131.0000 141.7500 104.2500 Du        
   5725 ****       131.0000 142.0000 102.0000 Du        
   5726 ****       131.0000 142.0000 102.2500 Du        
   5727 ****       131.0000 142.0000 102.5000 Du        
   5728 ****       131.0000 142.0000 102.7500 Du        
   5729 ****       131.0000 142.0000 103.0000 Du        
   5730 ****       131.0000 142.0000 103.2500 Du        
   5731 ****       131.0000 142.0000 103.5000 Du        
   5732 ****       131.0000 142.0000 103.7500 Du        
   5733 ****       131.0000 142.0000 104.0000 Du        
   5734 ****       131.0000 142.2500 102.0000 Du        
   5735 ****       131.0000 142.2500 102.2500 Du        
   5736 ****       131.0000 142.2500 102.5000 Du        
   5737 ****       131.0000 142.2500 102.7500 Du        
   5738 ****       131.0000 142.2500 103.0000 Du        
   5739 ****       131.0000 142.2500 103.2500 Du        
   5740 ****       131.0000 142.2500 103.5000 Du        
   5741 ****       131.0000 142.2500 103.7500 Du        
   5742 ****       131.0000 142.5000 102.5000 Du        
   5743 ****       131.0000 142.5000 102.7500 Du        
   5744 ****       131.0000 142.5000 103.0000 Du        
   5745 ****       131.0000 142.5000 103.2500 Du        
   5746 ****       131.0000 142.5000 103.5000 Du        
   5747 ****       131.0000 142.7500 102.5000 Du        
   5748 ****       131.0000 142.7500 102.7500 Du        
   5749 ****       131.0000 142.7500 103.0000 Du        
   5750 ****       131.0000 142.7500 103.2500 Du        
   5751 ****       131.0000 142.7500 103.5000 Du        
   5752 ****       131.0000 143.0000  98.5000 Du        
   5753 ****       131.0000 143.0000  98.7500 Du        
   5754 ****       131.0000 143.0000  99.0000 Du        
   5755 ****       131.0000 143.0000  99.2500 Du        
   5756 ****       131.0000 143.0000  99.5000 Du        
   5757 ****       131.0000 143.0000  99.7500 Du        
   5758 ****       131.0000 143.0000 100.0000 Du        
   5759 ****       131.0000 143.0000 102.7500 Du        
   5760 ****       131.0000 143.0000 103.0000 Du        
   5761 ****       131.0000 143.0000 103.2500 Du        
   5762 ****       131.0000 143.2500  98.5000 Du        
   5763 ****       131.0000 143.2500  98.7500 Du        
   5764 ****       131.0000 143.2500  99.0000 Du        
   5765 ****       131.0000 143.2500  99.2500 Du        
   5766 ****       131.0000 143.2500  99.5000 Du        
   5767 ****       131.0000 143.2500  99.7500 Du        
   5768 ****       131.0000 143.5000  98.2500 Du        
   5769 ****       131.0000 143.5000  98.5000 Du        
   5770 ****       131.0000 143.5000  98.7500 Du        
   5771 ****       131.0000 143.5000  99.0000 Du        
   5772 ****       131.0000 143.5000  99.2500 Du        
   5773 ****       131.0000 143.5000  99.5000 Du        
   5774 ****       131.0000 143.5000  99.7500 Du        
   5775 ****       131.0000 143.7500  98.5000 Du        
   5776 ****       131.0000 143.7500  98.7500 Du        
   5777 ****       131.0000 143.7500  99.0000 Du        
   5778 ****       131.0000 143.7500  99.2500 Du        
   5779 ****       131.0000 143.7500  99.5000 Du        
   5780 ****       131.0000 143.7500  99.7500 Du        
   5781 ****       131.0000 144.0000  98.7500 Du        
   5782 ****       131.0000 144.0000  99.0000 Du        
   5783 ****       131.0000 144.0000  99.2500 Du        
   5784 ****       131.0000 144.0000  99.5000 Du        
   5785 ****       131.0000 144.2500  99.0000 Du        
   5786 ****       131.0000 144.2500  99.2500 Du        
   5787 ****       131.0000 144.5000  99.2500 Du        
   5788 ****       131.2500 137.2500  96.0000 Du        
   5789 ****       131.2500 137.2500  96.2500 Du        
   5790 ****       131.2500 137.2500  96.5000 Du        
   5791 ****       131.2500 137.2500  96.7500 Du        
   5792 ****       131.2500 137.5000  96.0000 Du        
   5793 ****       131.2500 137.5000  96.2500 Du        
   5794 ****       131.2500 137.5000  96.5000 Du        
   5795 ****       131.2500 137.5000  96.7500 Du        
   5796 ****       131.2500 137.7500  95.7500 Du        
   5797 ****       131.2500 137.7500  96.0000 Du        
   5798 ****       131.2500 137.7500  96.2500 Du        
   5799 ****       131.2500 137.7500  96.5000 Du        
   5800 ****       131.2500 137.7500  96.7500 Du        
   5801 ****       131.2500 137.7500  97.0000 Du        
   5802 ****       131.2500 138.0000  95.7500 Du        
   5803 ****       131.2500 138.0000  96.0000 Du        
   5804 ****       131.2500 138.0000  96.2500 Du        
   5805 ****       131.2500 138.0000  96.5000 Du        
   5806 ****       131.2500 138.0000  96.7500 Du        
   5807 ****       131.2500 138.0000  97.0000 Du        
   5808 ****       131.2500 138.2500  96.0000 Du        
   5809 ****       131.2500 138.2500  96.2500 Du        
   5810 ****       131.2500 138.2500  96.5000 Du        
   5811 ****       131.2500 138.2500  96.7500 Du        
   5812 ****       131.2500 138.2500  97.0000 Du        
   5813 ****       131.2500 139.2500 104.2500 Du        
   5814 ****       131.2500 139.2500 104.5000 Du        
   5815 ****       131.2500 139.2500 104.7500 Du        
   5816 ****       131.2500 139.2500 105.0000 Du        
   5817 ****       131.2500 139.5000 104.0000 Du        
   5818 ****       131.2500 139.5000 104.2500 Du        
   5819 ****       131.2500 139.5000 104.5000 Du        
   5820 ****       131.2500 139.5000 104.7500 Du        
   5821 ****       131.2500 139.5000 105.0000 Du        
   5822 ****       131.2500 139.5000 105.2500 Du        
   5823 ****       131.2500 139.5000 105.5000 Du        
   5824 ****       131.2500 139.5000 105.7500 Du        
   5825 ****       131.2500 139.5000 106.0000 Du        
   5826 ****       131.2500 139.5000 106.2500 Du        
   5827 ****       131.2500 139.7500 103.7500 Du        
   5828 ****       131.2500 139.7500 104.0000 Du        
   5829 ****       131.2500 139.7500 104.2500 Du        
   5830 ****       131.2500 139.7500 104.5000 Du        
   5831 ****       131.2500 139.7500 104.7500 Du        
   5832 ****       131.2500 139.7500 105.0000 Du        
   5833 ****       131.2500 139.7500 105.2500 Du        
   5834 ****       131.2500 139.7500 105.5000 Du        
   5835 ****       131.2500 139.7500 105.7500 Du        
   5836 ****       131.2500 139.7500 106.0000 Du        
   5837 ****       131.2500 139.7500 106.2500 Du        
   5838 ****       131.2500 140.0000 103.5000 Du        
   5839 ****       131.2500 140.0000 103.7500 Du        
   5840 ****       131.2500 140.0000 104.0000 Du        
   5841 ****       131.2500 140.0000 104.2500 Du        
   5842 ****       131.2500 140.0000 104.5000 Du        
   5843 ****       131.2500 140.0000 104.7500 Du        
   5844 ****       131.2500 140.0000 105.0000 Du        
   5845 ****       131.2500 140.0000 105.2500 Du        
   5846 ****       131.2500 140.0000 105.5000 Du        
   5847 ****       131.2500 140.0000 105.7500 Du        
   5848 ****       131.2500 140.0000 106.0000 Du        
   5849 ****       131.2500 140.0000 106.2500 Du        
   5850 ****       131.2500 140.2500 103.2500 Du        
   5851 ****       131.2500 140.2500 103.5000 Du        
   5852 ****       131.2500 140.2500 103.7500 Du        
   5853 ****       131.2500 140.2500 104.0000 Du        
   5854 ****       131.2500 140.2500 104.2500 Du        
   5855 ****       131.2500 140.2500 104.5000 Du        
   5856 ****       131.2500 140.2500 104.7500 Du        
   5857 ****       131.2500 140.2500 105.0000 Du        
   5858 ****       131.2500 140.2500 105.2500 Du        
   5859 ****       131.2500 140.2500 105.5000 Du        
   5860 ****       131.2500 140.2500 105.7500 Du        
   5861 ****       131.2500 140.5000 103.0000 Du        
   5862 ****       131.2500 140.5000 103.2500 Du        
   5863 ****       131.2500 140.5000 103.5000 Du        
   5864 ****       131.2500 140.5000 103.7500 Du        
   5865 ****       131.2500 140.5000 104.0000 Du        
   5866 ****       131.2500 140.5000 104.2500 Du        
   5867 ****       131.2500 140.5000 104.5000 Du        
   5868 ****       131.2500 140.5000 104.7500 Du        
   5869 ****       131.2500 140.5000 105.0000 Du        
   5870 ****       131.2500 140.5000 105.2500 Du        
   5871 ****       131.2500 140.5000 105.5000 Du        
   5872 ****       131.2500 140.7500 102.7500 Du        
   5873 ****       131.2500 140.7500 103.0000 Du        
   5874 ****       131.2500 140.7500 103.2500 Du        
   5875 ****       131.2500 140.7500 103.5000 Du        
   5876 ****       131.2500 140.7500 103.7500 Du        
   5877 ****       131.2500 140.7500 104.0000 Du        
   5878 ****       131.2500 140.7500 104.2500 Du        
   5879 ****       131.2500 140.7500 104.5000 Du        
   5880 ****       131.2500 140.7500 104.7500 Du        
   5881 ****       131.2500 140.7500 105.0000 Du        
   5882 ****       131.2500 141.0000 102.5000 Du        
   5883 ****       131.2500 141.0000 102.7500 Du        
   5884 ****       131.2500 141.0000 103.0000 Du        
   5885 ****       131.2500 141.0000 103.2500 Du        
   5886 ****       131.2500 141.0000 103.5000 Du        
   5887 ****       131.2500 141.0000 103.7500 Du        
   5888 ****       131.2500 141.0000 104.0000 Du        
   5889 ****       131.2500 141.0000 104.2500 Du        
   5890 ****       131.2500 141.0000 104.5000 Du        
   5891 ****       131.2500 141.0000 104.7500 Du        
   5892 ****       131.2500 141.2500 102.5000 Du        
   5893 ****       131.2500 141.2500 102.7500 Du        
   5894 ****       131.2500 141.2500 103.0000 Du        
   5895 ****       131.2500 141.2500 103.2500 Du        
   5896 ****       131.2500 141.2500 103.5000 Du        
   5897 ****       131.2500 141.2500 103.7500 Du        
   5898 ****       131.2500 141.2500 104.0000 Du        
   5899 ****       131.2500 141.2500 104.2500 Du        
   5900 ****       131.2500 141.5000 103.0000 Du        
   5901 ****       131.2500 141.5000 103.2500 Du        
   5902 ****       131.2500 141.5000 103.5000 Du        
   5903 ****       131.2500 141.5000 103.7500 Du        
   5904 ****       131.2500 141.5000 104.0000 Du        
   5905 ****       131.2500 141.7500 103.0000 Du        
   5906 ****       131.2500 141.7500 103.5000 Du        
   5907 ****       131.2500 142.0000 103.0000 Du        
   5908 ****       131.2500 142.2500 103.0000 Du        
   5909 ****       131.2500 142.5000 102.7500 Du        
   5910 ****       131.2500 142.5000 103.0000 Du        
   5911 ****       131.2500 142.7500  98.7500 Du        
   5912 ****       131.2500 142.7500  99.0000 Du        
   5913 ****       131.2500 142.7500  99.2500 Du        
   5914 ****       131.2500 143.0000  98.7500 Du        
   5915 ****       131.2500 143.0000  99.0000 Du        
   5916 ****       131.2500 143.0000  99.2500 Du        
   5917 ****       131.2500 143.0000  99.5000 Du        
   5918 ****       131.2500 143.0000  99.7500 Du        
   5919 ****       131.2500 143.2500  98.5000 Du        
   5920 ****       131.2500 143.2500  98.7500 Du        
   5921 ****       131.2500 143.2500  99.0000 Du        
   5922 ****       131.2500 143.2500  99.2500 Du        
   5923 ****       131.2500 143.2500  99.5000 Du        
   5924 ****       131.2500 143.2500  99.7500 Du        
   5925 ****       131.2500 143.5000  98.5000 Du        
   5926 ****       131.2500 143.5000  98.7500 Du        
   5927 ****       131.2500 143.5000  99.0000 Du        
   5928 ****       131.2500 143.5000  99.2500 Du        
   5929 ****       131.2500 143.5000  99.5000 Du        
   5930 ****       131.2500 143.7500  98.7500 Du        
   5931 ****       131.2500 143.7500  99.0000 Du        
   5932 ****       131.2500 143.7500  99.2500 Du        
   5933 ****       131.2500 143.7500  99.5000 Du        
   5934 ****       131.2500 144.0000  99.0000 Du        
   5935 ****       131.2500 144.0000  99.2500 Du        
   5936 ****       131.5000 136.7500  96.5000 Du        
   5937 ****       131.5000 137.0000  96.0000 Du        
   5938 ****       131.5000 137.0000  96.2500 Du        
   5939 ****       131.5000 137.0000  96.5000 Du        
   5940 ****       131.5000 137.0000  96.7500 Du        
   5941 ****       131.5000 137.0000  97.0000 Du        
   5942 ****       131.5000 137.2500  95.7500 Du        
   5943 ****       131.5000 137.2500  96.0000 Du        
   5944 ****       131.5000 137.2500  96.2500 Du        
   5945 ****       131.5000 137.2500  96.5000 Du        
   5946 ****       131.5000 137.2500  96.7500 Du        
   5947 ****       131.5000 137.2500  97.0000 Du        
   5948 ****       131.5000 137.5000  95.7500 Du        
   5949 ****       131.5000 137.5000  96.0000 Du        
   5950 ****       131.5000 137.5000  96.2500 Du        
   5951 ****       131.5000 137.5000  96.5000 Du        
   5952 ****       131.5000 137.5000  96.7500 Du        
   5953 ****       131.5000 137.5000  97.0000 Du        
   5954 ****       131.5000 137.7500  95.7500 Du        
   5955 ****       131.5000 137.7500  96.0000 Du        
   5956 ****       131.5000 137.7500  96.2500 Du        
   5957 ****       131.5000 137.7500  96.5000 Du        
   5958 ****       131.5000 137.7500  96.7500 Du        
   5959 ****       131.5000 137.7500  97.0000 Du        
   5960 ****       131.5000 138.0000  95.5000 Du        
   5961 ****       131.5000 138.0000  95.7500 Du        
   5962 ****       131.5000 138.0000  96.0000 Du        
   5963 ****       131.5000 138.0000  96.2500 Du        
   5964 ****       131.5000 138.0000  96.5000 Du        
   5965 ****       131.5000 138.0000  96.7500 Du        
   5966 ****       131.5000 138.0000  97.0000 Du        
   5967 ****       131.5000 138.2500  95.7500 Du        
   5968 ****       131.5000 138.2500  96.0000 Du        
   5969 ****       131.5000 138.2500  96.2500 Du        
   5970 ****       131.5000 138.2500  96.5000 Du        
   5971 ****       131.5000 138.2500  96.7500 Du        
   5972 ****       131.5000 139.2500 104.2500 Du        
   5973 ****       131.5000 139.2500 104.5000 Du        
   5974 ****       131.5000 139.2500 104.7500 Du        
   5975 ****       131.5000 139.2500 105.0000 Du        
   5976 ****       131.5000 139.2500 105.2500 Du        
   5977 ****       131.5000 139.5000 104.0000 Du        
   5978 ****       131.5000 139.5000 104.2500 Du        
   5979 ****       131.5000 139.5000 104.5000 Du        
   5980 ****       131.5000 139.5000 104.7500 Du        
   5981 ****       131.5000 139.5000 105.0000 Du        
   5982 ****       131.5000 139.5000 105.2500 Du        
   5983 ****       131.5000 139.5000 105.5000 Du        
   5984 ****       131.5000 139.5000 105.7500 Du        
   5985 ****       131.5000 139.5000 106.0000 Du        
   5986 ****       131.5000 139.5000 106.2500 Du        
   5987 ****       131.5000 139.7500 103.7500 Du        
   5988 ****       131.5000 139.7500 104.0000 Du        
   5989 ****       131.5000 139.7500 104.2500 Du        
   5990 ****       131.5000 139.7500 104.5000 Du        
   5991 ****       131.5000 139.7500 104.7500 Du        
   5992 ****       131.5000 139.7500 105.0000 Du        
   5993 ****       131.5000 139.7500 105.2500 Du        
   5994 ****       131.5000 139.7500 105.5000 Du        
   5995 ****       131.5000 139.7500 105.7500 Du        
   5996 ****       131.5000 139.7500 106.0000 Du        
   5997 ****       131.5000 139.7500 106.2500 Du        
   5998 ****       131.5000 140.0000 103.5000 Du        
   5999 ****       131.5000 140.0000 103.7500 Du        
   6000 ****       131.5000 140.0000 104.0000 Du        
   6001 ****       131.5000 140.0000 104.2500 Du        
   6002 ****       131.5000 140.0000 104.5000 Du        
   6003 ****       131.5000 140.0000 104.7500 Du        
   6004 ****       131.5000 140.0000 105.0000 Du        
   6005 ****       131.5000 140.0000 105.2500 Du        
   6006 ****       131.5000 140.0000 105.5000 Du        
   6007 ****       131.5000 140.0000 105.7500 Du        
   6008 ****       131.5000 140.2500 103.2500 Du        
   6009 ****       131.5000 140.2500 103.5000 Du        
   6010 ****       131.5000 140.2500 103.7500 Du        
   6011 ****       131.5000 140.2500 104.0000 Du        
   6012 ****       131.5000 140.2500 104.2500 Du        
   6013 ****       131.5000 140.2500 104.5000 Du        
   6014 ****       131.5000 140.2500 104.7500 Du        
   6015 ****       131.5000 140.2500 105.0000 Du        
   6016 ****       131.5000 140.2500 105.2500 Du        
   6017 ****       131.5000 140.5000 103.2500 Du        
   6018 ****       131.5000 140.5000 103.5000 Du        
   6019 ****       131.5000 140.5000 103.7500 Du        
   6020 ****       131.5000 140.5000 104.0000 Du        
   6021 ****       131.5000 140.5000 104.2500 Du        
   6022 ****       131.5000 140.5000 104.5000 Du        
   6023 ****       131.5000 140.5000 104.7500 Du        
   6024 ****       131.5000 140.5000 105.0000 Du        
   6025 ****       131.5000 140.7500 103.2500 Du        
   6026 ****       131.5000 140.7500 103.5000 Du        
   6027 ****       131.5000 140.7500 103.7500 Du        
   6028 ****       131.5000 140.7500 104.0000 Du        
   6029 ****       131.5000 140.7500 104.2500 Du        
   6030 ****       131.5000 140.7500 104.5000 Du        
   6031 ****       131.5000 140.7500 104.7500 Du        
   6032 ****       131.5000 141.0000 103.5000 Du        
   6033 ****       131.5000 141.0000 103.7500 Du        
   6034 ****       131.5000 141.0000 104.0000 Du        
   6035 ****       131.5000 141.2500 103.5000 Du        
   6036 ****       131.5000 142.5000  99.5000 Du        
   6037 ****       131.5000 142.7500  99.2500 Du        
   6038 ****       131.5000 142.7500  99.5000 Du        
   6039 ****       131.5000 143.0000  99.0000 Du        
   6040 ****       131.5000 143.0000  99.2500 Du        
   6041 ****       131.5000 143.0000  99.5000 Du        
   6042 ****       131.5000 143.0000  99.7500 Du        
   6043 ****       131.5000 143.2500  98.5000 Du        
   6044 ****       131.5000 143.2500  98.7500 Du        
   6045 ****       131.5000 143.2500  99.0000 Du        
   6046 ****       131.5000 143.2500  99.2500 Du        
   6047 ****       131.5000 143.2500  99.5000 Du        
   6048 ****       131.5000 143.2500  99.7500 Du        
   6049 ****       131.5000 143.5000  98.5000 Du        
   6050 ****       131.5000 143.5000  98.7500 Du        
   6051 ****       131.5000 143.5000  99.0000 Du        
   6052 ****       131.5000 143.5000  99.2500 Du        
   6053 ****       131.5000 143.5000  99.5000 Du        
   6054 ****       131.5000 143.7500  98.7500 Du        
   6055 ****       131.5000 143.7500  99.0000 Du        
   6056 ****       131.5000 143.7500  99.2500 Du        
   6057 ****       131.5000 143.7500  99.5000 Du        
   6058 ****       131.5000 144.0000  99.0000 Du        
   6059 ****       131.5000 144.0000  99.2500 Du        
   6060 ****       131.7500 136.2500  96.5000 Du        
   6061 ****       131.7500 136.5000  96.2500 Du        
   6062 ****       131.7500 136.5000  96.5000 Du        
   6063 ****       131.7500 136.5000  96.7500 Du        
   6064 ****       131.7500 136.7500  96.0000 Du        
   6065 ****       131.7500 136.7500  96.2500 Du        
   6066 ****       131.7500 136.7500  96.5000 Du        
   6067 ****       131.7500 136.7500  96.7500 Du        
   6068 ****       131.7500 136.7500  97.0000 Du        
   6069 ****       131.7500 137.0000  95.7500 Du        
   6070 ****       131.7500 137.0000  96.0000 Du        
   6071 ****       131.7500 137.0000  96.2500 Du        
   6072 ****       131.7500 137.0000  96.5000 Du        
   6073 ****       131.7500 137.0000  96.7500 Du        
   6074 ****       131.7500 137.0000  97.0000 Du        
   6075 ****       131.7500 137.2500  95.7500 Du        
   6076 ****       131.7500 137.2500  96.0000 Du        
   6077 ****       131.7500 137.2500  96.2500 Du        
   6078 ****       131.7500 137.2500  96.5000 Du        
   6079 ****       131.7500 137.2500  96.7500 Du        
   6080 ****       131.7500 137.2500  97.0000 Du        
   6081 ****       131.7500 137.5000  95.7500 Du        
   6082 ****       131.7500 137.5000  96.0000 Du        
   6083 ****       131.7500 137.5000  96.2500 Du        
   6084 ****       131.7500 137.5000  96.5000 Du        
   6085 ****       131.7500 137.5000  96.7500 Du        
   6086 ****       131.7500 137.5000  97.0000 Du        
   6087 ****       131.7500 137.7500  95.5000 Du        
   6088 ****       131.7500 137.7500  95.7500 Du        
   6089 ****       131.7500 137.7500  96.0000 Du        
   6090 ****       131.7500 137.7500  96.2500 Du        
   6091 ****       131.7500 137.7500  96.5000 Du        
   6092 ****       131.7500 137.7500  96.7500 Du        
   6093 ****       131.7500 137.7500  97.0000 Du        
   6094 ****       131.7500 138.0000  95.5000 Du        
   6095 ****       131.7500 138.0000  95.7500 Du        
   6096 ****       131.7500 138.0000  96.0000 Du        
   6097 ****       131.7500 138.0000  96.2500 Du        
   6098 ****       131.7500 138.0000  96.5000 Du        
   6099 ****       131.7500 138.0000  96.7500 Du        
   6100 ****       131.7500 138.0000  97.0000 Du        
   6101 ****       131.7500 138.2500  95.7500 Du        
   6102 ****       131.7500 138.2500  96.0000 Du        
   6103 ****       131.7500 138.2500  96.2500 Du        
   6104 ****       131.7500 138.2500  96.5000 Du        
   6105 ****       131.7500 138.2500  96.7500 Du        
   6106 ****       131.7500 138.2500  97.0000 Du        
   6107 ****       131.7500 139.0000 104.2500 Du        
   6108 ****       131.7500 139.0000 104.5000 Du        
   6109 ****       131.7500 139.2500 104.0000 Du        
   6110 ****       131.7500 139.2500 104.2500 Du        
   6111 ****       131.7500 139.2500 104.5000 Du        
   6112 ****       131.7500 139.2500 104.7500 Du        
   6113 ****       131.7500 139.2500 105.0000 Du        
   6114 ****       131.7500 139.2500 105.2500 Du        
   6115 ****       131.7500 139.2500 105.5000 Du        
   6116 ****       131.7500 139.2500 106.5000 Du        
   6117 ****       131.7500 139.2500 106.7500 Du        
   6118 ****       131.7500 139.2500 107.0000 Du        
   6119 ****       131.7500 139.2500 107.2500 Du        
   6120 ****       131.7500 139.5000 104.0000 Du        
   6121 ****       131.7500 139.5000 104.2500 Du        
   6122 ****       131.7500 139.5000 104.5000 Du        
   6123 ****       131.7500 139.5000 104.7500 Du        
   6124 ****       131.7500 139.5000 105.0000 Du        
   6125 ****       131.7500 139.5000 105.2500 Du        
   6126 ****       131.7500 139.5000 105.5000 Du        
   6127 ****       131.7500 139.5000 105.7500 Du        
   6128 ****       131.7500 139.5000 106.0000 Du        
   6129 ****       131.7500 139.5000 106.2500 Du        
   6130 ****       131.7500 139.5000 106.5000 Du        
   6131 ****       131.7500 139.7500 103.7500 Du        
   6132 ****       131.7500 139.7500 104.0000 Du        
   6133 ****       131.7500 139.7500 104.2500 Du        
   6134 ****       131.7500 139.7500 104.5000 Du        
   6135 ****       131.7500 139.7500 104.7500 Du        
   6136 ****       131.7500 139.7500 105.0000 Du        
   6137 ****       131.7500 139.7500 105.2500 Du        
   6138 ****       131.7500 139.7500 105.5000 Du        
   6139 ****       131.7500 139.7500 105.7500 Du        
   6140 ****       131.7500 139.7500 106.0000 Du        
   6141 ****       131.7500 140.0000 103.5000 Du        
   6142 ****       131.7500 140.0000 103.7500 Du        
   6143 ****       131.7500 140.0000 104.0000 Du        
   6144 ****       131.7500 140.0000 104.2500 Du        
   6145 ****       131.7500 140.0000 104.5000 Du        
   6146 ****       131.7500 140.0000 104.7500 Du        
   6147 ****       131.7500 140.0000 105.0000 Du        
   6148 ****       131.7500 140.0000 105.2500 Du        
   6149 ****       131.7500 140.0000 105.5000 Du        
   6150 ****       131.7500 140.2500 103.2500 Du        
   6151 ****       131.7500 140.2500 103.5000 Du        
   6152 ****       131.7500 140.2500 103.7500 Du        
   6153 ****       131.7500 140.2500 104.0000 Du        
   6154 ****       131.7500 140.2500 104.2500 Du        
   6155 ****       131.7500 140.2500 104.5000 Du        
   6156 ****       131.7500 140.2500 104.7500 Du        
   6157 ****       131.7500 140.2500 105.0000 Du        
   6158 ****       131.7500 140.5000 103.5000 Du        
   6159 ****       131.7500 140.5000 103.7500 Du        
   6160 ****       131.7500 140.5000 104.0000 Du        
   6161 ****       131.7500 140.5000 104.2500 Du        
   6162 ****       131.7500 140.5000 104.5000 Du        
   6163 ****       131.7500 140.5000 104.7500 Du        
   6164 ****       131.7500 140.7500 103.5000 Du        
   6165 ****       131.7500 140.7500 103.7500 Du        
   6166 ****       131.7500 140.7500 104.0000 Du        
   6167 ****       131.7500 142.2500  99.0000 Du        
   6168 ****       131.7500 142.2500  99.2500 Du        
   6169 ****       131.7500 142.2500 100.0000 Du        
   6170 ****       131.7500 142.2500 100.2500 Du        
   6171 ****       131.7500 142.5000  99.5000 Du        
   6172 ****       131.7500 142.5000  99.7500 Du        
   6173 ****       131.7500 142.5000 100.0000 Du        
   6174 ****       131.7500 142.5000 100.2500 Du        
   6175 ****       131.7500 142.7500  99.0000 Du        
   6176 ****       131.7500 142.7500  99.2500 Du        
   6177 ****       131.7500 142.7500  99.5000 Du        
   6178 ****       131.7500 142.7500  99.7500 Du        
   6179 ****       131.7500 142.7500 100.0000 Du        
   6180 ****       131.7500 142.7500 100.2500 Du        
   6181 ****       131.7500 143.0000  99.0000 Du        
   6182 ****       131.7500 143.0000  99.2500 Du        
   6183 ****       131.7500 143.0000  99.5000 Du        
   6184 ****       131.7500 143.0000  99.7500 Du        
   6185 ****       131.7500 143.0000 100.0000 Du        
   6186 ****       131.7500 143.2500  99.0000 Du        
   6187 ****       131.7500 143.2500  99.2500 Du        
   6188 ****       131.7500 143.2500  99.5000 Du        
   6189 ****       131.7500 143.2500  99.7500 Du        
   6190 ****       131.7500 143.5000  99.0000 Du        
   6191 ****       131.7500 143.5000  99.2500 Du        
   6192 ****       131.7500 143.5000  99.5000 Du        
   6193 ****       131.7500 143.7500  99.0000 Du        
   6194 ****       131.7500 143.7500  99.2500 Du        
   6195 ****       132.0000 136.0000  96.2500 Du        
   6196 ****       132.0000 136.0000  96.5000 Du        
   6197 ****       132.0000 136.0000  96.7500 Du        
   6198 ****       132.0000 136.2500  96.2500 Du        
   6199 ****       132.0000 136.2500  96.5000 Du        
   6200 ****       132.0000 136.2500  96.7500 Du        
   6201 ****       132.0000 136.2500  97.0000 Du        
   6202 ****       132.0000 136.5000  96.0000 Du        
   6203 ****       132.0000 136.5000  96.2500 Du        
   6204 ****       132.0000 136.5000  96.5000 Du        
   6205 ****       132.0000 136.5000  96.7500 Du        
   6206 ****       132.0000 136.5000  97.0000 Du        
   6207 ****       132.0000 136.7500  96.0000 Du        
   6208 ****       132.0000 136.7500  96.2500 Du        
   6209 ****       132.0000 136.7500  96.5000 Du        
   6210 ****       132.0000 136.7500  96.7500 Du        
   6211 ****       132.0000 136.7500  97.0000 Du        
   6212 ****       132.0000 137.0000  95.7500 Du        
   6213 ****       132.0000 137.0000  96.0000 Du        
   6214 ****       132.0000 137.0000  96.2500 Du        
   6215 ****       132.0000 137.0000  96.5000 Du        
   6216 ****       132.0000 137.0000  96.7500 Du        
   6217 ****       132.0000 137.0000  97.0000 Du        
   6218 ****       132.0000 137.2500  95.5000 Du        
   6219 ****       132.0000 137.2500  95.7500 Du        
   6220 ****       132.0000 137.2500  96.0000 Du        
   6221 ****       132.0000 137.2500  96.2500 Du        
   6222 ****       132.0000 137.2500  96.5000 Du        
   6223 ****       132.0000 137.2500  96.7500 Du        
   6224 ****       132.0000 137.2500  97.0000 Du        
   6225 ****       132.0000 137.5000  95.5000 Du        
   6226 ****       132.0000 137.5000  95.7500 Du        
   6227 ****       132.0000 137.5000  96.0000 Du        
   6228 ****       132.0000 137.5000  96.2500 Du        
   6229 ****       132.0000 137.5000  96.5000 Du        
   6230 ****       132.0000 137.5000  96.7500 Du        
   6231 ****       132.0000 137.5000  97.0000 Du        
   6232 ****       132.0000 137.7500  95.5000 Du        
   6233 ****       132.0000 137.7500  95.7500 Du        
   6234 ****       132.0000 137.7500  96.0000 Du        
   6235 ****       132.0000 137.7500  96.2500 Du        
   6236 ****       132.0000 137.7500  96.5000 Du        
   6237 ****       132.0000 137.7500  96.7500 Du        
   6238 ****       132.0000 137.7500  97.0000 Du        
   6239 ****       132.0000 138.0000  95.2500 Du        
   6240 ****       132.0000 138.0000  95.5000 Du        
   6241 ****       132.0000 138.0000  95.7500 Du        
   6242 ****       132.0000 138.0000  96.0000 Du        
   6243 ****       132.0000 138.0000  96.2500 Du        
   6244 ****       132.0000 138.0000  96.5000 Du        
   6245 ****       132.0000 138.0000  96.7500 Du        
   6246 ****       132.0000 138.0000  97.0000 Du        
   6247 ****       132.0000 138.2500  95.5000 Du        
   6248 ****       132.0000 138.2500  95.7500 Du        
   6249 ****       132.0000 138.2500  96.0000 Du        
   6250 ****       132.0000 138.2500  96.2500 Du        
   6251 ****       132.0000 138.2500  96.5000 Du        
   6252 ****       132.0000 138.2500  96.7500 Du        
   6253 ****       132.0000 138.2500  97.0000 Du        
   6254 ****       132.0000 139.0000 104.2500 Du        
   6255 ****       132.0000 139.0000 104.5000 Du        
   6256 ****       132.0000 139.0000 104.7500 Du        
   6257 ****       132.0000 139.0000 107.0000 Du        
   6258 ****       132.0000 139.0000 107.2500 Du        
   6259 ****       132.0000 139.0000 107.5000 Du        
   6260 ****       132.0000 139.2500 104.0000 Du        
   6261 ****       132.0000 139.2500 104.2500 Du        
   6262 ****       132.0000 139.2500 104.5000 Du        
   6263 ****       132.0000 139.2500 104.7500 Du        
   6264 ****       132.0000 139.2500 105.0000 Du        
   6265 ****       132.0000 139.2500 105.2500 Du        
   6266 ****       132.0000 139.2500 105.5000 Du        
   6267 ****       132.0000 139.2500 105.7500 Du        
   6268 ****       132.0000 139.2500 106.0000 Du        
   6269 ****       132.0000 139.2500 106.2500 Du        
   6270 ****       132.0000 139.2500 106.5000 Du        
   6271 ****       132.0000 139.2500 106.7500 Du        
   6272 ****       132.0000 139.2500 107.0000 Du        
   6273 ****       132.0000 139.2500 107.2500 Du        
   6274 ****       132.0000 139.5000 104.0000 Du        
   6275 ****       132.0000 139.5000 104.2500 Du        
   6276 ****       132.0000 139.5000 104.5000 Du        
   6277 ****       132.0000 139.5000 104.7500 Du        
   6278 ****       132.0000 139.5000 105.0000 Du        
   6279 ****       132.0000 139.5000 105.2500 Du        
   6280 ****       132.0000 139.5000 105.5000 Du        
   6281 ****       132.0000 139.5000 105.7500 Du        
   6282 ****       132.0000 139.5000 106.0000 Du        
   6283 ****       132.0000 139.5000 106.2500 Du        
   6284 ****       132.0000 139.7500 103.7500 Du        
   6285 ****       132.0000 139.7500 104.0000 Du        
   6286 ****       132.0000 139.7500 104.2500 Du        
   6287 ****       132.0000 139.7500 104.5000 Du        
   6288 ****       132.0000 139.7500 104.7500 Du        
   6289 ****       132.0000 139.7500 105.0000 Du        
   6290 ****       132.0000 139.7500 105.2500 Du        
   6291 ****       132.0000 139.7500 105.5000 Du        
   6292 ****       132.0000 139.7500 105.7500 Du        
   6293 ****       132.0000 140.0000 103.5000 Du        
   6294 ****       132.0000 140.0000 103.7500 Du        
   6295 ****       132.0000 140.0000 104.0000 Du        
   6296 ****       132.0000 140.0000 104.2500 Du        
   6297 ****       132.0000 140.0000 104.5000 Du        
   6298 ****       132.0000 140.0000 104.7500 Du        
   6299 ****       132.0000 140.0000 105.0000 Du        
   6300 ****       132.0000 140.0000 105.2500 Du        
   6301 ****       132.0000 140.2500 103.7500 Du        
   6302 ****       132.0000 140.2500 104.0000 Du        
   6303 ****       132.0000 140.2500 104.2500 Du        
   6304 ****       132.0000 140.2500 104.5000 Du        
   6305 ****       132.0000 140.2500 104.7500 Du        
   6306 ****       132.0000 140.5000 104.0000 Du        
   6307 ****       132.0000 140.5000 104.2500 Du        
   6308 ****       132.0000 142.0000  99.5000 Du        
   6309 ****       132.0000 142.0000  99.7500 Du        
   6310 ****       132.0000 142.0000 100.0000 Du        
   6311 ****       132.0000 142.2500  99.0000 Du        
   6312 ****       132.0000 142.2500  99.2500 Du        
   6313 ****       132.0000 142.2500  99.5000 Du        
   6314 ****       132.0000 142.2500  99.7500 Du        
   6315 ****       132.0000 142.2500 100.0000 Du        
   6316 ****       132.0000 142.2500 100.2500 Du        
   6317 ****       132.0000 142.5000  99.5000 Du        
   6318 ****       132.0000 142.5000  99.7500 Du        
   6319 ****       132.0000 142.5000 100.0000 Du        
   6320 ****       132.0000 142.5000 100.2500 Du        
   6321 ****       132.0000 142.5000 100.5000 Du        
   6322 ****       132.0000 142.7500  99.2500 Du        
   6323 ****       132.0000 142.7500  99.5000 Du        
   6324 ****       132.0000 142.7500  99.7500 Du        
   6325 ****       132.0000 142.7500 100.0000 Du        
   6326 ****       132.0000 142.7500 100.2500 Du        
   6327 ****       132.0000 143.0000  99.2500 Du        
   6328 ****       132.0000 143.0000  99.5000 Du        
   6329 ****       132.0000 143.0000  99.7500 Du        
   6330 ****       132.0000 143.2500  99.2500 Du        
   6331 ****       132.0000 143.2500  99.5000 Du        
   6332 ****       132.0000 143.2500  99.7500 Du        
   6333 ****       132.2500 136.0000  96.2500 Du        
   6334 ****       132.2500 136.0000  96.5000 Du        
   6335 ****       132.2500 136.0000  96.7500 Du        
   6336 ****       132.2500 136.0000  97.0000 Du        
   6337 ****       132.2500 136.2500  96.2500 Du        
   6338 ****       132.2500 136.2500  96.5000 Du        
   6339 ****       132.2500 136.2500  96.7500 Du        
   6340 ****       132.2500 136.2500  97.0000 Du        
   6341 ****       132.2500 136.5000  96.2500 Du        
   6342 ****       132.2500 136.5000  96.5000 Du        
   6343 ****       132.2500 136.5000  96.7500 Du        
   6344 ****       132.2500 136.5000  97.0000 Du        
   6345 ****       132.2500 136.7500  96.0000 Du        
   6346 ****       132.2500 136.7500  96.2500 Du        
   6347 ****       132.2500 136.7500  96.5000 Du        
   6348 ****       132.2500 136.7500  96.7500 Du        
   6349 ****       132.2500 136.7500  97.0000 Du        
   6350 ****       132.2500 137.0000  95.7500 Du        
   6351 ****       132.2500 137.0000  96.0000 Du        
   6352 ****       132.2500 137.0000  96.2500 Du        
   6353 ****       132.2500 137.0000  96.5000 Du        
   6354 ****       132.2500 137.0000  96.7500 Du        
   6355 ****       132.2500 137.0000  97.0000 Du        
   6356 ****       132.2500 137.2500  95.7500 Du        
   6357 ****       132.2500 137.2500  96.0000 Du        
   6358 ****       132.2500 137.2500  96.2500 Du        
   6359 ****       132.2500 137.2500  96.5000 Du        
   6360 ****       132.2500 137.2500  96.7500 Du        
   6361 ****       132.2500 137.2500  97.0000 Du        
   6362 ****       132.2500 137.5000  95.5000 Du        
   6363 ****       132.2500 137.5000  95.7500 Du        
   6364 ****       132.2500 137.5000  96.0000 Du        
   6365 ****       132.2500 137.5000  96.2500 Du        
   6366 ****       132.2500 137.5000  96.5000 Du        
   6367 ****       132.2500 137.5000  96.7500 Du        
   6368 ****       132.2500 137.5000  97.0000 Du        
   6369 ****       132.2500 137.7500  95.5000 Du        
   6370 ****       132.2500 137.7500  95.7500 Du        
   6371 ****       132.2500 137.7500  96.0000 Du        
   6372 ****       132.2500 137.7500  96.2500 Du        
   6373 ****       132.2500 137.7500  96.5000 Du        
   6374 ****       132.2500 137.7500  96.7500 Du        
   6375 ****       132.2500 137.7500  97.0000 Du        
   6376 ****       132.2500 138.0000  89.5000 Du        
   6377 ****       132.2500 138.0000  95.2500 Du        
   6378 ****       132.2500 138.0000  95.5000 Du        
   6379 ****       132.2500 138.0000  95.7500 Du        
   6380 ****       132.2500 138.0000  96.0000 Du        
   6381 ****       132.2500 138.0000  96.2500 Du        
   6382 ****       132.2500 138.0000  96.5000 Du        
   6383 ****       132.2500 138.0000  96.7500 Du        
   6384 ****       132.2500 138.0000  97.0000 Du        
   6385 ****       132.2500 138.2500  95.7500 Du        
   6386 ****       132.2500 138.2500  96.0000 Du        
   6387 ****       132.2500 138.2500  96.2500 Du        
   6388 ****       132.2500 138.2500  96.5000 Du        
   6389 ****       132.2500 138.2500  96.7500 Du        
   6390 ****       132.2500 138.2500  97.0000 Du        
   6391 ****       132.2500 138.7500 107.2500 Du        
   6392 ****       132.2500 138.7500 107.5000 Du        
   6393 ****       132.2500 138.7500 107.7500 Du        
   6394 ****       132.2500 139.0000 104.0000 Du        
   6395 ****       132.2500 139.0000 104.2500 Du        
   6396 ****       132.2500 139.0000 104.5000 Du        
   6397 ****       132.2500 139.0000 104.7500 Du        
   6398 ****       132.2500 139.0000 105.0000 Du        
   6399 ****       132.2500 139.0000 106.7500 Du        
   6400 ****       132.2500 139.0000 107.0000 Du        
   6401 ****       132.2500 139.0000 107.2500 Du        
   6402 ****       132.2500 139.0000 107.5000 Du        
   6403 ****       132.2500 139.2500 103.7500 Du        
   6404 ****       132.2500 139.2500 104.0000 Du        
   6405 ****       132.2500 139.2500 104.2500 Du        
   6406 ****       132.2500 139.2500 104.5000 Du        
   6407 ****       132.2500 139.2500 104.7500 Du        
   6408 ****       132.2500 139.2500 105.0000 Du        
   6409 ****       132.2500 139.2500 105.2500 Du        
   6410 ****       132.2500 139.2500 105.5000 Du        
   6411 ****       132.2500 139.2500 105.7500 Du        
   6412 ****       132.2500 139.2500 106.0000 Du        
   6413 ****       132.2500 139.2500 106.2500 Du        
   6414 ****       132.2500 139.2500 106.5000 Du        
   6415 ****       132.2500 139.2500 106.7500 Du        
   6416 ****       132.2500 139.2500 107.0000 Du        
   6417 ****       132.2500 139.2500 107.2500 Du        
   6418 ****       132.2500 139.5000 103.7500 Du        
   6419 ****       132.2500 139.5000 104.0000 Du        
   6420 ****       132.2500 139.5000 104.2500 Du        
   6421 ****       132.2500 139.5000 104.5000 Du        
   6422 ****       132.2500 139.5000 104.7500 Du        
   6423 ****       132.2500 139.5000 105.0000 Du        
   6424 ****       132.2500 139.5000 105.2500 Du        
   6425 ****       132.2500 139.5000 105.5000 Du        
   6426 ****       132.2500 139.5000 105.7500 Du        
   6427 ****       132.2500 139.5000 106.0000 Du        
   6428 ****       132.2500 139.5000 106.2500 Du        
   6429 ****       132.2500 139.7500 103.7500 Du        
   6430 ****       132.2500 139.7500 104.0000 Du        
   6431 ****       132.2500 139.7500 104.2500 Du        
   6432 ****       132.2500 139.7500 104.5000 Du        
   6433 ****       132.2500 139.7500 104.7500 Du        
   6434 ****       132.2500 139.7500 105.0000 Du        
   6435 ****       132.2500 139.7500 105.2500 Du        
   6436 ****       132.2500 139.7500 105.5000 Du        
   6437 ****       132.2500 140.0000 103.7500 Du        
   6438 ****       132.2500 140.0000 104.0000 Du        
   6439 ****       132.2500 140.0000 104.2500 Du        
   6440 ****       132.2500 140.0000 104.5000 Du        
   6441 ****       132.2500 140.0000 104.7500 Du        
   6442 ****       132.2500 140.0000 105.0000 Du        
   6443 ****       132.2500 140.2500 104.2500 Du        
   6444 ****       132.2500 141.7500  99.5000 Du        
   6445 ****       132.2500 141.7500  99.7500 Du        
   6446 ****       132.2500 141.7500 100.0000 Du        
   6447 ****       132.2500 142.0000  99.5000 Du        
   6448 ****       132.2500 142.0000  99.7500 Du        
   6449 ****       132.2500 142.0000 100.0000 Du        
   6450 ****       132.2500 142.0000 100.2500 Du        
   6451 ****       132.2500 142.2500  99.2500 Du        
   6452 ****       132.2500 142.2500  99.5000 Du        
   6453 ****       132.2500 142.2500  99.7500 Du        
   6454 ****       132.2500 142.2500 100.0000 Du        
   6455 ****       132.2500 142.2500 100.2500 Du        
   6456 ****       132.2500 142.5000  99.5000 Du        
   6457 ****       132.2500 142.5000  99.7500 Du        
   6458 ****       132.2500 142.5000 100.0000 Du        
   6459 ****       132.2500 142.5000 100.2500 Du        
   6460 ****       132.2500 142.7500  99.5000 Du        
   6461 ****       132.2500 142.7500  99.7500 Du        
   6462 ****       132.2500 142.7500 100.0000 Du        
   6463 ****       132.2500 143.0000  99.5000 Du        
   6464 ****       132.2500 143.0000  99.7500 Du        
   6465 ****       132.5000 136.0000  96.5000 Du        
   6466 ****       132.5000 136.0000  96.7500 Du        
   6467 ****       132.5000 136.2500  96.2500 Du        
   6468 ****       132.5000 136.2500  96.5000 Du        
   6469 ****       132.5000 136.2500  96.7500 Du        
   6470 ****       132.5000 136.2500  97.0000 Du        
   6471 ****       132.5000 136.5000  96.2500 Du        
   6472 ****       132.5000 136.5000  96.5000 Du        
   6473 ****       132.5000 136.5000  96.7500 Du        
   6474 ****       132.5000 136.5000  97.0000 Du        
   6475 ****       132.5000 136.7500  96.2500 Du        
   6476 ****       132.5000 136.7500  96.5000 Du        
   6477 ****       132.5000 136.7500  96.7500 Du        
   6478 ****       132.5000 136.7500  97.0000 Du        
   6479 ****       132.5000 137.0000  88.2500 Du        
   6480 ****       132.5000 137.0000  96.0000 Du        
   6481 ****       132.5000 137.0000  96.2500 Du        
   6482 ****       132.5000 137.0000  96.5000 Du        
   6483 ****       132.5000 137.0000  96.7500 Du        
   6484 ****       132.5000 137.0000  97.0000 Du        
   6485 ****       132.5000 137.2500  88.0000 Du        
   6486 ****       132.5000 137.2500  88.2500 Du        
   6487 ****       132.5000 137.2500  88.5000 Du        
   6488 ****       132.5000 137.2500  88.7500 Du        
   6489 ****       132.5000 137.2500  89.0000 Du        
   6490 ****       132.5000 137.2500  95.7500 Du        
   6491 ****       132.5000 137.2500  96.0000 Du        
   6492 ****       132.5000 137.2500  96.2500 Du        
   6493 ****       132.5000 137.2500  96.5000 Du        
   6494 ****       132.5000 137.2500  96.7500 Du        
   6495 ****       132.5000 137.2500  97.0000 Du        
   6496 ****       132.5000 137.5000  88.7500 Du        
   6497 ****       132.5000 137.5000  89.0000 Du        
   6498 ****       132.5000 137.5000  95.7500 Du        
   6499 ****       132.5000 137.5000  96.0000 Du        
   6500 ****       132.5000 137.5000  96.2500 Du        
   6501 ****       132.5000 137.5000  96.5000 Du        
   6502 ****       132.5000 137.5000  96.7500 Du        
   6503 ****       132.5000 137.5000  97.0000 Du        
   6504 ****       132.5000 137.7500  89.2500 Du        
   6505 ****       132.5000 137.7500  95.5000 Du        
   6506 ****       132.5000 137.7500  95.7500 Du        
   6507 ****       132.5000 137.7500  96.0000 Du        
   6508 ****       132.5000 137.7500  96.2500 Du        
   6509 ****       132.5000 137.7500  96.5000 Du        
   6510 ****       132.5000 137.7500  96.7500 Du        
   6511 ****       132.5000 137.7500  97.0000 Du        
   6512 ****       132.5000 138.0000  89.2500 Du        
   6513 ****       132.5000 138.0000  89.5000 Du        
   6514 ****       132.5000 138.0000  95.5000 Du        
   6515 ****       132.5000 138.0000  95.7500 Du        
   6516 ****       132.5000 138.0000  96.0000 Du        
   6517 ****       132.5000 138.0000  96.2500 Du        
   6518 ****       132.5000 138.0000  96.5000 Du        
   6519 ****       132.5000 138.0000  96.7500 Du        
   6520 ****       132.5000 138.0000  97.0000 Du        
   6521 ****       132.5000 138.2500  95.7500 Du        
   6522 ****       132.5000 138.2500  96.0000 Du        
   6523 ****       132.5000 138.2500  96.2500 Du        
   6524 ****       132.5000 138.2500  96.5000 Du        
   6525 ****       132.5000 138.2500  96.7500 Du        
   6526 ****       132.5000 138.2500  97.0000 Du        
   6527 ****       132.5000 138.5000  96.5000 Du        
   6528 ****       132.5000 138.5000  96.7500 Du        
   6529 ****       132.5000 138.7500 104.2500 Du        
   6530 ****       132.5000 138.7500 104.5000 Du        
   6531 ****       132.5000 138.7500 104.7500 Du        
   6532 ****       132.5000 138.7500 107.0000 Du        
   6533 ****       132.5000 138.7500 107.2500 Du        
   6534 ****       132.5000 138.7500 107.5000 Du        
   6535 ****       132.5000 138.7500 107.7500 Du        
   6536 ****       132.5000 139.0000 103.7500 Du        
   6537 ****       132.5000 139.0000 104.0000 Du        
   6538 ****       132.5000 139.0000 104.2500 Du        
   6539 ****       132.5000 139.0000 104.5000 Du        
   6540 ****       132.5000 139.0000 104.7500 Du        
   6541 ****       132.5000 139.0000 105.0000 Du        
   6542 ****       132.5000 139.0000 105.2500 Du        
   6543 ****       132.5000 139.0000 105.5000 Du        
   6544 ****       132.5000 139.0000 105.7500 Du        
   6545 ****       132.5000 139.0000 106.0000 Du        
   6546 ****       132.5000 139.0000 106.2500 Du        
   6547 ****       132.5000 139.0000 106.5000 Du        
   6548 ****       132.5000 139.0000 106.7500 Du        
   6549 ****       132.5000 139.0000 107.0000 Du        
   6550 ****       132.5000 139.0000 107.2500 Du        
   6551 ****       132.5000 139.2500 103.7500 Du        
   6552 ****       132.5000 139.2500 104.0000 Du        
   6553 ****       132.5000 139.2500 104.2500 Du        
   6554 ****       132.5000 139.2500 104.5000 Du        
   6555 ****       132.5000 139.2500 104.7500 Du        
   6556 ****       132.5000 139.2500 105.0000 Du        
   6557 ****       132.5000 139.2500 105.2500 Du        
   6558 ****       132.5000 139.2500 105.5000 Du        
   6559 ****       132.5000 139.2500 105.7500 Du        
   6560 ****       132.5000 139.2500 106.0000 Du        
   6561 ****       132.5000 139.2500 106.2500 Du        
   6562 ****       132.5000 139.2500 106.5000 Du        
   6563 ****       132.5000 139.5000 103.7500 Du        
   6564 ****       132.5000 139.5000 104.0000 Du        
   6565 ****       132.5000 139.5000 104.2500 Du        
   6566 ****       132.5000 139.5000 104.5000 Du        
   6567 ****       132.5000 139.5000 104.7500 Du        
   6568 ****       132.5000 139.5000 105.0000 Du        
   6569 ****       132.5000 139.5000 105.2500 Du        
   6570 ****       132.5000 139.5000 105.5000 Du        
   6571 ****       132.5000 139.5000 105.7500 Du        
   6572 ****       132.5000 139.5000 106.0000 Du        
   6573 ****       132.5000 139.7500 103.7500 Du        
   6574 ****       132.5000 139.7500 104.0000 Du        
   6575 ****       132.5000 139.7500 104.2500 Du        
   6576 ****       132.5000 139.7500 104.5000 Du        
   6577 ****       132.5000 139.7500 104.7500 Du        
   6578 ****       132.5000 139.7500 105.0000 Du        
   6579 ****       132.5000 139.7500 105.2500 Du        
   6580 ****       132.5000 140.0000 104.0000 Du        
   6581 ****       132.5000 140.0000 104.2500 Du        
   6582 ****       132.5000 140.0000 104.5000 Du        
   6583 ****       132.5000 141.7500  99.5000 Du        
   6584 ****       132.5000 141.7500  99.7500 Du        
   6585 ****       132.5000 141.7500 100.0000 Du        
   6586 ****       132.5000 141.7500 100.2500 Du        
   6587 ****       132.5000 142.0000  99.2500 Du        
   6588 ****       132.5000 142.0000  99.5000 Du        
   6589 ****       132.5000 142.0000  99.7500 Du        
   6590 ****       132.5000 142.0000 100.0000 Du        
   6591 ****       132.5000 142.0000 100.2500 Du        
   6592 ****       132.5000 142.2500  99.5000 Du        
   6593 ****       132.5000 142.2500  99.7500 Du        
   6594 ****       132.5000 142.2500 100.0000 Du        
   6595 ****       132.5000 142.2500 100.2500 Du        
   6596 ****       132.5000 142.5000  99.7500 Du        
   6597 ****       132.5000 142.5000 100.0000 Du        
   6598 ****       132.5000 142.7500 100.0000 Du        
   6599 ****       132.7500 136.0000  96.5000 Du        
   6600 ****       132.7500 136.0000  96.7500 Du        
   6601 ****       132.7500 136.2500  96.5000 Du        
   6602 ****       132.7500 136.2500  96.7500 Du        
   6603 ****       132.7500 136.5000  96.5000 Du        
   6604 ****       132.7500 136.5000  96.7500 Du        
   6605 ****       132.7500 136.5000  97.0000 Du        
   6606 ****       132.7500 136.7500  88.7500 Du        
   6607 ****       132.7500 136.7500  96.2500 Du        
   6608 ****       132.7500 136.7500  96.5000 Du        
   6609 ****       132.7500 136.7500  96.7500 Du        
   6610 ****       132.7500 136.7500  97.0000 Du        
   6611 ****       132.7500 137.0000  88.0000 Du        
   6612 ****       132.7500 137.0000  88.2500 Du        
   6613 ****       132.7500 137.0000  88.5000 Du        
   6614 ****       132.7500 137.0000  88.7500 Du        
   6615 ****       132.7500 137.0000  89.0000 Du        
   6616 ****       132.7500 137.0000  89.2500 Du        
   6617 ****       132.7500 137.0000  96.2500 Du        
   6618 ****       132.7500 137.0000  96.5000 Du        
   6619 ****       132.7500 137.0000  96.7500 Du        
   6620 ****       132.7500 137.0000  97.0000 Du        
   6621 ****       132.7500 137.2500  88.0000 Du        
   6622 ****       132.7500 137.2500  88.2500 Du        
   6623 ****       132.7500 137.2500  88.5000 Du        
   6624 ****       132.7500 137.2500  88.7500 Du        
   6625 ****       132.7500 137.2500  89.0000 Du        
   6626 ****       132.7500 137.2500  89.2500 Du        
   6627 ****       132.7500 137.2500  89.5000 Du        
   6628 ****       132.7500 137.2500  89.7500 Du        
   6629 ****       132.7500 137.2500  96.0000 Du        
   6630 ****       132.7500 137.2500  96.2500 Du        
   6631 ****       132.7500 137.2500  96.5000 Du        
   6632 ****       132.7500 137.2500  96.7500 Du        
   6633 ****       132.7500 137.2500  97.0000 Du        
   6634 ****       132.7500 137.5000  88.7500 Du        
   6635 ****       132.7500 137.5000  89.0000 Du        
   6636 ****       132.7500 137.5000  89.2500 Du        
   6637 ****       132.7500 137.5000  89.5000 Du        
   6638 ****       132.7500 137.5000  89.7500 Du        
   6639 ****       132.7500 137.5000  90.0000 Du        
   6640 ****       132.7500 137.5000  90.2500 Du        
   6641 ****       132.7500 137.5000  96.0000 Du        
   6642 ****       132.7500 137.5000  96.2500 Du        
   6643 ****       132.7500 137.5000  96.5000 Du        
   6644 ****       132.7500 137.5000  96.7500 Du        
   6645 ****       132.7500 137.5000  97.0000 Du        
   6646 ****       132.7500 137.7500  88.7500 Du        
   6647 ****       132.7500 137.7500  89.0000 Du        
   6648 ****       132.7500 137.7500  89.2500 Du        
   6649 ****       132.7500 137.7500  89.5000 Du        
   6650 ****       132.7500 137.7500  89.7500 Du        
   6651 ****       132.7500 137.7500  90.0000 Du        
   6652 ****       132.7500 137.7500  90.2500 Du        
   6653 ****       132.7500 137.7500  90.5000 Du        
   6654 ****       132.7500 137.7500  90.7500 Du        
   6655 ****       132.7500 137.7500  95.7500 Du        
   6656 ****       132.7500 137.7500  96.0000 Du        
   6657 ****       132.7500 137.7500  96.2500 Du        
   6658 ****       132.7500 137.7500  96.5000 Du        
   6659 ****       132.7500 137.7500  96.7500 Du        
   6660 ****       132.7500 137.7500  97.0000 Du        
   6661 ****       132.7500 138.0000  89.2500 Du        
   6662 ****       132.7500 138.0000  89.5000 Du        
   6663 ****       132.7500 138.0000  89.7500 Du        
   6664 ****       132.7500 138.0000  90.0000 Du        
   6665 ****       132.7500 138.0000  90.2500 Du        
   6666 ****       132.7500 138.0000  90.5000 Du        
   6667 ****       132.7500 138.0000  90.7500 Du        
   6668 ****       132.7500 138.0000  91.0000 Du        
   6669 ****       132.7500 138.0000  95.7500 Du        
   6670 ****       132.7500 138.0000  96.0000 Du        
   6671 ****       132.7500 138.0000  96.2500 Du        
   6672 ****       132.7500 138.0000  96.5000 Du        
   6673 ****       132.7500 138.0000  96.7500 Du        
   6674 ****       132.7500 138.0000  97.0000 Du        
   6675 ****       132.7500 138.2500  90.0000 Du        
   6676 ****       132.7500 138.2500  90.2500 Du        
   6677 ****       132.7500 138.2500  95.7500 Du        
   6678 ****       132.7500 138.2500  96.0000 Du        
   6679 ****       132.7500 138.2500  96.2500 Du        
   6680 ****       132.7500 138.2500  96.5000 Du        
   6681 ****       132.7500 138.2500  96.7500 Du        
   6682 ****       132.7500 138.2500  97.0000 Du        
   6683 ****       132.7500 138.2500 107.5000 Du        
   6684 ****       132.7500 138.2500 107.7500 Du        
   6685 ****       132.7500 138.5000  96.5000 Du        
   6686 ****       132.7500 138.5000  96.7500 Du        
   6687 ****       132.7500 138.5000  97.0000 Du        
   6688 ****       132.7500 138.5000 104.2500 Du        
   6689 ****       132.7500 138.5000 107.2500 Du        
   6690 ****       132.7500 138.5000 107.5000 Du        
   6691 ****       132.7500 138.5000 107.7500 Du        
   6692 ****       132.7500 138.7500  96.5000 Du        
   6693 ****       132.7500 138.7500  96.7500 Du        
   6694 ****       132.7500 138.7500  97.0000 Du        
   6695 ****       132.7500 138.7500 104.0000 Du        
   6696 ****       132.7500 138.7500 104.2500 Du        
   6697 ****       132.7500 138.7500 104.5000 Du        
   6698 ****       132.7500 138.7500 104.7500 Du        
   6699 ****       132.7500 138.7500 105.0000 Du        
   6700 ****       132.7500 138.7500 106.7500 Du        
   6701 ****       132.7500 138.7500 107.0000 Du        
   6702 ****       132.7500 138.7500 107.2500 Du        
   6703 ****       132.7500 138.7500 107.5000 Du        
   6704 ****       132.7500 139.0000 103.7500 Du        
   6705 ****       132.7500 139.0000 104.0000 Du        
   6706 ****       132.7500 139.0000 104.2500 Du        
   6707 ****       132.7500 139.0000 104.5000 Du        
   6708 ****       132.7500 139.0000 104.7500 Du        
   6709 ****       132.7500 139.0000 105.0000 Du        
   6710 ****       132.7500 139.0000 105.2500 Du        
   6711 ****       132.7500 139.0000 105.5000 Du        
   6712 ****       132.7500 139.0000 105.7500 Du        
   6713 ****       132.7500 139.0000 106.0000 Du        
   6714 ****       132.7500 139.0000 106.2500 Du        
   6715 ****       132.7500 139.0000 106.5000 Du        
   6716 ****       132.7500 139.0000 106.7500 Du        
   6717 ****       132.7500 139.2500 103.5000 Du        
   6718 ****       132.7500 139.2500 103.7500 Du        
   6719 ****       132.7500 139.2500 104.0000 Du        
   6720 ****       132.7500 139.2500 104.2500 Du        
   6721 ****       132.7500 139.2500 104.5000 Du        
   6722 ****       132.7500 139.2500 104.7500 Du        
   6723 ****       132.7500 139.2500 105.0000 Du        
   6724 ****       132.7500 139.2500 105.2500 Du        
   6725 ****       132.7500 139.2500 105.5000 Du        
   6726 ****       132.7500 139.2500 105.7500 Du        
   6727 ****       132.7500 139.2500 106.0000 Du        
   6728 ****       132.7500 139.2500 106.2500 Du        
   6729 ****       132.7500 139.5000 103.7500 Du        
   6730 ****       132.7500 139.5000 104.0000 Du        
   6731 ****       132.7500 139.5000 104.2500 Du        
   6732 ****       132.7500 139.5000 104.5000 Du        
   6733 ****       132.7500 139.5000 104.7500 Du        
   6734 ****       132.7500 139.5000 105.0000 Du        
   6735 ****       132.7500 139.5000 105.2500 Du        
   6736 ****       132.7500 139.5000 105.5000 Du        
   6737 ****       132.7500 139.5000 105.7500 Du        
   6738 ****       132.7500 139.7500 104.0000 Du        
   6739 ****       132.7500 139.7500 104.2500 Du        
   6740 ****       132.7500 139.7500 104.5000 Du        
   6741 ****       132.7500 139.7500 104.7500 Du        
   6742 ****       132.7500 139.7500 105.0000 Du        
   6743 ****       132.7500 141.7500  99.5000 Du        
   6744 ****       132.7500 141.7500  99.7500 Du        
   6745 ****       132.7500 141.7500 100.0000 Du        
   6746 ****       132.7500 142.0000  99.7500 Du        
   6747 ****       132.7500 142.0000 100.0000 Du        
   6748 ****       133.0000 136.2500  96.7500 Du        
   6749 ****       133.0000 136.5000  96.7500 Du        
   6750 ****       133.0000 136.7500  88.5000 Du        
   6751 ****       133.0000 136.7500  88.7500 Du        
   6752 ****       133.0000 136.7500  89.0000 Du        
   6753 ****       133.0000 136.7500  89.2500 Du        
   6754 ****       133.0000 136.7500  89.5000 Du        
   6755 ****       133.0000 136.7500  96.5000 Du        
   6756 ****       133.0000 136.7500  96.7500 Du        
   6757 ****       133.0000 137.0000  88.0000 Du        
   6758 ****       133.0000 137.0000  88.2500 Du        
   6759 ****       133.0000 137.0000  88.5000 Du        
   6760 ****       133.0000 137.0000  88.7500 Du        
   6761 ****       133.0000 137.0000  89.0000 Du        
   6762 ****       133.0000 137.0000  89.2500 Du        
   6763 ****       133.0000 137.0000  89.5000 Du        
   6764 ****       133.0000 137.0000  89.7500 Du        
   6765 ****       133.0000 137.0000  90.0000 Du        
   6766 ****       133.0000 137.0000  96.5000 Du        
   6767 ****       133.0000 137.0000  96.7500 Du        
   6768 ****       133.0000 137.0000  97.0000 Du        
   6769 ****       133.0000 137.2500  88.0000 Du        
   6770 ****       133.0000 137.2500  88.2500 Du        
   6771 ****       133.0000 137.2500  88.5000 Du        
   6772 ****       133.0000 137.2500  88.7500 Du        
   6773 ****       133.0000 137.2500  89.0000 Du        
   6774 ****       133.0000 137.2500  89.2500 Du        
   6775 ****       133.0000 137.2500  89.5000 Du        
   6776 ****       133.0000 137.2500  89.7500 Du        
   6777 ****       133.0000 137.2500  90.0000 Du        
   6778 ****       133.0000 137.2500  90.2500 Du        
   6779 ****       133.0000 137.2500  96.2500 Du        
   6780 ****       133.0000 137.2500  96.5000 Du        
   6781 ****       133.0000 137.2500  96.7500 Du        
   6782 ****       133.0000 137.2500  97.0000 Du        
   6783 ****       133.0000 137.5000  88.5000 Du        
   6784 ****       133.0000 137.5000  88.7500 Du        
   6785 ****       133.0000 137.5000  89.0000 Du        
   6786 ****       133.0000 137.5000  89.2500 Du        
   6787 ****       133.0000 137.5000  89.5000 Du        
   6788 ****       133.0000 137.5000  89.7500 Du        
   6789 ****       133.0000 137.5000  90.0000 Du        
   6790 ****       133.0000 137.5000  90.2500 Du        
   6791 ****       133.0000 137.5000  90.5000 Du        
   6792 ****       133.0000 137.5000  96.2500 Du        
   6793 ****       133.0000 137.5000  96.5000 Du        
   6794 ****       133.0000 137.5000  96.7500 Du        
   6795 ****       133.0000 137.7500  88.7500 Du        
   6796 ****       133.0000 137.7500  89.0000 Du        
   6797 ****       133.0000 137.7500  89.2500 Du        
   6798 ****       133.0000 137.7500  89.5000 Du        
   6799 ****       133.0000 137.7500  89.7500 Du        
   6800 ****       133.0000 137.7500  90.0000 Du        
   6801 ****       133.0000 137.7500  90.2500 Du        
   6802 ****       133.0000 137.7500  90.5000 Du        
   6803 ****       133.0000 137.7500  90.7500 Du        
   6804 ****       133.0000 137.7500  91.0000 Du        
   6805 ****       133.0000 137.7500  96.0000 Du        
   6806 ****       133.0000 137.7500  96.2500 Du        
   6807 ****       133.0000 137.7500  96.5000 Du        
   6808 ****       133.0000 137.7500  96.7500 Du        
   6809 ****       133.0000 137.7500  97.0000 Du        
   6810 ****       133.0000 138.0000  89.2500 Du        
   6811 ****       133.0000 138.0000  89.5000 Du        
   6812 ****       133.0000 138.0000  89.7500 Du        
   6813 ****       133.0000 138.0000  90.0000 Du        
   6814 ****       133.0000 138.0000  90.2500 Du        
   6815 ****       133.0000 138.0000  90.5000 Du        
   6816 ****       133.0000 138.0000  90.7500 Du        
   6817 ****       133.0000 138.0000  91.0000 Du        
   6818 ****       133.0000 138.0000  95.7500 Du        
   6819 ****       133.0000 138.0000  96.0000 Du        
   6820 ****       133.0000 138.0000  96.2500 Du        
   6821 ****       133.0000 138.0000  96.5000 Du        
   6822 ****       133.0000 138.0000  96.7500 Du        
   6823 ****       133.0000 138.0000  97.0000 Du        
   6824 ****       133.0000 138.2500  90.2500 Du        
   6825 ****       133.0000 138.2500  90.7500 Du        
   6826 ****       133.0000 138.2500  91.0000 Du        
   6827 ****       133.0000 138.2500  91.2500 Du        
   6828 ****       133.0000 138.2500  95.7500 Du        
   6829 ****       133.0000 138.2500  96.0000 Du        
   6830 ****       133.0000 138.2500  96.2500 Du        
   6831 ****       133.0000 138.2500  96.5000 Du        
   6832 ****       133.0000 138.2500  96.7500 Du        
   6833 ****       133.0000 138.2500  97.0000 Du        
   6834 ****       133.0000 138.2500 104.0000 Du        
   6835 ****       133.0000 138.2500 104.2500 Du        
   6836 ****       133.0000 138.2500 104.5000 Du        
   6837 ****       133.0000 138.2500 107.2500 Du        
   6838 ****       133.0000 138.2500 107.5000 Du        
   6839 ****       133.0000 138.2500 107.7500 Du        
   6840 ****       133.0000 138.5000  96.2500 Du        
   6841 ****       133.0000 138.5000  96.5000 Du        
   6842 ****       133.0000 138.5000  96.7500 Du        
   6843 ****       133.0000 138.5000  97.0000 Du        
   6844 ****       133.0000 138.5000 103.7500 Du        
   6845 ****       133.0000 138.5000 104.0000 Du        
   6846 ****       133.0000 138.5000 104.2500 Du        
   6847 ****       133.0000 138.5000 104.5000 Du        
   6848 ****       133.0000 138.5000 104.7500 Du        
   6849 ****       133.0000 138.5000 105.0000 Du        
   6850 ****       133.0000 138.5000 107.2500 Du        
   6851 ****       133.0000 138.5000 107.5000 Du        
   6852 ****       133.0000 138.5000 107.7500 Du        
   6853 ****       133.0000 138.7500  96.5000 Du        
   6854 ****       133.0000 138.7500  96.7500 Du        
   6855 ****       133.0000 138.7500  97.0000 Du        
   6856 ****       133.0000 138.7500 103.7500 Du        
   6857 ****       133.0000 138.7500 104.0000 Du        
   6858 ****       133.0000 138.7500 104.2500 Du        
   6859 ****       133.0000 138.7500 104.5000 Du        
   6860 ****       133.0000 138.7500 104.7500 Du        
   6861 ****       133.0000 138.7500 105.0000 Du        
   6862 ****       133.0000 138.7500 105.2500 Du        
   6863 ****       133.0000 138.7500 105.5000 Du        
   6864 ****       133.0000 138.7500 105.7500 Du        
   6865 ****       133.0000 138.7500 106.0000 Du        
   6866 ****       133.0000 138.7500 106.2500 Du        
   6867 ****       133.0000 138.7500 106.5000 Du        
   6868 ****       133.0000 139.0000  96.7500 Du        
   6869 ****       133.0000 139.0000 103.5000 Du        
   6870 ****       133.0000 139.0000 103.7500 Du        
   6871 ****       133.0000 139.0000 104.0000 Du        
   6872 ****       133.0000 139.0000 104.2500 Du        
   6873 ****       133.0000 139.0000 104.5000 Du        
   6874 ****       133.0000 139.0000 104.7500 Du        
   6875 ****       133.0000 139.0000 105.0000 Du        
   6876 ****       133.0000 139.0000 105.2500 Du        
   6877 ****       133.0000 139.0000 105.5000 Du        
   6878 ****       133.0000 139.0000 105.7500 Du        
   6879 ****       133.0000 139.0000 106.0000 Du        
   6880 ****       133.0000 139.0000 106.2500 Du        
   6881 ****       133.0000 139.2500 103.5000 Du        
   6882 ****       133.0000 139.2500 103.7500 Du        
   6883 ****       133.0000 139.2500 104.0000 Du        
   6884 ****       133.0000 139.2500 104.2500 Du        
   6885 ****       133.0000 139.2500 104.5000 Du        
   6886 ****       133.0000 139.2500 104.7500 Du        
   6887 ****       133.0000 139.2500 105.0000 Du        
   6888 ****       133.0000 139.2500 105.2500 Du        
   6889 ****       133.0000 139.2500 105.5000 Du        
   6890 ****       133.0000 139.2500 105.7500 Du        
   6891 ****       133.0000 139.2500 106.0000 Du        
   6892 ****       133.0000 139.5000 103.7500 Du        
   6893 ****       133.0000 139.5000 104.0000 Du        
   6894 ****       133.0000 139.5000 104.2500 Du        
   6895 ****       133.0000 139.5000 104.5000 Du        
   6896 ****       133.0000 139.5000 104.7500 Du        
   6897 ****       133.0000 139.5000 105.0000 Du        
   6898 ****       133.0000 139.5000 105.2500 Du        
   6899 ****       133.0000 139.5000 105.5000 Du        
   6900 ****       133.0000 139.7500 104.2500 Du        
   6901 ****       133.0000 139.7500 104.5000 Du        
   6902 ****       133.0000 139.7500 104.7500 Du        
   6903 ****       133.2500 136.5000  89.0000 Du        
   6904 ****       133.2500 136.5000  89.2500 Du        
   6905 ****       133.2500 136.5000  89.5000 Du        
   6906 ****       133.2500 136.7500  88.5000 Du        
   6907 ****       133.2500 136.7500  88.7500 Du        
   6908 ****       133.2500 136.7500  89.0000 Du        
   6909 ****       133.2500 136.7500  89.2500 Du        
   6910 ****       133.2500 136.7500  89.5000 Du        
   6911 ****       133.2500 136.7500  89.7500 Du        
   6912 ****       133.2500 136.7500  90.0000 Du        
   6913 ****       133.2500 136.7500  96.7500 Du        
   6914 ****       133.2500 137.0000  88.2500 Du        
   6915 ****       133.2500 137.0000  88.5000 Du        
   6916 ****       133.2500 137.0000  88.7500 Du        
   6917 ****       133.2500 137.0000  89.0000 Du        
   6918 ****       133.2500 137.0000  89.2500 Du        
   6919 ****       133.2500 137.0000  89.5000 Du        
   6920 ****       133.2500 137.0000  89.7500 Du        
   6921 ****       133.2500 137.0000  90.0000 Du        
   6922 ****       133.2500 137.0000  90.2500 Du        
   6923 ****       133.2500 137.0000  96.5000 Du        
   6924 ****       133.2500 137.0000  96.7500 Du        
   6925 ****       133.2500 137.2500  88.0000 Du        
   6926 ****       133.2500 137.2500  88.2500 Du        
   6927 ****       133.2500 137.2500  88.5000 Du        
   6928 ****       133.2500 137.2500  88.7500 Du        
   6929 ****       133.2500 137.2500  89.0000 Du        
   6930 ****       133.2500 137.2500  89.2500 Du        
   6931 ****       133.2500 137.2500  89.5000 Du        
   6932 ****       133.2500 137.2500  89.7500 Du        
   6933 ****       133.2500 137.2500  90.0000 Du        
   6934 ****       133.2500 137.2500  90.2500 Du        
   6935 ****       133.2500 137.2500  96.5000 Du        
   6936 ****       133.2500 137.2500  96.7500 Du        
   6937 ****       133.2500 137.5000  88.5000 Du        
   6938 ****       133.2500 137.5000  88.7500 Du        
   6939 ****       133.2500 137.5000  89.0000 Du        
   6940 ****       133.2500 137.5000  89.2500 Du        
   6941 ****       133.2500 137.5000  89.5000 Du        
   6942 ****       133.2500 137.5000  89.7500 Du        
   6943 ****       133.2500 137.5000  90.0000 Du        
   6944 ****       133.2500 137.5000  90.2500 Du        
   6945 ****       133.2500 137.5000  90.5000 Du        
   6946 ****       133.2500 137.5000  96.5000 Du        
   6947 ****       133.2500 137.5000  96.7500 Du        
   6948 ****       133.2500 137.7500  88.7500 Du        
   6949 ****       133.2500 137.7500  89.0000 Du        
   6950 ****       133.2500 137.7500  89.2500 Du        
   6951 ****       133.2500 137.7500  89.5000 Du        
   6952 ****       133.2500 137.7500  89.7500 Du        
   6953 ****       133.2500 137.7500  90.0000 Du        
   6954 ****       133.2500 137.7500  90.2500 Du        
   6955 ****       133.2500 137.7500  90.5000 Du        
   6956 ****       133.2500 137.7500  90.7500 Du        
   6957 ****       133.2500 137.7500  96.2500 Du        
   6958 ****       133.2500 137.7500  96.5000 Du        
   6959 ****       133.2500 137.7500  96.7500 Du        
   6960 ****       133.2500 137.7500  97.0000 Du        
   6961 ****       133.2500 138.0000  89.2500 Du        
   6962 ****       133.2500 138.0000  89.5000 Du        
   6963 ****       133.2500 138.0000  89.7500 Du        
   6964 ****       133.2500 138.0000  90.0000 Du        
   6965 ****       133.2500 138.0000  90.2500 Du        
   6966 ****       133.2500 138.0000  90.5000 Du        
   6967 ****       133.2500 138.0000  90.7500 Du        
   6968 ****       133.2500 138.0000  91.0000 Du        
   6969 ****       133.2500 138.0000  96.0000 Du        
   6970 ****       133.2500 138.0000  96.2500 Du        
   6971 ****       133.2500 138.0000  96.5000 Du        
   6972 ****       133.2500 138.0000  96.7500 Du        
   6973 ****       133.2500 138.0000  97.0000 Du        
   6974 ****       133.2500 138.0000 104.0000 Du        
   6975 ****       133.2500 138.0000 104.2500 Du        
   6976 ****       133.2500 138.0000 104.5000 Du        
   6977 ****       133.2500 138.0000 107.5000 Du        
   6978 ****       133.2500 138.0000 107.7500 Du        
   6979 ****       133.2500 138.2500  90.0000 Du        
   6980 ****       133.2500 138.2500  90.2500 Du        
   6981 ****       133.2500 138.2500  90.5000 Du        
   6982 ****       133.2500 138.2500  96.0000 Du        
   6983 ****       133.2500 138.2500  96.2500 Du        
   6984 ****       133.2500 138.2500  96.5000 Du        
   6985 ****       133.2500 138.2500  96.7500 Du        
   6986 ****       133.2500 138.2500  97.0000 Du        
   6987 ****       133.2500 138.2500 103.7500 Du        
   6988 ****       133.2500 138.2500 104.0000 Du        
   6989 ****       133.2500 138.2500 104.2500 Du        
   6990 ****       133.2500 138.2500 104.5000 Du        
   6991 ****       133.2500 138.2500 104.7500 Du        
   6992 ****       133.2500 138.2500 105.0000 Du        
   6993 ****       133.2500 138.2500 107.2500 Du        
   6994 ****       133.2500 138.2500 107.5000 Du        
   6995 ****       133.2500 138.2500 107.7500 Du        
   6996 ****       133.2500 138.5000  96.2500 Du        
   6997 ****       133.2500 138.5000  96.5000 Du        
   6998 ****       133.2500 138.5000  96.7500 Du        
   6999 ****       133.2500 138.5000  97.0000 Du        
   7000 ****       133.2500 138.5000 103.7500 Du        
   7001 ****       133.2500 138.5000 104.0000 Du        
   7002 ****       133.2500 138.5000 104.2500 Du        
   7003 ****       133.2500 138.5000 104.5000 Du        
   7004 ****       133.2500 138.5000 104.7500 Du        
   7005 ****       133.2500 138.5000 105.0000 Du        
   7006 ****       133.2500 138.5000 105.2500 Du        
   7007 ****       133.2500 138.5000 105.5000 Du        
   7008 ****       133.2500 138.5000 105.7500 Du        
   7009 ****       133.2500 138.5000 106.0000 Du        
   7010 ****       133.2500 138.5000 106.2500 Du        
   7011 ****       133.2500 138.7500  96.5000 Du        
   7012 ****       133.2500 138.7500  96.7500 Du        
   7013 ****       133.2500 138.7500  97.0000 Du        
   7014 ****       133.2500 138.7500 103.5000 Du        
   7015 ****       133.2500 138.7500 103.7500 Du        
   7016 ****       133.2500 138.7500 104.0000 Du        
   7017 ****       133.2500 138.7500 104.2500 Du        
   7018 ****       133.2500 138.7500 104.5000 Du        
   7019 ****       133.2500 138.7500 104.7500 Du        
   7020 ****       133.2500 138.7500 105.0000 Du        
   7021 ****       133.2500 138.7500 105.2500 Du        
   7022 ****       133.2500 138.7500 105.5000 Du        
   7023 ****       133.2500 138.7500 105.7500 Du        
   7024 ****       133.2500 138.7500 106.0000 Du        
   7025 ****       133.2500 138.7500 106.2500 Du        
   7026 ****       133.2500 139.0000  96.5000 Du        
   7027 ****       133.2500 139.0000  96.7500 Du        
   7028 ****       133.2500 139.0000  97.0000 Du        
   7029 ****       133.2500 139.0000 103.2500 Du        
   7030 ****       133.2500 139.0000 103.5000 Du        
   7031 ****       133.2500 139.0000 103.7500 Du        
   7032 ****       133.2500 139.0000 104.0000 Du        
   7033 ****       133.2500 139.0000 104.2500 Du        
   7034 ****       133.2500 139.0000 104.5000 Du        
   7035 ****       133.2500 139.0000 104.7500 Du        
   7036 ****       133.2500 139.0000 105.0000 Du        
   7037 ****       133.2500 139.0000 105.2500 Du        
   7038 ****       133.2500 139.0000 105.5000 Du        
   7039 ****       133.2500 139.0000 105.7500 Du        
   7040 ****       133.2500 139.0000 106.0000 Du        
   7041 ****       133.2500 139.2500 103.2500 Du        
   7042 ****       133.2500 139.2500 103.5000 Du        
   7043 ****       133.2500 139.2500 103.7500 Du        
   7044 ****       133.2500 139.2500 104.0000 Du        
   7045 ****       133.2500 139.2500 104.2500 Du        
   7046 ****       133.2500 139.2500 104.5000 Du        
   7047 ****       133.2500 139.2500 104.7500 Du        
   7048 ****       133.2500 139.2500 105.0000 Du        
   7049 ****       133.2500 139.2500 105.2500 Du        
   7050 ****       133.2500 139.2500 105.5000 Du        
   7051 ****       133.2500 139.2500 105.7500 Du        
   7052 ****       133.2500 139.5000 103.7500 Du        
   7053 ****       133.2500 139.5000 104.0000 Du        
   7054 ****       133.2500 139.5000 104.2500 Du        
   7055 ****       133.2500 139.5000 104.5000 Du        
   7056 ****       133.2500 139.5000 104.7500 Du        
   7057 ****       133.2500 139.5000 105.0000 Du        
   7058 ****       133.2500 139.5000 105.2500 Du        
   7059 ****       133.5000 136.5000  89.2500 Du        
   7060 ****       133.5000 136.5000  89.5000 Du        
   7061 ****       133.5000 136.5000  89.7500 Du        
   7062 ****       133.5000 136.7500  88.7500 Du        
   7063 ****       133.5000 136.7500  89.0000 Du        
   7064 ****       133.5000 136.7500  89.2500 Du        
   7065 ****       133.5000 136.7500  89.5000 Du        
   7066 ****       133.5000 136.7500  89.7500 Du        
   7067 ****       133.5000 136.7500  90.0000 Du        
   7068 ****       133.5000 137.0000  88.5000 Du        
   7069 ****       133.5000 137.0000  88.7500 Du        
   7070 ****       133.5000 137.0000  89.0000 Du        
   7071 ****       133.5000 137.0000  89.2500 Du        
   7072 ****       133.5000 137.0000  89.5000 Du        
   7073 ****       133.5000 137.0000  89.7500 Du        
   7074 ****       133.5000 137.0000  90.0000 Du        
   7075 ****       133.5000 137.0000  90.2500 Du        
   7076 ****       133.5000 137.0000  96.7500 Du        
   7077 ****       133.5000 137.2500  88.2500 Du        
   7078 ****       133.5000 137.2500  88.5000 Du        
   7079 ****       133.5000 137.2500  88.7500 Du        
   7080 ****       133.5000 137.2500  89.0000 Du        
   7081 ****       133.5000 137.2500  89.2500 Du        
   7082 ****       133.5000 137.2500  89.5000 Du        
   7083 ****       133.5000 137.2500  89.7500 Du        
   7084 ****       133.5000 137.2500  90.0000 Du        
   7085 ****       133.5000 137.2500  90.2500 Du        
   7086 ****       133.5000 137.2500  96.5000 Du        
   7087 ****       133.5000 137.2500  96.7500 Du        
   7088 ****       133.5000 137.5000  88.7500 Du        
   7089 ****       133.5000 137.5000  89.0000 Du        
   7090 ****       133.5000 137.5000  89.2500 Du        
   7091 ****       133.5000 137.5000  89.5000 Du        
   7092 ****       133.5000 137.5000  89.7500 Du        
   7093 ****       133.5000 137.5000  90.0000 Du        
   7094 ****       133.5000 137.5000  90.2500 Du        
   7095 ****       133.5000 137.5000  90.5000 Du        
   7096 ****       133.5000 137.5000  96.5000 Du        
   7097 ****       133.5000 137.5000  96.7500 Du        
   7098 ****       133.5000 137.7500  89.0000 Du        
   7099 ****       133.5000 137.7500  89.2500 Du        
   7100 ****       133.5000 137.7500  89.5000 Du        
   7101 ****       133.5000 137.7500  89.7500 Du        
   7102 ****       133.5000 137.7500  90.0000 Du        
   7103 ****       133.5000 137.7500  90.2500 Du        
   7104 ****       133.5000 137.7500  90.5000 Du        
   7105 ****       133.5000 137.7500  90.7500 Du        
   7106 ****       133.5000 137.7500  96.5000 Du        
   7107 ****       133.5000 137.7500  96.7500 Du        
   7108 ****       133.5000 137.7500  97.0000 Du        
   7109 ****       133.5000 137.7500 104.0000 Du        
   7110 ****       133.5000 137.7500 104.2500 Du        
   7111 ****       133.5000 137.7500 104.5000 Du        
   7112 ****       133.5000 138.0000  89.5000 Du        
   7113 ****       133.5000 138.0000  89.7500 Du        
   7114 ****       133.5000 138.0000  90.0000 Du        
   7115 ****       133.5000 138.0000  90.2500 Du        
   7116 ****       133.5000 138.0000  90.5000 Du        
   7117 ****       133.5000 138.0000  90.7500 Du        
   7118 ****       133.5000 138.0000  91.0000 Du        
   7119 ****       133.5000 138.0000  96.2500 Du        
   7120 ****       133.5000 138.0000  96.5000 Du        
   7121 ****       133.5000 138.0000  96.7500 Du        
   7122 ****       133.5000 138.0000  97.0000 Du        
   7123 ****       133.5000 138.0000 103.7500 Du        
   7124 ****       133.5000 138.0000 104.0000 Du        
   7125 ****       133.5000 138.0000 104.2500 Du        
   7126 ****       133.5000 138.0000 104.5000 Du        
   7127 ****       133.5000 138.0000 104.7500 Du        
   7128 ****       133.5000 138.0000 105.0000 Du        
   7129 ****       133.5000 138.0000 107.2500 Du        
   7130 ****       133.5000 138.0000 107.5000 Du        
   7131 ****       133.5000 138.2500  90.0000 Du        
   7132 ****       133.5000 138.2500  90.2500 Du        
   7133 ****       133.5000 138.2500  90.5000 Du        
   7134 ****       133.5000 138.2500  96.0000 Du        
   7135 ****       133.5000 138.2500  96.2500 Du        
   7136 ****       133.5000 138.2500  96.5000 Du        
   7137 ****       133.5000 138.2500  96.7500 Du        
   7138 ****       133.5000 138.2500  97.0000 Du        
   7139 ****       133.5000 138.2500 103.5000 Du        
   7140 ****       133.5000 138.2500 103.7500 Du        
   7141 ****       133.5000 138.2500 104.0000 Du        
   7142 ****       133.5000 138.2500 104.2500 Du        
   7143 ****       133.5000 138.2500 104.5000 Du        
   7144 ****       133.5000 138.2500 104.7500 Du        
   7145 ****       133.5000 138.2500 105.0000 Du        
   7146 ****       133.5000 138.2500 105.2500 Du        
   7147 ****       133.5000 138.2500 105.5000 Du        
   7148 ****       133.5000 138.2500 105.7500 Du        
   7149 ****       133.5000 138.2500 106.0000 Du        
   7150 ****       133.5000 138.2500 106.2500 Du        
   7151 ****       133.5000 138.2500 106.7500 Du        
   7152 ****       133.5000 138.2500 107.0000 Du        
   7153 ****       133.5000 138.2500 107.2500 Du        
   7154 ****       133.5000 138.5000  96.2500 Du        
   7155 ****       133.5000 138.5000  96.5000 Du        
   7156 ****       133.5000 138.5000  96.7500 Du        
   7157 ****       133.5000 138.5000  97.0000 Du        
   7158 ****       133.5000 138.5000 103.5000 Du        
   7159 ****       133.5000 138.5000 103.7500 Du        
   7160 ****       133.5000 138.5000 104.0000 Du        
   7161 ****       133.5000 138.5000 104.2500 Du        
   7162 ****       133.5000 138.5000 104.5000 Du        
   7163 ****       133.5000 138.5000 104.7500 Du        
   7164 ****       133.5000 138.5000 105.0000 Du        
   7165 ****       133.5000 138.5000 105.2500 Du        
   7166 ****       133.5000 138.5000 105.5000 Du        
   7167 ****       133.5000 138.5000 105.7500 Du        
   7168 ****       133.5000 138.5000 106.0000 Du        
   7169 ****       133.5000 138.5000 106.2500 Du        
   7170 ****       133.5000 138.7500  96.2500 Du        
   7171 ****       133.5000 138.7500  96.5000 Du        
   7172 ****       133.5000 138.7500  96.7500 Du        
   7173 ****       133.5000 138.7500  97.0000 Du        
   7174 ****       133.5000 138.7500 103.2500 Du        
   7175 ****       133.5000 138.7500 103.5000 Du        
   7176 ****       133.5000 138.7500 103.7500 Du        
   7177 ****       133.5000 138.7500 104.0000 Du        
   7178 ****       133.5000 138.7500 104.2500 Du        
   7179 ****       133.5000 138.7500 104.5000 Du        
   7180 ****       133.5000 138.7500 104.7500 Du        
   7181 ****       133.5000 138.7500 105.0000 Du        
   7182 ****       133.5000 138.7500 105.2500 Du        
   7183 ****       133.5000 138.7500 105.5000 Du        
   7184 ****       133.5000 138.7500 105.7500 Du        
   7185 ****       133.5000 138.7500 106.0000 Du        
   7186 ****       133.5000 139.0000  96.5000 Du        
   7187 ****       133.5000 139.0000  96.7500 Du        
   7188 ****       133.5000 139.0000  97.0000 Du        
   7189 ****       133.5000 139.0000 103.2500 Du        
   7190 ****       133.5000 139.0000 103.5000 Du        
   7191 ****       133.5000 139.0000 103.7500 Du        
   7192 ****       133.5000 139.0000 104.0000 Du        
   7193 ****       133.5000 139.0000 104.2500 Du        
   7194 ****       133.5000 139.0000 104.5000 Du        
   7195 ****       133.5000 139.0000 104.7500 Du        
   7196 ****       133.5000 139.0000 105.0000 Du        
   7197 ****       133.5000 139.0000 105.2500 Du        
   7198 ****       133.5000 139.0000 105.5000 Du        
   7199 ****       133.5000 139.0000 105.7500 Du        
   7200 ****       133.5000 139.2500 103.2500 Du        
   7201 ****       133.5000 139.2500 103.5000 Du        
   7202 ****       133.5000 139.2500 103.7500 Du        
   7203 ****       133.5000 139.2500 104.0000 Du        
   7204 ****       133.5000 139.2500 104.2500 Du        
   7205 ****       133.5000 139.2500 104.5000 Du        
   7206 ****       133.5000 139.2500 104.7500 Du        
   7207 ****       133.5000 139.2500 105.0000 Du        
   7208 ****       133.5000 139.2500 105.2500 Du        
   7209 ****       133.5000 139.2500 105.5000 Du        
   7210 ****       133.5000 139.5000 104.0000 Du        
   7211 ****       133.5000 139.5000 104.2500 Du        
   7212 ****       133.5000 139.5000 104.5000 Du        
   7213 ****       133.5000 139.5000 104.7500 Du        
   7214 ****       133.7500 136.5000  89.2500 Du        
   7215 ****       133.7500 136.5000  89.5000 Du        
   7216 ****       133.7500 136.5000  89.7500 Du        
   7217 ****       133.7500 136.7500  89.0000 Du        
   7218 ****       133.7500 136.7500  89.2500 Du        
   7219 ****       133.7500 136.7500  89.5000 Du        
   7220 ****       133.7500 136.7500  89.7500 Du        
   7221 ****       133.7500 136.7500  90.0000 Du        
   7222 ****       133.7500 137.0000  88.7500 Du        
   7223 ****       133.7500 137.0000  89.0000 Du        
   7224 ****       133.7500 137.0000  89.2500 Du        
   7225 ****       133.7500 137.0000  89.5000 Du        
   7226 ****       133.7500 137.0000  89.7500 Du        
   7227 ****       133.7500 137.0000  90.0000 Du        
   7228 ****       133.7500 137.2500  88.5000 Du        
   7229 ****       133.7500 137.2500  88.7500 Du        
   7230 ****       133.7500 137.2500  89.0000 Du        
   7231 ****       133.7500 137.2500  89.2500 Du        
   7232 ****       133.7500 137.2500  89.5000 Du        
   7233 ****       133.7500 137.2500  89.7500 Du        
   7234 ****       133.7500 137.2500  90.0000 Du        
   7235 ****       133.7500 137.2500  90.2500 Du        
   7236 ****       133.7500 137.2500  96.7500 Du        
   7237 ****       133.7500 137.5000  88.5000 Du        
   7238 ****       133.7500 137.5000  88.7500 Du        
   7239 ****       133.7500 137.5000  89.0000 Du        
   7240 ****       133.7500 137.5000  89.2500 Du        
   7241 ****       133.7500 137.5000  89.5000 Du        
   7242 ****       133.7500 137.5000  89.7500 Du        
   7243 ****       133.7500 137.5000  90.0000 Du        
   7244 ****       133.7500 137.5000  90.2500 Du        
   7245 ****       133.7500 137.5000  90.5000 Du        
   7246 ****       133.7500 137.5000  96.7500 Du        
   7247 ****       133.7500 137.5000 104.0000 Du        
   7248 ****       133.7500 137.5000 104.2500 Du        
   7249 ****       133.7500 137.5000 104.5000 Du        
   7250 ****       133.7500 137.7500  88.7500 Du        
   7251 ****       133.7500 137.7500  89.0000 Du        
   7252 ****       133.7500 137.7500  89.2500 Du        
   7253 ****       133.7500 137.7500  89.5000 Du        
   7254 ****       133.7500 137.7500  89.7500 Du        
   7255 ****       133.7500 137.7500  90.0000 Du        
   7256 ****       133.7500 137.7500  90.2500 Du        
   7257 ****       133.7500 137.7500  90.5000 Du        
   7258 ****       133.7500 137.7500  96.5000 Du        
   7259 ****       133.7500 137.7500  96.7500 Du        
   7260 ****       133.7500 137.7500  97.0000 Du        
   7261 ****       133.7500 137.7500 103.7500 Du        
   7262 ****       133.7500 137.7500 104.0000 Du        
   7263 ****       133.7500 137.7500 104.2500 Du        
   7264 ****       133.7500 137.7500 104.5000 Du        
   7265 ****       133.7500 137.7500 104.7500 Du        
   7266 ****       133.7500 138.0000  89.2500 Du        
   7267 ****       133.7500 138.0000  89.5000 Du        
   7268 ****       133.7500 138.0000  89.7500 Du        
   7269 ****       133.7500 138.0000  90.0000 Du        
   7270 ****       133.7500 138.0000  90.2500 Du        
   7271 ****       133.7500 138.0000  90.5000 Du        
   7272 ****       133.7500 138.0000  90.7500 Du        
   7273 ****       133.7500 138.0000  96.2500 Du        
   7274 ****       133.7500 138.0000  96.5000 Du        
   7275 ****       133.7500 138.0000  96.7500 Du        
   7276 ****       133.7500 138.0000  97.0000 Du        
   7277 ****       133.7500 138.0000 103.5000 Du        
   7278 ****       133.7500 138.0000 103.7500 Du        
   7279 ****       133.7500 138.0000 104.0000 Du        
   7280 ****       133.7500 138.0000 104.2500 Du        
   7281 ****       133.7500 138.0000 104.5000 Du        
   7282 ****       133.7500 138.0000 104.7500 Du        
   7283 ****       133.7500 138.0000 105.0000 Du        
   7284 ****       133.7500 138.0000 105.2500 Du        
   7285 ****       133.7500 138.0000 105.5000 Du        
   7286 ****       133.7500 138.0000 107.0000 Du        
   7287 ****       133.7500 138.0000 107.2500 Du        
   7288 ****       133.7500 138.2500  90.5000 Du        
   7289 ****       133.7500 138.2500  96.0000 Du        
   7290 ****       133.7500 138.2500  96.2500 Du        
   7291 ****       133.7500 138.2500  96.5000 Du        
   7292 ****       133.7500 138.2500  96.7500 Du        
   7293 ****       133.7500 138.2500  97.0000 Du        
   7294 ****       133.7500 138.2500 103.2500 Du        
   7295 ****       133.7500 138.2500 103.5000 Du        
   7296 ****       133.7500 138.2500 103.7500 Du        
   7297 ****       133.7500 138.2500 104.0000 Du        
   7298 ****       133.7500 138.2500 104.2500 Du        
   7299 ****       133.7500 138.2500 104.5000 Du        
   7300 ****       133.7500 138.2500 104.7500 Du        
   7301 ****       133.7500 138.2500 105.0000 Du        
   7302 ****       133.7500 138.2500 105.2500 Du        
   7303 ****       133.7500 138.2500 105.5000 Du        
   7304 ****       133.7500 138.2500 105.7500 Du        
   7305 ****       133.7500 138.2500 106.0000 Du        
   7306 ****       133.7500 138.2500 106.2500 Du        
   7307 ****       133.7500 138.2500 106.5000 Du        
   7308 ****       133.7500 138.2500 106.7500 Du        
   7309 ****       133.7500 138.5000  96.2500 Du        
   7310 ****       133.7500 138.5000  96.5000 Du        
   7311 ****       133.7500 138.5000  96.7500 Du        
   7312 ****       133.7500 138.5000  97.0000 Du        
   7313 ****       133.7500 138.5000 103.2500 Du        
   7314 ****       133.7500 138.5000 103.5000 Du        
   7315 ****       133.7500 138.5000 103.7500 Du        
   7316 ****       133.7500 138.5000 104.0000 Du        
   7317 ****       133.7500 138.5000 104.2500 Du        
   7318 ****       133.7500 138.5000 104.5000 Du        
   7319 ****       133.7500 138.5000 104.7500 Du        
   7320 ****       133.7500 138.5000 105.0000 Du        
   7321 ****       133.7500 138.5000 105.2500 Du        
   7322 ****       133.7500 138.5000 105.5000 Du        
   7323 ****       133.7500 138.5000 105.7500 Du        
   7324 ****       133.7500 138.5000 106.0000 Du        
   7325 ****       133.7500 138.5000 106.2500 Du        
   7326 ****       133.7500 138.7500  96.0000 Du        
   7327 ****       133.7500 138.7500  96.2500 Du        
   7328 ****       133.7500 138.7500  96.5000 Du        
   7329 ****       133.7500 138.7500  96.7500 Du        
   7330 ****       133.7500 138.7500  97.0000 Du        
   7331 ****       133.7500 138.7500  97.2500 Du        
   7332 ****       133.7500 138.7500 103.0000 Du        
   7333 ****       133.7500 138.7500 103.2500 Du        
   7334 ****       133.7500 138.7500 103.5000 Du        
   7335 ****       133.7500 138.7500 103.7500 Du        
   7336 ****       133.7500 138.7500 104.0000 Du        
   7337 ****       133.7500 138.7500 104.2500 Du        
   7338 ****       133.7500 138.7500 104.5000 Du        
   7339 ****       133.7500 138.7500 104.7500 Du        
   7340 ****       133.7500 138.7500 105.0000 Du        
   7341 ****       133.7500 138.7500 105.2500 Du        
   7342 ****       133.7500 138.7500 105.5000 Du        
   7343 ****       133.7500 138.7500 105.7500 Du        
   7344 ****       133.7500 138.7500 106.0000 Du        
   7345 ****       133.7500 139.0000  96.2500 Du        
   7346 ****       133.7500 139.0000  96.5000 Du        
   7347 ****       133.7500 139.0000  96.7500 Du        
   7348 ****       133.7500 139.0000  97.0000 Du        
   7349 ****       133.7500 139.0000  97.2500 Du        
   7350 ****       133.7500 139.0000 103.0000 Du        
   7351 ****       133.7500 139.0000 103.2500 Du        
   7352 ****       133.7500 139.0000 103.5000 Du        
   7353 ****       133.7500 139.0000 103.7500 Du        
   7354 ****       133.7500 139.0000 104.0000 Du        
   7355 ****       133.7500 139.0000 104.2500 Du        
   7356 ****       133.7500 139.0000 104.5000 Du        
   7357 ****       133.7500 139.0000 104.7500 Du        
   7358 ****       133.7500 139.0000 105.0000 Du        
   7359 ****       133.7500 139.0000 105.2500 Du        
   7360 ****       133.7500 139.0000 105.5000 Du        
   7361 ****       133.7500 139.0000 105.7500 Du        
   7362 ****       133.7500 139.2500  96.7500 Du        
   7363 ****       133.7500 139.2500  97.0000 Du        
   7364 ****       133.7500 139.2500  97.2500 Du        
   7365 ****       133.7500 139.2500 103.0000 Du        
   7366 ****       133.7500 139.2500 103.2500 Du        
   7367 ****       133.7500 139.2500 103.5000 Du        
   7368 ****       133.7500 139.2500 103.7500 Du        
   7369 ****       133.7500 139.2500 104.0000 Du        
   7370 ****       133.7500 139.2500 104.2500 Du        
   7371 ****       133.7500 139.2500 104.5000 Du        
   7372 ****       133.7500 139.2500 104.7500 Du        
   7373 ****       133.7500 139.2500 105.0000 Du        
   7374 ****       133.7500 139.2500 105.2500 Du        
   7375 ****       133.7500 139.2500 105.5000 Du        
   7376 ****       133.7500 139.5000 104.0000 Du        
   7377 ****       133.7500 139.5000 104.2500 Du        
   7378 ****       133.7500 139.5000 104.5000 Du        
   7379 ****       133.7500 139.5000 104.7500 Du        
   7380 ****       134.0000 136.5000  89.5000 Du        
   7381 ****       134.0000 136.7500  89.0000 Du        
   7382 ****       134.0000 136.7500  89.2500 Du        
   7383 ****       134.0000 136.7500  89.5000 Du        
   7384 ****       134.0000 136.7500  89.7500 Du        
   7385 ****       134.0000 137.0000  88.7500 Du        
   7386 ****       134.0000 137.0000  89.0000 Du        
   7387 ****       134.0000 137.0000  89.2500 Du        
   7388 ****       134.0000 137.0000  89.5000 Du        
   7389 ****       134.0000 137.0000  89.7500 Du        
   7390 ****       134.0000 137.0000  90.0000 Du        
   7391 ****       134.0000 137.2500  88.5000 Du        
   7392 ****       134.0000 137.2500  88.7500 Du        
   7393 ****       134.0000 137.2500  89.0000 Du        
   7394 ****       134.0000 137.2500  89.2500 Du        
   7395 ****       134.0000 137.2500  89.5000 Du        
   7396 ****       134.0000 137.2500  89.7500 Du        
   7397 ****       134.0000 137.2500  90.0000 Du        
   7398 ****       134.0000 137.2500  90.2500 Du        
   7399 ****       134.0000 137.2500  96.7500 Du        
   7400 ****       134.0000 137.2500 103.7500 Du        
   7401 ****       134.0000 137.2500 104.0000 Du        
   7402 ****       134.0000 137.2500 104.2500 Du        
   7403 ****       134.0000 137.5000  88.7500 Du        
   7404 ****       134.0000 137.5000  89.0000 Du        
   7405 ****       134.0000 137.5000  89.2500 Du        
   7406 ****       134.0000 137.5000  89.5000 Du        
   7407 ****       134.0000 137.5000  89.7500 Du        
   7408 ****       134.0000 137.5000  90.0000 Du        
   7409 ****       134.0000 137.5000  90.2500 Du        
   7410 ****       134.0000 137.5000  96.7500 Du        
   7411 ****       134.0000 137.5000 103.7500 Du        
   7412 ****       134.0000 137.5000 104.0000 Du        
   7413 ****       134.0000 137.5000 104.2500 Du        
   7414 ****       134.0000 137.5000 104.5000 Du        
   7415 ****       134.0000 137.5000 104.7500 Du        
   7416 ****       134.0000 137.7500  88.7500 Du        
   7417 ****       134.0000 137.7500  89.0000 Du        
   7418 ****       134.0000 137.7500  89.2500 Du        
   7419 ****       134.0000 137.7500  89.5000 Du        
   7420 ****       134.0000 137.7500  89.7500 Du        
   7421 ****       134.0000 137.7500  90.0000 Du        
   7422 ****       134.0000 137.7500  90.2500 Du        
   7423 ****       134.0000 137.7500  90.5000 Du        
   7424 ****       134.0000 137.7500  96.5000 Du        
   7425 ****       134.0000 137.7500  96.7500 Du        
   7426 ****       134.0000 137.7500  97.0000 Du        
   7427 ****       134.0000 137.7500 103.5000 Du        
   7428 ****       134.0000 137.7500 103.7500 Du        
   7429 ****       134.0000 137.7500 104.0000 Du        
   7430 ****       134.0000 137.7500 104.2500 Du        
   7431 ****       134.0000 137.7500 104.5000 Du        
   7432 ****       134.0000 137.7500 104.7500 Du        
   7433 ****       134.0000 137.7500 105.0000 Du        
   7434 ****       134.0000 137.7500 105.2500 Du        
   7435 ****       134.0000 138.0000  89.5000 Du        
   7436 ****       134.0000 138.0000  89.7500 Du        
   7437 ****       134.0000 138.0000  90.0000 Du        
   7438 ****       134.0000 138.0000  90.2500 Du        
   7439 ****       134.0000 138.0000  90.5000 Du        
   7440 ****       134.0000 138.0000  96.2500 Du        
   7441 ****       134.0000 138.0000  96.5000 Du        
   7442 ****       134.0000 138.0000  96.7500 Du        
   7443 ****       134.0000 138.0000  97.0000 Du        
   7444 ****       134.0000 138.0000 103.2500 Du        
   7445 ****       134.0000 138.0000 103.5000 Du        
   7446 ****       134.0000 138.0000 103.7500 Du        
   7447 ****       134.0000 138.0000 104.0000 Du        
   7448 ****       134.0000 138.0000 104.2500 Du        
   7449 ****       134.0000 138.0000 104.5000 Du        
   7450 ****       134.0000 138.0000 104.7500 Du        
   7451 ****       134.0000 138.0000 105.0000 Du        
   7452 ****       134.0000 138.0000 105.2500 Du        
   7453 ****       134.0000 138.0000 105.5000 Du        
   7454 ****       134.0000 138.0000 105.7500 Du        
   7455 ****       134.0000 138.0000 106.0000 Du        
   7456 ****       134.0000 138.0000 106.2500 Du        
   7457 ****       134.0000 138.0000 106.5000 Du        
   7458 ****       134.0000 138.2500  90.2500 Du        
   7459 ****       134.0000 138.2500  96.0000 Du        
   7460 ****       134.0000 138.2500  96.2500 Du        
   7461 ****       134.0000 138.2500  96.5000 Du        
   7462 ****       134.0000 138.2500  96.7500 Du        
   7463 ****       134.0000 138.2500  97.0000 Du        
   7464 ****       134.0000 138.2500  97.2500 Du        
   7465 ****       134.0000 138.2500 103.2500 Du        
   7466 ****       134.0000 138.2500 103.5000 Du        
   7467 ****       134.0000 138.2500 103.7500 Du        
   7468 ****       134.0000 138.2500 104.0000 Du        
   7469 ****       134.0000 138.2500 104.2500 Du        
   7470 ****       134.0000 138.2500 104.5000 Du        
   7471 ****       134.0000 138.2500 104.7500 Du        
   7472 ****       134.0000 138.2500 105.0000 Du        
   7473 ****       134.0000 138.2500 105.2500 Du        
   7474 ****       134.0000 138.2500 105.5000 Du        
   7475 ****       134.0000 138.2500 105.7500 Du        
   7476 ****       134.0000 138.2500 106.0000 Du        
   7477 ****       134.0000 138.2500 106.2500 Du        
   7478 ****       134.0000 138.2500 106.5000 Du        
   7479 ****       134.0000 138.5000  96.0000 Du        
   7480 ****       134.0000 138.5000  96.2500 Du        
   7481 ****       134.0000 138.5000  96.5000 Du        
   7482 ****       134.0000 138.5000  96.7500 Du        
   7483 ****       134.0000 138.5000  97.0000 Du        
   7484 ****       134.0000 138.5000  97.2500 Du        
   7485 ****       134.0000 138.5000 103.0000 Du        
   7486 ****       134.0000 138.5000 103.2500 Du        
   7487 ****       134.0000 138.5000 103.5000 Du        
   7488 ****       134.0000 138.5000 103.7500 Du        
   7489 ****       134.0000 138.5000 104.0000 Du        
   7490 ****       134.0000 138.5000 104.2500 Du        
   7491 ****       134.0000 138.5000 104.5000 Du        
   7492 ****       134.0000 138.5000 104.7500 Du        
   7493 ****       134.0000 138.5000 105.0000 Du        
   7494 ****       134.0000 138.5000 105.2500 Du        
   7495 ****       134.0000 138.5000 105.5000 Du        
   7496 ****       134.0000 138.5000 105.7500 Du        
   7497 ****       134.0000 138.5000 106.0000 Du        
   7498 ****       134.0000 138.7500  95.7500 Du        
   7499 ****       134.0000 138.7500  96.0000 Du        
   7500 ****       134.0000 138.7500  96.2500 Du        
   7501 ****       134.0000 138.7500  96.5000 Du        
   7502 ****       134.0000 138.7500  96.7500 Du        
   7503 ****       134.0000 138.7500  97.0000 Du        
   7504 ****       134.0000 138.7500  97.2500 Du        
   7505 ****       134.0000 138.7500 102.7500 Du        
   7506 ****       134.0000 138.7500 103.0000 Du        
   7507 ****       134.0000 138.7500 103.2500 Du        
   7508 ****       134.0000 138.7500 103.5000 Du        
   7509 ****       134.0000 138.7500 103.7500 Du        
   7510 ****       134.0000 138.7500 104.0000 Du        
   7511 ****       134.0000 138.7500 104.2500 Du        
   7512 ****       134.0000 138.7500 104.5000 Du        
   7513 ****       134.0000 138.7500 104.7500 Du        
   7514 ****       134.0000 138.7500 105.0000 Du        
   7515 ****       134.0000 138.7500 105.2500 Du        
   7516 ****       134.0000 138.7500 105.5000 Du        
   7517 ****       134.0000 138.7500 105.7500 Du        
   7518 ****       134.0000 139.0000  96.0000 Du        
   7519 ****       134.0000 139.0000  96.2500 Du        
   7520 ****       134.0000 139.0000  96.5000 Du        
   7521 ****       134.0000 139.0000  96.7500 Du        
   7522 ****       134.0000 139.0000  97.0000 Du        
   7523 ****       134.0000 139.0000  97.2500 Du        
   7524 ****       134.0000 139.0000  97.5000 Du        
   7525 ****       134.0000 139.0000 102.7500 Du        
   7526 ****       134.0000 139.0000 103.0000 Du        
   7527 ****       134.0000 139.0000 103.2500 Du        
   7528 ****       134.0000 139.0000 103.5000 Du        
   7529 ****       134.0000 139.0000 103.7500 Du        
   7530 ****       134.0000 139.0000 104.0000 Du        
   7531 ****       134.0000 139.0000 104.2500 Du        
   7532 ****       134.0000 139.0000 104.5000 Du        
   7533 ****       134.0000 139.0000 104.7500 Du        
   7534 ****       134.0000 139.0000 105.0000 Du        
   7535 ****       134.0000 139.0000 105.2500 Du        
   7536 ****       134.0000 139.0000 105.5000 Du        
   7537 ****       134.0000 139.2500  96.5000 Du        
   7538 ****       134.0000 139.2500  96.7500 Du        
   7539 ****       134.0000 139.2500  97.0000 Du        
   7540 ****       134.0000 139.2500  97.2500 Du        
   7541 ****       134.0000 139.2500  97.5000 Du        
   7542 ****       134.0000 139.2500 103.0000 Du        
   7543 ****       134.0000 139.2500 103.2500 Du        
   7544 ****       134.0000 139.2500 103.5000 Du        
   7545 ****       134.0000 139.2500 103.7500 Du        
   7546 ****       134.0000 139.2500 104.0000 Du        
   7547 ****       134.0000 139.2500 104.2500 Du        
   7548 ****       134.0000 139.2500 104.5000 Du        
   7549 ****       134.0000 139.2500 104.7500 Du        
   7550 ****       134.0000 139.2500 105.0000 Du        
   7551 ****       134.0000 139.2500 105.2500 Du        
   7552 ****       134.0000 139.5000 104.0000 Du        
   7553 ****       134.0000 139.5000 104.2500 Du        
   7554 ****       134.0000 139.5000 104.5000 Du        
   7555 ****       134.2500 136.7500  89.2500 Du        
   7556 ****       134.2500 136.7500  89.5000 Du        
   7557 ****       134.2500 136.7500  89.7500 Du        
   7558 ****       134.2500 136.7500 104.0000 Du        
   7559 ****       134.2500 137.0000  89.0000 Du        
   7560 ****       134.2500 137.0000  89.2500 Du        
   7561 ****       134.2500 137.0000  89.5000 Du        
   7562 ****       134.2500 137.0000  89.7500 Du        
   7563 ****       134.2500 137.0000  90.0000 Du        
   7564 ****       134.2500 137.0000 103.7500 Du        
   7565 ****       134.2500 137.0000 104.0000 Du        
   7566 ****       134.2500 137.0000 104.2500 Du        
   7567 ****       134.2500 137.0000 104.5000 Du        
   7568 ****       134.2500 137.2500  88.7500 Du        
   7569 ****       134.2500 137.2500  89.0000 Du        
   7570 ****       134.2500 137.2500  89.2500 Du        
   7571 ****       134.2500 137.2500  89.5000 Du        
   7572 ****       134.2500 137.2500  89.7500 Du        
   7573 ****       134.2500 137.2500  90.0000 Du        
   7574 ****       134.2500 137.2500  97.0000 Du        
   7575 ****       134.2500 137.2500 103.5000 Du        
   7576 ****       134.2500 137.2500 103.7500 Du        
   7577 ****       134.2500 137.2500 104.0000 Du        
   7578 ****       134.2500 137.2500 104.2500 Du        
   7579 ****       134.2500 137.2500 104.5000 Du        
   7580 ****       134.2500 137.2500 104.7500 Du        
   7581 ****       134.2500 137.5000  88.7500 Du        
   7582 ****       134.2500 137.5000  89.0000 Du        
   7583 ****       134.2500 137.5000  89.2500 Du        
   7584 ****       134.2500 137.5000  89.5000 Du        
   7585 ****       134.2500 137.5000  89.7500 Du        
   7586 ****       134.2500 137.5000  90.0000 Du        
   7587 ****       134.2500 137.5000  96.7500 Du        
   7588 ****       134.2500 137.5000  97.0000 Du        
   7589 ****       134.2500 137.5000 103.5000 Du        
   7590 ****       134.2500 137.5000 103.7500 Du        
   7591 ****       134.2500 137.5000 104.0000 Du        
   7592 ****       134.2500 137.5000 104.2500 Du        
   7593 ****       134.2500 137.5000 104.5000 Du        
   7594 ****       134.2500 137.5000 104.7500 Du        
   7595 ****       134.2500 137.5000 105.0000 Du        
   7596 ****       134.2500 137.7500  89.0000 Du        
   7597 ****       134.2500 137.7500  89.2500 Du        
   7598 ****       134.2500 137.7500  89.5000 Du        
   7599 ****       134.2500 137.7500  89.7500 Du        
   7600 ****       134.2500 137.7500  90.0000 Du        
   7601 ****       134.2500 137.7500  90.2500 Du        
   7602 ****       134.2500 137.7500  96.5000 Du        
   7603 ****       134.2500 137.7500  96.7500 Du        
   7604 ****       134.2500 137.7500  97.0000 Du        
   7605 ****       134.2500 137.7500 103.2500 Du        
   7606 ****       134.2500 137.7500 103.5000 Du        
   7607 ****       134.2500 137.7500 103.7500 Du        
   7608 ****       134.2500 137.7500 104.0000 Du        
   7609 ****       134.2500 137.7500 104.2500 Du        
   7610 ****       134.2500 137.7500 104.5000 Du        
   7611 ****       134.2500 137.7500 104.7500 Du        
   7612 ****       134.2500 137.7500 105.0000 Du        
   7613 ****       134.2500 137.7500 105.2500 Du        
   7614 ****       134.2500 137.7500 105.5000 Du        
   7615 ****       134.2500 137.7500 105.7500 Du        
   7616 ****       134.2500 137.7500 106.0000 Du        
   7617 ****       134.2500 138.0000  89.5000 Du        
   7618 ****       134.2500 138.0000  89.7500 Du        
   7619 ****       134.2500 138.0000  90.0000 Du        
   7620 ****       134.2500 138.0000  90.2500 Du        
   7621 ****       134.2500 138.0000  96.5000 Du        
   7622 ****       134.2500 138.0000  96.7500 Du        
   7623 ****       134.2500 138.0000  97.0000 Du        
   7624 ****       134.2500 138.0000 103.0000 Du        
   7625 ****       134.2500 138.0000 103.2500 Du        
   7626 ****       134.2500 138.0000 103.5000 Du        
   7627 ****       134.2500 138.0000 103.7500 Du        
   7628 ****       134.2500 138.0000 104.0000 Du        
   7629 ****       134.2500 138.0000 104.2500 Du        
   7630 ****       134.2500 138.0000 104.5000 Du        
   7631 ****       134.2500 138.0000 104.7500 Du        
   7632 ****       134.2500 138.0000 105.0000 Du        
   7633 ****       134.2500 138.0000 105.2500 Du        
   7634 ****       134.2500 138.0000 105.5000 Du        
   7635 ****       134.2500 138.0000 105.7500 Du        
   7636 ****       134.2500 138.0000 106.0000 Du        
   7637 ****       134.2500 138.0000 106.2500 Du        
   7638 ****       134.2500 138.0000 106.5000 Du        
   7639 ****       134.2500 138.2500  96.2500 Du        
   7640 ****       134.2500 138.2500  96.5000 Du        
   7641 ****       134.2500 138.2500  96.7500 Du        
   7642 ****       134.2500 138.2500  97.0000 Du        
   7643 ****       134.2500 138.2500  97.2500 Du        
   7644 ****       134.2500 138.2500 103.0000 Du        
   7645 ****       134.2500 138.2500 103.2500 Du        
   7646 ****       134.2500 138.2500 103.5000 Du        
   7647 ****       134.2500 138.2500 103.7500 Du        
   7648 ****       134.2500 138.2500 104.0000 Du        
   7649 ****       134.2500 138.2500 104.2500 Du        
   7650 ****       134.2500 138.2500 104.5000 Du        
   7651 ****       134.2500 138.2500 104.7500 Du        
   7652 ****       134.2500 138.2500 105.0000 Du        
   7653 ****       134.2500 138.2500 105.2500 Du        
   7654 ****       134.2500 138.2500 105.5000 Du        
   7655 ****       134.2500 138.2500 105.7500 Du        
   7656 ****       134.2500 138.2500 106.0000 Du        
   7657 ****       134.2500 138.2500 106.2500 Du        
   7658 ****       134.2500 138.5000  96.0000 Du        
   7659 ****       134.2500 138.5000  96.2500 Du        
   7660 ****       134.2500 138.5000  96.5000 Du        
   7661 ****       134.2500 138.5000  96.7500 Du        
   7662 ****       134.2500 138.5000  97.0000 Du        
   7663 ****       134.2500 138.5000  97.2500 Du        
   7664 ****       134.2500 138.5000 102.7500 Du        
   7665 ****       134.2500 138.5000 103.0000 Du        
   7666 ****       134.2500 138.5000 103.2500 Du        
   7667 ****       134.2500 138.5000 103.5000 Du        
   7668 ****       134.2500 138.5000 103.7500 Du        
   7669 ****       134.2500 138.5000 104.0000 Du        
   7670 ****       134.2500 138.5000 104.2500 Du        
   7671 ****       134.2500 138.5000 104.5000 Du        
   7672 ****       134.2500 138.5000 104.7500 Du        
   7673 ****       134.2500 138.5000 105.0000 Du        
   7674 ****       134.2500 138.5000 105.2500 Du        
   7675 ****       134.2500 138.5000 105.5000 Du        
   7676 ****       134.2500 138.5000 105.7500 Du        
   7677 ****       134.2500 138.5000 106.0000 Du        
   7678 ****       134.2500 138.7500  95.7500 Du        
   7679 ****       134.2500 138.7500  96.0000 Du        
   7680 ****       134.2500 138.7500  96.2500 Du        
   7681 ****       134.2500 138.7500  96.5000 Du        
   7682 ****       134.2500 138.7500  96.7500 Du        
   7683 ****       134.2500 138.7500  97.0000 Du        
   7684 ****       134.2500 138.7500  97.2500 Du        
   7685 ****       134.2500 138.7500 102.5000 Du        
   7686 ****       134.2500 138.7500 102.7500 Du        
   7687 ****       134.2500 138.7500 103.0000 Du        
   7688 ****       134.2500 138.7500 103.2500 Du        
   7689 ****       134.2500 138.7500 103.5000 Du        
   7690 ****       134.2500 138.7500 103.7500 Du        
   7691 ****       134.2500 138.7500 104.0000 Du        
   7692 ****       134.2500 138.7500 104.2500 Du        
   7693 ****       134.2500 138.7500 104.5000 Du        
   7694 ****       134.2500 138.7500 104.7500 Du        
   7695 ****       134.2500 138.7500 105.0000 Du        
   7696 ****       134.2500 138.7500 105.2500 Du        
   7697 ****       134.2500 138.7500 105.5000 Du        
   7698 ****       134.2500 138.7500 105.7500 Du        
   7699 ****       134.2500 139.0000  95.7500 Du        
   7700 ****       134.2500 139.0000  96.0000 Du        
   7701 ****       134.2500 139.0000  96.2500 Du        
   7702 ****       134.2500 139.0000  96.5000 Du        
   7703 ****       134.2500 139.0000  96.7500 Du        
   7704 ****       134.2500 139.0000  97.0000 Du        
   7705 ****       134.2500 139.0000  97.2500 Du        
   7706 ****       134.2500 139.0000  97.5000 Du        
   7707 ****       134.2500 139.0000 102.5000 Du        
   7708 ****       134.2500 139.0000 102.7500 Du        
   7709 ****       134.2500 139.0000 103.0000 Du        
   7710 ****       134.2500 139.0000 103.2500 Du        
   7711 ****       134.2500 139.0000 103.5000 Du        
   7712 ****       134.2500 139.0000 103.7500 Du        
   7713 ****       134.2500 139.0000 104.0000 Du        
   7714 ****       134.2500 139.0000 104.2500 Du        
   7715 ****       134.2500 139.0000 104.5000 Du        
   7716 ****       134.2500 139.0000 104.7500 Du        
   7717 ****       134.2500 139.0000 105.0000 Du        
   7718 ****       134.2500 139.0000 105.2500 Du        
   7719 ****       134.2500 139.0000 105.5000 Du        
   7720 ****       134.2500 139.2500  96.2500 Du        
   7721 ****       134.2500 139.2500  96.5000 Du        
   7722 ****       134.2500 139.2500  96.7500 Du        
   7723 ****       134.2500 139.2500  97.0000 Du        
   7724 ****       134.2500 139.2500  97.2500 Du        
   7725 ****       134.2500 139.2500 103.0000 Du        
   7726 ****       134.2500 139.2500 103.2500 Du        
   7727 ****       134.2500 139.2500 103.5000 Du        
   7728 ****       134.2500 139.2500 103.7500 Du        
   7729 ****       134.2500 139.2500 104.0000 Du        
   7730 ****       134.2500 139.2500 104.2500 Du        
   7731 ****       134.2500 139.2500 104.5000 Du        
   7732 ****       134.2500 139.2500 104.7500 Du        
   7733 ****       134.2500 139.2500 105.0000 Du        
   7734 ****       134.2500 139.2500 105.2500 Du        
   7735 ****       134.2500 139.5000 104.2500 Du        
   7736 ****       134.5000 136.2500 104.0000 Du        
   7737 ****       134.5000 136.5000 103.7500 Du        
   7738 ****       134.5000 136.5000 104.0000 Du        
   7739 ****       134.5000 136.5000 104.2500 Du        
   7740 ****       134.5000 136.7500  89.5000 Du        
   7741 ****       134.5000 136.7500 103.7500 Du        
   7742 ****       134.5000 136.7500 104.0000 Du        
   7743 ****       134.5000 136.7500 104.2500 Du        
   7744 ****       134.5000 136.7500 104.5000 Du        
   7745 ****       134.5000 137.0000  89.0000 Du        
   7746 ****       134.5000 137.0000  89.2500 Du        
   7747 ****       134.5000 137.0000  89.5000 Du        
   7748 ****       134.5000 137.0000  89.7500 Du        
   7749 ****       134.5000 137.0000 103.5000 Du        
   7750 ****       134.5000 137.0000 103.7500 Du        
   7751 ****       134.5000 137.0000 104.0000 Du        
   7752 ****       134.5000 137.0000 104.2500 Du        
   7753 ****       134.5000 137.0000 104.5000 Du        
   7754 ****       134.5000 137.0000 104.7500 Du        
   7755 ****       134.5000 137.2500  88.7500 Du        
   7756 ****       134.5000 137.2500  89.0000 Du        
   7757 ****       134.5000 137.2500  89.2500 Du        
   7758 ****       134.5000 137.2500  89.5000 Du        
   7759 ****       134.5000 137.2500  89.7500 Du        
   7760 ****       134.5000 137.2500  90.0000 Du        
   7761 ****       134.5000 137.2500  97.0000 Du        
   7762 ****       134.5000 137.2500 103.5000 Du        
   7763 ****       134.5000 137.2500 103.7500 Du        
   7764 ****       134.5000 137.2500 104.0000 Du        
   7765 ****       134.5000 137.2500 104.2500 Du        
   7766 ****       134.5000 137.2500 104.5000 Du        
   7767 ****       134.5000 137.2500 104.7500 Du        
   7768 ****       134.5000 137.2500 105.0000 Du        
   7769 ****       134.5000 137.5000  89.0000 Du        
   7770 ****       134.5000 137.5000  89.2500 Du        
   7771 ****       134.5000 137.5000  89.5000 Du        
   7772 ****       134.5000 137.5000  89.7500 Du        
   7773 ****       134.5000 137.5000  90.0000 Du        
   7774 ****       134.5000 137.5000  96.7500 Du        
   7775 ****       134.5000 137.5000  97.0000 Du        
   7776 ****       134.5000 137.5000 103.2500 Du        
   7777 ****       134.5000 137.5000 103.5000 Du        
   7778 ****       134.5000 137.5000 103.7500 Du        
   7779 ****       134.5000 137.5000 104.0000 Du        
   7780 ****       134.5000 137.5000 104.2500 Du        
   7781 ****       134.5000 137.5000 104.5000 Du        
   7782 ****       134.5000 137.5000 104.7500 Du        
   7783 ****       134.5000 137.5000 105.0000 Du        
   7784 ****       134.5000 137.5000 105.2500 Du        
   7785 ****       134.5000 137.5000 105.5000 Du        
   7786 ****       134.5000 137.7500  89.2500 Du        
   7787 ****       134.5000 137.7500  89.5000 Du        
   7788 ****       134.5000 137.7500  89.7500 Du        
   7789 ****       134.5000 137.7500  90.0000 Du        
   7790 ****       134.5000 137.7500  96.7500 Du        
   7791 ****       134.5000 137.7500  97.0000 Du        
   7792 ****       134.5000 137.7500 103.0000 Du        
   7793 ****       134.5000 137.7500 103.2500 Du        
   7794 ****       134.5000 137.7500 103.5000 Du        
   7795 ****       134.5000 137.7500 103.7500 Du        
   7796 ****       134.5000 137.7500 104.0000 Du        
   7797 ****       134.5000 137.7500 104.2500 Du        
   7798 ****       134.5000 137.7500 104.5000 Du        
   7799 ****       134.5000 137.7500 104.7500 Du        
   7800 ****       134.5000 137.7500 105.0000 Du        
   7801 ****       134.5000 137.7500 105.2500 Du        
   7802 ****       134.5000 137.7500 105.5000 Du        
   7803 ****       134.5000 137.7500 105.7500 Du        
   7804 ****       134.5000 137.7500 106.0000 Du        
   7805 ****       134.5000 137.7500 106.2500 Du        
   7806 ****       134.5000 138.0000  89.5000 Du        
   7807 ****       134.5000 138.0000  89.7500 Du        
   7808 ****       134.5000 138.0000  90.0000 Du        
   7809 ****       134.5000 138.0000  90.2500 Du        
   7810 ****       134.5000 138.0000  96.5000 Du        
   7811 ****       134.5000 138.0000  96.7500 Du        
   7812 ****       134.5000 138.0000  97.0000 Du        
   7813 ****       134.5000 138.0000  97.2500 Du        
   7814 ****       134.5000 138.0000 103.0000 Du        
   7815 ****       134.5000 138.0000 103.2500 Du        
   7816 ****       134.5000 138.0000 103.5000 Du        
   7817 ****       134.5000 138.0000 103.7500 Du        
   7818 ****       134.5000 138.0000 104.0000 Du        
   7819 ****       134.5000 138.0000 104.2500 Du        
   7820 ****       134.5000 138.0000 104.5000 Du        
   7821 ****       134.5000 138.0000 104.7500 Du        
   7822 ****       134.5000 138.0000 105.0000 Du        
   7823 ****       134.5000 138.0000 105.2500 Du        
   7824 ****       134.5000 138.0000 105.5000 Du        
   7825 ****       134.5000 138.0000 105.7500 Du        
   7826 ****       134.5000 138.0000 106.0000 Du        
   7827 ****       134.5000 138.0000 106.2500 Du        
   7828 ****       134.5000 138.0000 106.5000 Du        
   7829 ****       134.5000 138.2500  96.2500 Du        
   7830 ****       134.5000 138.2500  96.5000 Du        
   7831 ****       134.5000 138.2500  96.7500 Du        
   7832 ****       134.5000 138.2500  97.0000 Du        
   7833 ****       134.5000 138.2500  97.2500 Du        
   7834 ****       134.5000 138.2500 102.7500 Du        
   7835 ****       134.5000 138.2500 103.0000 Du        
   7836 ****       134.5000 138.2500 103.2500 Du        
   7837 ****       134.5000 138.2500 103.5000 Du        
   7838 ****       134.5000 138.2500 103.7500 Du        
   7839 ****       134.5000 138.2500 104.0000 Du        
   7840 ****       134.5000 138.2500 104.2500 Du        
   7841 ****       134.5000 138.2500 104.5000 Du        
   7842 ****       134.5000 138.2500 104.7500 Du        
   7843 ****       134.5000 138.2500 105.0000 Du        
   7844 ****       134.5000 138.2500 105.2500 Du        
   7845 ****       134.5000 138.2500 105.5000 Du        
   7846 ****       134.5000 138.2500 105.7500 Du        
   7847 ****       134.5000 138.2500 106.0000 Du        
   7848 ****       134.5000 138.2500 106.2500 Du        
   7849 ****       134.5000 138.5000  96.2500 Du        
   7850 ****       134.5000 138.5000  96.5000 Du        
   7851 ****       134.5000 138.5000  96.7500 Du        
   7852 ****       134.5000 138.5000  97.0000 Du        
   7853 ****       134.5000 138.5000  97.2500 Du        
   7854 ****       134.5000 138.5000 102.5000 Du        
   7855 ****       134.5000 138.5000 102.7500 Du        
   7856 ****       134.5000 138.5000 103.0000 Du        
   7857 ****       134.5000 138.5000 103.2500 Du        
   7858 ****       134.5000 138.5000 103.5000 Du        
   7859 ****       134.5000 138.5000 103.7500 Du        
   7860 ****       134.5000 138.5000 104.0000 Du        
   7861 ****       134.5000 138.5000 104.2500 Du        
   7862 ****       134.5000 138.5000 104.5000 Du        
   7863 ****       134.5000 138.5000 104.7500 Du        
   7864 ****       134.5000 138.5000 105.0000 Du        
   7865 ****       134.5000 138.5000 105.2500 Du        
   7866 ****       134.5000 138.5000 105.5000 Du        
   7867 ****       134.5000 138.5000 105.7500 Du        
   7868 ****       134.5000 138.5000 106.0000 Du        
   7869 ****       134.5000 138.7500  96.0000 Du        
   7870 ****       134.5000 138.7500  96.2500 Du        
   7871 ****       134.5000 138.7500  96.5000 Du        
   7872 ****       134.5000 138.7500  96.7500 Du        
   7873 ****       134.5000 138.7500  97.0000 Du        
   7874 ****       134.5000 138.7500  97.2500 Du        
   7875 ****       134.5000 138.7500 102.5000 Du        
   7876 ****       134.5000 138.7500 102.7500 Du        
   7877 ****       134.5000 138.7500 103.0000 Du        
   7878 ****       134.5000 138.7500 103.2500 Du        
   7879 ****       134.5000 138.7500 103.5000 Du        
   7880 ****       134.5000 138.7500 103.7500 Du        
   7881 ****       134.5000 138.7500 104.0000 Du        
   7882 ****       134.5000 138.7500 104.2500 Du        
   7883 ****       134.5000 138.7500 104.5000 Du        
   7884 ****       134.5000 138.7500 104.7500 Du        
   7885 ****       134.5000 138.7500 105.0000 Du        
   7886 ****       134.5000 138.7500 105.2500 Du        
   7887 ****       134.5000 138.7500 105.5000 Du        
   7888 ****       134.5000 138.7500 105.7500 Du        
   7889 ****       134.5000 139.0000  95.7500 Du        
   7890 ****       134.5000 139.0000  96.0000 Du        
   7891 ****       134.5000 139.0000  96.2500 Du        
   7892 ****       134.5000 139.0000  96.5000 Du        
   7893 ****       134.5000 139.0000  96.7500 Du        
   7894 ****       134.5000 139.0000  97.0000 Du        
   7895 ****       134.5000 139.0000  97.2500 Du        
   7896 ****       134.5000 139.0000 102.5000 Du        
   7897 ****       134.5000 139.0000 102.7500 Du        
   7898 ****       134.5000 139.0000 103.0000 Du        
   7899 ****       134.5000 139.0000 103.2500 Du        
   7900 ****       134.5000 139.0000 103.5000 Du        
   7901 ****       134.5000 139.0000 103.7500 Du        
   7902 ****       134.5000 139.0000 104.0000 Du        
   7903 ****       134.5000 139.0000 104.2500 Du        
   7904 ****       134.5000 139.0000 104.5000 Du        
   7905 ****       134.5000 139.0000 104.7500 Du        
   7906 ****       134.5000 139.0000 105.0000 Du        
   7907 ****       134.5000 139.0000 105.2500 Du        
   7908 ****       134.5000 139.0000 105.5000 Du        
   7909 ****       134.5000 139.2500  96.0000 Du        
   7910 ****       134.5000 139.2500  96.2500 Du        
   7911 ****       134.5000 139.2500  96.5000 Du        
   7912 ****       134.5000 139.2500  96.7500 Du        
   7913 ****       134.5000 139.2500  97.0000 Du        
   7914 ****       134.5000 139.2500  97.2500 Du        
   7915 ****       134.5000 139.2500 102.5000 Du        
   7916 ****       134.5000 139.2500 102.7500 Du        
   7917 ****       134.5000 139.2500 103.0000 Du        
   7918 ****       134.5000 139.2500 103.2500 Du        
   7919 ****       134.5000 139.2500 103.5000 Du        
   7920 ****       134.5000 139.2500 103.7500 Du        
   7921 ****       134.5000 139.2500 104.0000 Du        
   7922 ****       134.5000 139.2500 104.2500 Du        
   7923 ****       134.5000 139.2500 104.5000 Du        
   7924 ****       134.5000 139.2500 104.7500 Du        
   7925 ****       134.5000 139.2500 105.0000 Du        
   7926 ****       134.5000 139.2500 105.2500 Du        
   7927 ****       134.7500 135.2500 104.0000 Du        
   7928 ****       134.7500 135.5000 104.0000 Du        
   7929 ****       134.7500 135.7500 104.0000 Du        
   7930 ****       134.7500 135.7500 104.2500 Du        
   7931 ****       134.7500 136.0000 103.7500 Du        
   7932 ****       134.7500 136.0000 104.0000 Du        
   7933 ****       134.7500 136.0000 104.2500 Du        
   7934 ****       134.7500 136.2500 103.7500 Du        
   7935 ****       134.7500 136.2500 104.0000 Du        
   7936 ****       134.7500 136.2500 104.2500 Du        
   7937 ****       134.7500 136.2500 104.5000 Du        
   7938 ****       134.7500 136.5000 103.7500 Du        
   7939 ****       134.7500 136.5000 104.0000 Du        
   7940 ****       134.7500 136.5000 104.2500 Du        
   7941 ****       134.7500 136.5000 104.5000 Du        
   7942 ****       134.7500 136.7500 103.5000 Du        
   7943 ****       134.7500 136.7500 103.7500 Du        
   7944 ****       134.7500 136.7500 104.0000 Du        
   7945 ****       134.7500 136.7500 104.2500 Du        
   7946 ****       134.7500 136.7500 104.5000 Du        
   7947 ****       134.7500 136.7500 104.7500 Du        
   7948 ****       134.7500 137.0000  89.2500 Du        
   7949 ****       134.7500 137.0000  89.5000 Du        
   7950 ****       134.7500 137.0000  89.7500 Du        
   7951 ****       134.7500 137.0000  97.0000 Du        
   7952 ****       134.7500 137.0000 103.2500 Du        
   7953 ****       134.7500 137.0000 103.5000 Du        
   7954 ****       134.7500 137.0000 103.7500 Du        
   7955 ****       134.7500 137.0000 104.0000 Du        
   7956 ****       134.7500 137.0000 104.2500 Du        
   7957 ****       134.7500 137.0000 104.5000 Du        
   7958 ****       134.7500 137.0000 104.7500 Du        
   7959 ****       134.7500 137.0000 105.0000 Du        
   7960 ****       134.7500 137.2500  89.0000 Du        
   7961 ****       134.7500 137.2500  89.2500 Du        
   7962 ****       134.7500 137.2500  89.5000 Du        
   7963 ****       134.7500 137.2500  89.7500 Du        
   7964 ****       134.7500 137.2500  97.0000 Du        
   7965 ****       134.7500 137.2500 103.2500 Du        
   7966 ****       134.7500 137.2500 103.5000 Du        
   7967 ****       134.7500 137.2500 103.7500 Du        
   7968 ****       134.7500 137.2500 104.0000 Du        
   7969 ****       134.7500 137.2500 104.2500 Du        
   7970 ****       134.7500 137.2500 104.5000 Du        
   7971 ****       134.7500 137.2500 104.7500 Du        
   7972 ****       134.7500 137.2500 105.0000 Du        
   7973 ****       134.7500 137.2500 105.2500 Du        
   7974 ****       134.7500 137.2500 105.5000 Du        
   7975 ****       134.7500 137.5000  89.0000 Du        
   7976 ****       134.7500 137.5000  89.2500 Du        
   7977 ****       134.7500 137.5000  89.5000 Du        
   7978 ****       134.7500 137.5000  89.7500 Du        
   7979 ****       134.7500 137.5000  96.7500 Du        
   7980 ****       134.7500 137.5000  97.0000 Du        
   7981 ****       134.7500 137.5000 103.0000 Du        
   7982 ****       134.7500 137.5000 103.2500 Du        
   7983 ****       134.7500 137.5000 103.5000 Du        
   7984 ****       134.7500 137.5000 103.7500 Du        
   7985 ****       134.7500 137.5000 104.0000 Du        
   7986 ****       134.7500 137.5000 104.2500 Du        
   7987 ****       134.7500 137.5000 104.5000 Du        
   7988 ****       134.7500 137.5000 104.7500 Du        
   7989 ****       134.7500 137.5000 105.0000 Du        
   7990 ****       134.7500 137.5000 105.2500 Du        
   7991 ****       134.7500 137.5000 105.5000 Du        
   7992 ****       134.7500 137.5000 105.7500 Du        
   7993 ****       134.7500 137.5000 106.0000 Du        
   7994 ****       134.7500 137.7500  89.2500 Du        
   7995 ****       134.7500 137.7500  89.5000 Du        
   7996 ****       134.7500 137.7500  89.7500 Du        
   7997 ****       134.7500 137.7500  90.0000 Du        
   7998 ****       134.7500 137.7500  96.7500 Du        
   7999 ****       134.7500 137.7500  97.0000 Du        
   8000 ****       134.7500 137.7500  97.2500 Du        
   8001 ****       134.7500 137.7500 103.0000 Du        
   8002 ****       134.7500 137.7500 103.2500 Du        
   8003 ****       134.7500 137.7500 103.5000 Du        
   8004 ****       134.7500 137.7500 103.7500 Du        
   8005 ****       134.7500 137.7500 104.0000 Du        
   8006 ****       134.7500 137.7500 104.2500 Du        
   8007 ****       134.7500 137.7500 104.5000 Du        
   8008 ****       134.7500 137.7500 104.7500 Du        
   8009 ****       134.7500 137.7500 105.0000 Du        
   8010 ****       134.7500 137.7500 105.2500 Du        
   8011 ****       134.7500 137.7500 105.5000 Du        
   8012 ****       134.7500 137.7500 105.7500 Du        
   8013 ****       134.7500 137.7500 106.0000 Du        
   8014 ****       134.7500 137.7500 106.2500 Du        
   8015 ****       134.7500 138.0000  89.7500 Du        
   8016 ****       134.7500 138.0000  90.0000 Du        
   8017 ****       134.7500 138.0000  90.2500 Du        
   8018 ****       134.7500 138.0000  96.5000 Du        
   8019 ****       134.7500 138.0000  96.7500 Du        
   8020 ****       134.7500 138.0000  97.0000 Du        
   8021 ****       134.7500 138.0000  97.2500 Du        
   8022 ****       134.7500 138.0000 102.7500 Du        
   8023 ****       134.7500 138.0000 103.0000 Du        
   8024 ****       134.7500 138.0000 103.2500 Du        
   8025 ****       134.7500 138.0000 103.5000 Du        
   8026 ****       134.7500 138.0000 103.7500 Du        
   8027 ****       134.7500 138.0000 104.0000 Du        
   8028 ****       134.7500 138.0000 104.2500 Du        
   8029 ****       134.7500 138.0000 104.5000 Du        
   8030 ****       134.7500 138.0000 104.7500 Du        
   8031 ****       134.7500 138.0000 105.0000 Du        
   8032 ****       134.7500 138.0000 105.2500 Du        
   8033 ****       134.7500 138.0000 105.5000 Du        
   8034 ****       134.7500 138.0000 105.7500 Du        
   8035 ****       134.7500 138.0000 106.0000 Du        
   8036 ****       134.7500 138.0000 106.2500 Du        
   8037 ****       134.7500 138.2500  96.2500 Du        
   8038 ****       134.7500 138.2500  96.5000 Du        
   8039 ****       134.7500 138.2500  96.7500 Du        
   8040 ****       134.7500 138.2500  97.0000 Du        
   8041 ****       134.7500 138.2500  97.2500 Du        
   8042 ****       134.7500 138.2500 102.7500 Du        
   8043 ****       134.7500 138.2500 103.0000 Du        
   8044 ****       134.7500 138.2500 103.2500 Du        
   8045 ****       134.7500 138.2500 103.5000 Du        
   8046 ****       134.7500 138.2500 103.7500 Du        
   8047 ****       134.7500 138.2500 104.0000 Du        
   8048 ****       134.7500 138.2500 104.2500 Du        
   8049 ****       134.7500 138.2500 104.5000 Du        
   8050 ****       134.7500 138.2500 104.7500 Du        
   8051 ****       134.7500 138.2500 105.0000 Du        
   8052 ****       134.7500 138.2500 105.2500 Du        
   8053 ****       134.7500 138.2500 105.5000 Du        
   8054 ****       134.7500 138.2500 105.7500 Du        
   8055 ****       134.7500 138.2500 106.0000 Du        
   8056 ****       134.7500 138.2500 106.2500 Du        
   8057 ****       134.7500 138.5000  96.2500 Du        
   8058 ****       134.7500 138.5000  96.5000 Du        
   8059 ****       134.7500 138.5000  96.7500 Du        
   8060 ****       134.7500 138.5000  97.0000 Du        
   8061 ****       134.7500 138.5000  97.2500 Du        
   8062 ****       134.7500 138.5000 102.5000 Du        
   8063 ****       134.7500 138.5000 102.7500 Du        
   8064 ****       134.7500 138.5000 103.0000 Du        
   8065 ****       134.7500 138.5000 103.2500 Du        
   8066 ****       134.7500 138.5000 103.5000 Du        
   8067 ****       134.7500 138.5000 103.7500 Du        
   8068 ****       134.7500 138.5000 104.0000 Du        
   8069 ****       134.7500 138.5000 104.2500 Du        
   8070 ****       134.7500 138.5000 104.5000 Du        
   8071 ****       134.7500 138.5000 104.7500 Du        
   8072 ****       134.7500 138.5000 105.0000 Du        
   8073 ****       134.7500 138.5000 105.2500 Du        
   8074 ****       134.7500 138.5000 105.5000 Du        
   8075 ****       134.7500 138.5000 105.7500 Du        
   8076 ****       134.7500 138.5000 106.0000 Du        
   8077 ****       134.7500 138.7500  95.7500 Du        
   8078 ****       134.7500 138.7500  96.0000 Du        
   8079 ****       134.7500 138.7500  96.2500 Du        
   8080 ****       134.7500 138.7500  96.5000 Du        
   8081 ****       134.7500 138.7500  96.7500 Du        
   8082 ****       134.7500 138.7500  97.0000 Du        
   8083 ****       134.7500 138.7500  97.2500 Du        
   8084 ****       134.7500 138.7500 102.2500 Du        
   8085 ****       134.7500 138.7500 102.5000 Du        
   8086 ****       134.7500 138.7500 102.7500 Du        
   8087 ****       134.7500 138.7500 103.0000 Du        
   8088 ****       134.7500 138.7500 103.2500 Du        
   8089 ****       134.7500 138.7500 103.5000 Du        
   8090 ****       134.7500 138.7500 103.7500 Du        
   8091 ****       134.7500 138.7500 104.0000 Du        
   8092 ****       134.7500 138.7500 104.2500 Du        
   8093 ****       134.7500 138.7500 104.5000 Du        
   8094 ****       134.7500 138.7500 104.7500 Du        
   8095 ****       134.7500 138.7500 105.0000 Du        
   8096 ****       134.7500 138.7500 105.2500 Du        
   8097 ****       134.7500 138.7500 105.5000 Du        
   8098 ****       134.7500 138.7500 105.7500 Du        
   8099 ****       134.7500 139.0000  95.7500 Du        
   8100 ****       134.7500 139.0000  96.0000 Du        
   8101 ****       134.7500 139.0000  96.2500 Du        
   8102 ****       134.7500 139.0000  96.5000 Du        
   8103 ****       134.7500 139.0000  96.7500 Du        
   8104 ****       134.7500 139.0000  97.0000 Du        
   8105 ****       134.7500 139.0000  97.2500 Du        
   8106 ****       134.7500 139.0000 102.2500 Du        
   8107 ****       134.7500 139.0000 102.5000 Du        
   8108 ****       134.7500 139.0000 102.7500 Du        
   8109 ****       134.7500 139.0000 103.0000 Du        
   8110 ****       134.7500 139.0000 103.2500 Du        
   8111 ****       134.7500 139.0000 103.5000 Du        
   8112 ****       134.7500 139.0000 103.7500 Du        
   8113 ****       134.7500 139.0000 104.0000 Du        
   8114 ****       134.7500 139.0000 104.2500 Du        
   8115 ****       134.7500 139.0000 104.5000 Du        
   8116 ****       134.7500 139.0000 104.7500 Du        
   8117 ****       134.7500 139.0000 105.0000 Du        
   8118 ****       134.7500 139.0000 105.2500 Du        
   8119 ****       134.7500 139.0000 105.5000 Du        
   8120 ****       134.7500 139.2500  95.5000 Du        
   8121 ****       134.7500 139.2500  95.7500 Du        
   8122 ****       134.7500 139.2500  96.0000 Du        
   8123 ****       134.7500 139.2500  96.2500 Du        
   8124 ****       134.7500 139.2500  96.5000 Du        
   8125 ****       134.7500 139.2500  96.7500 Du        
   8126 ****       134.7500 139.2500  97.0000 Du        
   8127 ****       134.7500 139.2500 102.5000 Du        
   8128 ****       134.7500 139.2500 102.7500 Du        
   8129 ****       134.7500 139.2500 103.0000 Du        
   8130 ****       134.7500 139.2500 103.2500 Du        
   8131 ****       134.7500 139.2500 103.5000 Du        
   8132 ****       134.7500 139.2500 103.7500 Du        
   8133 ****       134.7500 139.2500 104.0000 Du        
   8134 ****       134.7500 139.2500 104.2500 Du        
   8135 ****       134.7500 139.2500 104.5000 Du        
   8136 ****       134.7500 139.2500 104.7500 Du        
   8137 ****       134.7500 139.2500 105.0000 Du        
   8138 ****       134.7500 139.2500 105.2500 Du        
   8139 ****       135.0000 134.2500 104.2500 Du        
   8140 ****       135.0000 134.5000 104.0000 Du        
   8141 ****       135.0000 134.5000 104.2500 Du        
   8142 ****       135.0000 134.5000 104.5000 Du        
   8143 ****       135.0000 134.7500 104.0000 Du        
   8144 ****       135.0000 134.7500 104.2500 Du        
   8145 ****       135.0000 134.7500 104.5000 Du        
   8146 ****       135.0000 135.0000 103.7500 Du        
   8147 ****       135.0000 135.0000 104.0000 Du        
   8148 ****       135.0000 135.0000 104.2500 Du        
   8149 ****       135.0000 135.0000 104.5000 Du        
   8150 ****       135.0000 135.2500 103.7500 Du        
   8151 ****       135.0000 135.2500 104.0000 Du        
   8152 ****       135.0000 135.2500 104.2500 Du        
   8153 ****       135.0000 135.2500 104.5000 Du        
   8154 ****       135.0000 135.5000 103.7500 Du        
   8155 ****       135.0000 135.5000 104.0000 Du        
   8156 ****       135.0000 135.5000 104.2500 Du        
   8157 ****       135.0000 135.5000 104.5000 Du        
   8158 ****       135.0000 135.7500 103.7500 Du        
   8159 ****       135.0000 135.7500 104.0000 Du        
   8160 ****       135.0000 135.7500 104.2500 Du        
   8161 ****       135.0000 135.7500 104.5000 Du        
   8162 ****       135.0000 136.0000 103.5000 Du        
   8163 ****       135.0000 136.0000 103.7500 Du        
   8164 ****       135.0000 136.0000 104.0000 Du        
   8165 ****       135.0000 136.0000 104.2500 Du        
   8166 ****       135.0000 136.0000 104.5000 Du        
   8167 ****       135.0000 136.2500 103.5000 Du        
   8168 ****       135.0000 136.2500 103.7500 Du        
   8169 ****       135.0000 136.2500 104.0000 Du        
   8170 ****       135.0000 136.2500 104.2500 Du        
   8171 ****       135.0000 136.2500 104.5000 Du        
   8172 ****       135.0000 136.2500 104.7500 Du        
   8173 ****       135.0000 136.5000 103.5000 Du        
   8174 ****       135.0000 136.5000 103.7500 Du        
   8175 ****       135.0000 136.5000 104.0000 Du        
   8176 ****       135.0000 136.5000 104.2500 Du        
   8177 ****       135.0000 136.5000 104.5000 Du        
   8178 ****       135.0000 136.5000 104.7500 Du        
   8179 ****       135.0000 136.7500 103.2500 Du        
   8180 ****       135.0000 136.7500 103.5000 Du        
   8181 ****       135.0000 136.7500 103.7500 Du        
   8182 ****       135.0000 136.7500 104.0000 Du        
   8183 ****       135.0000 136.7500 104.2500 Du        
   8184 ****       135.0000 136.7500 104.5000 Du        
   8185 ****       135.0000 136.7500 104.7500 Du        
   8186 ****       135.0000 136.7500 105.0000 Du        
   8187 ****       135.0000 137.0000  89.5000 Du        
   8188 ****       135.0000 137.0000  89.7500 Du        
   8189 ****       135.0000 137.0000  97.0000 Du        
   8190 ****       135.0000 137.0000  97.2500 Du        
   8191 ****       135.0000 137.0000 103.2500 Du        
   8192 ****       135.0000 137.0000 103.5000 Du        
   8193 ****       135.0000 137.0000 103.7500 Du        
   8194 ****       135.0000 137.0000 104.0000 Du        
   8195 ****       135.0000 137.0000 104.2500 Du        
   8196 ****       135.0000 137.0000 104.5000 Du        
   8197 ****       135.0000 137.0000 104.7500 Du        
   8198 ****       135.0000 137.0000 105.0000 Du        
   8199 ****       135.0000 137.0000 105.2500 Du        
   8200 ****       135.0000 137.0000 105.5000 Du        
   8201 ****       135.0000 137.2500  89.2500 Du        
   8202 ****       135.0000 137.2500  89.5000 Du        
   8203 ****       135.0000 137.2500  89.7500 Du        
   8204 ****       135.0000 137.2500  96.7500 Du        
   8205 ****       135.0000 137.2500  97.0000 Du        
   8206 ****       135.0000 137.2500  97.2500 Du        
   8207 ****       135.0000 137.2500 103.0000 Du        
   8208 ****       135.0000 137.2500 103.2500 Du        
   8209 ****       135.0000 137.2500 103.5000 Du        
   8210 ****       135.0000 137.2500 103.7500 Du        
   8211 ****       135.0000 137.2500 104.0000 Du        
   8212 ****       135.0000 137.2500 104.2500 Du        
   8213 ****       135.0000 137.2500 104.5000 Du        
   8214 ****       135.0000 137.2500 104.7500 Du        
   8215 ****       135.0000 137.2500 105.0000 Du        
   8216 ****       135.0000 137.2500 105.2500 Du        
   8217 ****       135.0000 137.2500 105.5000 Du        
   8218 ****       135.0000 137.2500 105.7500 Du        
   8219 ****       135.0000 137.2500 106.0000 Du        
   8220 ****       135.0000 137.5000  89.2500 Du        
   8221 ****       135.0000 137.5000  89.5000 Du        
   8222 ****       135.0000 137.5000  89.7500 Du        
   8223 ****       135.0000 137.5000  96.7500 Du        
   8224 ****       135.0000 137.5000  97.0000 Du        
   8225 ****       135.0000 137.5000  97.2500 Du        
   8226 ****       135.0000 137.5000 103.0000 Du        
   8227 ****       135.0000 137.5000 103.2500 Du        
   8228 ****       135.0000 137.5000 103.5000 Du        
   8229 ****       135.0000 137.5000 103.7500 Du        
   8230 ****       135.0000 137.5000 104.0000 Du        
   8231 ****       135.0000 137.5000 104.2500 Du        
   8232 ****       135.0000 137.5000 104.5000 Du        
   8233 ****       135.0000 137.5000 104.7500 Du        
   8234 ****       135.0000 137.5000 105.0000 Du        
   8235 ****       135.0000 137.5000 105.2500 Du        
   8236 ****       135.0000 137.5000 105.5000 Du        
   8237 ****       135.0000 137.5000 105.7500 Du        
   8238 ****       135.0000 137.5000 106.0000 Du        
   8239 ****       135.0000 137.7500  89.7500 Du        
   8240 ****       135.0000 137.7500  90.0000 Du        
   8241 ****       135.0000 137.7500  96.7500 Du        
   8242 ****       135.0000 137.7500  97.0000 Du        
   8243 ****       135.0000 137.7500  97.2500 Du        
   8244 ****       135.0000 137.7500 102.7500 Du        
   8245 ****       135.0000 137.7500 103.0000 Du        
   8246 ****       135.0000 137.7500 103.2500 Du        
   8247 ****       135.0000 137.7500 103.5000 Du        
   8248 ****       135.0000 137.7500 103.7500 Du        
   8249 ****       135.0000 137.7500 104.0000 Du        
   8250 ****       135.0000 137.7500 104.2500 Du        
   8251 ****       135.0000 137.7500 104.5000 Du        
   8252 ****       135.0000 137.7500 104.7500 Du        
   8253 ****       135.0000 137.7500 105.0000 Du        
   8254 ****       135.0000 137.7500 105.2500 Du        
   8255 ****       135.0000 137.7500 105.5000 Du        
   8256 ****       135.0000 137.7500 105.7500 Du        
   8257 ****       135.0000 137.7500 106.0000 Du        
   8258 ****       135.0000 137.7500 106.2500 Du        
   8259 ****       135.0000 138.0000  90.0000 Du        
   8260 ****       135.0000 138.0000  90.2500 Du        
   8261 ****       135.0000 138.0000  96.5000 Du        
   8262 ****       135.0000 138.0000  96.7500 Du        
   8263 ****       135.0000 138.0000  97.0000 Du        
   8264 ****       135.0000 138.0000  97.2500 Du        
   8265 ****       135.0000 138.0000 102.7500 Du        
   8266 ****       135.0000 138.0000 103.0000 Du        
   8267 ****       135.0000 138.0000 103.2500 Du        
   8268 ****       135.0000 138.0000 103.5000 Du        
   8269 ****       135.0000 138.0000 103.7500 Du        
   8270 ****       135.0000 138.0000 104.0000 Du        
   8271 ****       135.0000 138.0000 104.2500 Du        
   8272 ****       135.0000 138.0000 104.5000 Du        
   8273 ****       135.0000 138.0000 104.7500 Du        
   8274 ****       135.0000 138.0000 105.0000 Du        
   8275 ****       135.0000 138.0000 105.2500 Du        
   8276 ****       135.0000 138.0000 105.5000 Du        
   8277 ****       135.0000 138.0000 105.7500 Du        
   8278 ****       135.0000 138.0000 106.0000 Du        
   8279 ****       135.0000 138.0000 106.2500 Du        
   8280 ****       135.0000 138.2500  96.5000 Du        
   8281 ****       135.0000 138.2500  96.7500 Du        
   8282 ****       135.0000 138.2500  97.0000 Du        
   8283 ****       135.0000 138.2500  97.2500 Du        
   8284 ****       135.0000 138.2500 102.5000 Du        
   8285 ****       135.0000 138.2500 102.7500 Du        
   8286 ****       135.0000 138.2500 103.0000 Du        
   8287 ****       135.0000 138.2500 103.2500 Du        
   8288 ****       135.0000 138.2500 103.5000 Du        
   8289 ****       135.0000 138.2500 103.7500 Du        
   8290 ****       135.0000 138.2500 104.0000 Du        
   8291 ****       135.0000 138.2500 104.2500 Du        
   8292 ****       135.0000 138.2500 104.5000 Du        
   8293 ****       135.0000 138.2500 104.7500 Du        
   8294 ****       135.0000 138.2500 105.0000 Du        
   8295 ****       135.0000 138.2500 105.2500 Du        
   8296 ****       135.0000 138.2500 105.5000 Du        
   8297 ****       135.0000 138.2500 105.7500 Du        
   8298 ****       135.0000 138.2500 106.0000 Du        
   8299 ****       135.0000 138.2500 106.2500 Du        
   8300 ****       135.0000 138.5000  96.5000 Du        
   8301 ****       135.0000 138.5000  96.7500 Du        
   8302 ****       135.0000 138.5000  97.0000 Du        
   8303 ****       135.0000 138.5000 102.5000 Du        
   8304 ****       135.0000 138.5000 102.7500 Du        
   8305 ****       135.0000 138.5000 103.0000 Du        
   8306 ****       135.0000 138.5000 103.2500 Du        
   8307 ****       135.0000 138.5000 103.5000 Du        
   8308 ****       135.0000 138.5000 103.7500 Du        
   8309 ****       135.0000 138.5000 104.0000 Du        
   8310 ****       135.0000 138.5000 104.2500 Du        
   8311 ****       135.0000 138.5000 104.5000 Du        
   8312 ****       135.0000 138.5000 104.7500 Du        
   8313 ****       135.0000 138.5000 105.0000 Du        
   8314 ****       135.0000 138.5000 105.2500 Du        
   8315 ****       135.0000 138.5000 105.5000 Du        
   8316 ****       135.0000 138.5000 105.7500 Du        
   8317 ****       135.0000 138.5000 106.0000 Du        
   8318 ****       135.0000 138.7500  96.2500 Du        
   8319 ****       135.0000 138.7500  96.5000 Du        
   8320 ****       135.0000 138.7500  96.7500 Du        
   8321 ****       135.0000 138.7500  97.0000 Du        
   8322 ****       135.0000 138.7500 102.5000 Du        
   8323 ****       135.0000 138.7500 102.7500 Du        
   8324 ****       135.0000 138.7500 103.0000 Du        
   8325 ****       135.0000 138.7500 103.2500 Du        
   8326 ****       135.0000 138.7500 103.5000 Du        
   8327 ****       135.0000 138.7500 103.7500 Du        
   8328 ****       135.0000 138.7500 104.0000 Du        
   8329 ****       135.0000 138.7500 104.2500 Du        
   8330 ****       135.0000 138.7500 104.5000 Du        
   8331 ****       135.0000 138.7500 104.7500 Du        
   8332 ****       135.0000 138.7500 105.0000 Du        
   8333 ****       135.0000 138.7500 105.2500 Du        
   8334 ****       135.0000 138.7500 105.5000 Du        
   8335 ****       135.0000 138.7500 105.7500 Du        
   8336 ****       135.0000 139.0000  96.2500 Du        
   8337 ****       135.0000 139.0000  96.5000 Du        
   8338 ****       135.0000 139.0000  96.7500 Du        
   8339 ****       135.0000 139.0000 102.5000 Du        
   8340 ****       135.0000 139.0000 102.7500 Du        
   8341 ****       135.0000 139.0000 103.0000 Du        
   8342 ****       135.0000 139.0000 103.2500 Du        
   8343 ****       135.0000 139.0000 103.5000 Du        
   8344 ****       135.0000 139.0000 103.7500 Du        
   8345 ****       135.0000 139.0000 104.0000 Du        
   8346 ****       135.0000 139.0000 104.2500 Du        
   8347 ****       135.0000 139.0000 104.5000 Du        
   8348 ****       135.0000 139.0000 104.7500 Du        
   8349 ****       135.0000 139.0000 105.0000 Du        
   8350 ****       135.0000 139.0000 105.2500 Du        
   8351 ****       135.0000 139.0000 105.5000 Du        
   8352 ****       135.0000 139.2500  96.5000 Du        
   8353 ****       135.0000 139.2500 104.0000 Du        
   8354 ****       135.0000 139.2500 104.2500 Du        
   8355 ****       135.0000 139.2500 104.5000 Du        
   8356 ****       135.0000 139.2500 104.7500 Du        
   8357 ****       135.0000 139.2500 105.0000 Du        
   8358 ****       135.2500 134.2500 104.0000 Du        
   8359 ****       135.2500 134.2500 104.2500 Du        
   8360 ****       135.2500 134.2500 104.5000 Du        
   8361 ****       135.2500 134.5000 103.7500 Du        
   8362 ****       135.2500 134.5000 104.0000 Du        
   8363 ****       135.2500 134.5000 104.2500 Du        
   8364 ****       135.2500 134.5000 104.5000 Du        
   8365 ****       135.2500 134.5000 104.7500 Du        
   8366 ****       135.2500 134.7500 103.7500 Du        
   8367 ****       135.2500 134.7500 104.0000 Du        
   8368 ****       135.2500 134.7500 104.2500 Du        
   8369 ****       135.2500 134.7500 104.5000 Du        
   8370 ****       135.2500 134.7500 104.7500 Du        
   8371 ****       135.2500 134.7500 105.0000 Du        
   8372 ****       135.2500 135.0000 103.7500 Du        
   8373 ****       135.2500 135.0000 104.0000 Du        
   8374 ****       135.2500 135.0000 104.2500 Du        
   8375 ****       135.2500 135.0000 104.5000 Du        
   8376 ****       135.2500 135.0000 104.7500 Du        
   8377 ****       135.2500 135.0000 105.0000 Du        
   8378 ****       135.2500 135.2500 103.7500 Du        
   8379 ****       135.2500 135.2500 104.0000 Du        
   8380 ****       135.2500 135.2500 104.2500 Du        
   8381 ****       135.2500 135.2500 104.5000 Du        
   8382 ****       135.2500 135.2500 104.7500 Du        
   8383 ****       135.2500 135.2500 105.0000 Du        
   8384 ****       135.2500 135.5000 103.7500 Du        
   8385 ****       135.2500 135.5000 104.0000 Du        
   8386 ****       135.2500 135.5000 104.2500 Du        
   8387 ****       135.2500 135.5000 104.5000 Du        
   8388 ****       135.2500 135.5000 104.7500 Du        
   8389 ****       135.2500 135.7500 103.5000 Du        
   8390 ****       135.2500 135.7500 103.7500 Du        
   8391 ****       135.2500 135.7500 104.0000 Du        
   8392 ****       135.2500 135.7500 104.2500 Du        
   8393 ****       135.2500 135.7500 104.5000 Du        
   8394 ****       135.2500 135.7500 104.7500 Du        
   8395 ****       135.2500 135.7500 105.0000 Du        
   8396 ****       135.2500 136.0000 103.5000 Du        
   8397 ****       135.2500 136.0000 103.7500 Du        
   8398 ****       135.2500 136.0000 104.0000 Du        
   8399 ****       135.2500 136.0000 104.2500 Du        
   8400 ****       135.2500 136.0000 104.5000 Du        
   8401 ****       135.2500 136.0000 104.7500 Du        
   8402 ****       135.2500 136.0000 105.0000 Du        
   8403 ****       135.2500 136.2500 103.5000 Du        
   8404 ****       135.2500 136.2500 103.7500 Du        
   8405 ****       135.2500 136.2500 104.0000 Du        
   8406 ****       135.2500 136.2500 104.2500 Du        
   8407 ****       135.2500 136.2500 104.5000 Du        
   8408 ****       135.2500 136.2500 104.7500 Du        
   8409 ****       135.2500 136.2500 105.0000 Du        
   8410 ****       135.2500 136.5000 103.5000 Du        
   8411 ****       135.2500 136.5000 103.7500 Du        
   8412 ****       135.2500 136.5000 104.0000 Du        
   8413 ****       135.2500 136.5000 104.2500 Du        
   8414 ****       135.2500 136.5000 104.5000 Du        
   8415 ****       135.2500 136.5000 104.7500 Du        
   8416 ****       135.2500 136.5000 105.0000 Du        
   8417 ****       135.2500 136.7500 103.2500 Du        
   8418 ****       135.2500 136.7500 103.5000 Du        
   8419 ****       135.2500 136.7500 103.7500 Du        
   8420 ****       135.2500 136.7500 104.0000 Du        
   8421 ****       135.2500 136.7500 104.2500 Du        
   8422 ****       135.2500 136.7500 104.5000 Du        
   8423 ****       135.2500 136.7500 104.7500 Du        
   8424 ****       135.2500 136.7500 105.0000 Du        
   8425 ****       135.2500 136.7500 105.2500 Du        
   8426 ****       135.2500 136.7500 105.5000 Du        
   8427 ****       135.2500 137.0000  97.0000 Du        
   8428 ****       135.2500 137.0000  97.2500 Du        
   8429 ****       135.2500 137.0000 103.2500 Du        
   8430 ****       135.2500 137.0000 103.5000 Du        
   8431 ****       135.2500 137.0000 103.7500 Du        
   8432 ****       135.2500 137.0000 104.0000 Du        
   8433 ****       135.2500 137.0000 104.2500 Du        
   8434 ****       135.2500 137.0000 104.5000 Du        
   8435 ****       135.2500 137.0000 104.7500 Du        
   8436 ****       135.2500 137.0000 105.0000 Du        
   8437 ****       135.2500 137.0000 105.2500 Du        
   8438 ****       135.2500 137.0000 105.5000 Du        
   8439 ****       135.2500 137.0000 105.7500 Du        
   8440 ****       135.2500 137.0000 106.0000 Du        
   8441 ****       135.2500 137.2500  89.5000 Du        
   8442 ****       135.2500 137.2500  89.7500 Du        
   8443 ****       135.2500 137.2500  97.0000 Du        
   8444 ****       135.2500 137.2500  97.2500 Du        
   8445 ****       135.2500 137.2500 103.2500 Du        
   8446 ****       135.2500 137.2500 103.5000 Du        
   8447 ****       135.2500 137.2500 103.7500 Du        
   8448 ****       135.2500 137.2500 104.0000 Du        
   8449 ****       135.2500 137.2500 104.2500 Du        
   8450 ****       135.2500 137.2500 104.5000 Du        
   8451 ****       135.2500 137.2500 104.7500 Du        
   8452 ****       135.2500 137.2500 105.0000 Du        
   8453 ****       135.2500 137.2500 105.2500 Du        
   8454 ****       135.2500 137.2500 105.5000 Du        
   8455 ****       135.2500 137.2500 105.7500 Du        
   8456 ****       135.2500 137.2500 106.0000 Du        
   8457 ****       135.2500 137.5000  89.7500 Du        
   8458 ****       135.2500 137.5000  97.0000 Du        
   8459 ****       135.2500 137.5000  97.2500 Du        
   8460 ****       135.2500 137.5000 103.0000 Du        
   8461 ****       135.2500 137.5000 103.2500 Du        
   8462 ****       135.2500 137.5000 103.5000 Du        
   8463 ****       135.2500 137.5000 103.7500 Du        
   8464 ****       135.2500 137.5000 104.0000 Du        
   8465 ****       135.2500 137.5000 104.2500 Du        
   8466 ****       135.2500 137.5000 104.5000 Du        
   8467 ****       135.2500 137.5000 104.7500 Du        
   8468 ****       135.2500 137.5000 105.0000 Du        
   8469 ****       135.2500 137.5000 105.2500 Du        
   8470 ****       135.2500 137.5000 105.5000 Du        
   8471 ****       135.2500 137.5000 105.7500 Du        
   8472 ****       135.2500 137.5000 106.0000 Du        
   8473 ****       135.2500 137.7500  97.0000 Du        
   8474 ****       135.2500 137.7500  97.2500 Du        
   8475 ****       135.2500 137.7500 103.0000 Du        
   8476 ****       135.2500 137.7500 103.2500 Du        
   8477 ****       135.2500 137.7500 103.5000 Du        
   8478 ****       135.2500 137.7500 103.7500 Du        
   8479 ****       135.2500 137.7500 104.0000 Du        
   8480 ****       135.2500 137.7500 104.2500 Du        
   8481 ****       135.2500 137.7500 104.5000 Du        
   8482 ****       135.2500 137.7500 104.7500 Du        
   8483 ****       135.2500 137.7500 105.0000 Du        
   8484 ****       135.2500 137.7500 105.2500 Du        
   8485 ****       135.2500 137.7500 105.5000 Du        
   8486 ****       135.2500 137.7500 105.7500 Du        
   8487 ****       135.2500 137.7500 106.0000 Du        
   8488 ****       135.2500 138.0000  97.0000 Du        
   8489 ****       135.2500 138.0000 102.7500 Du        
   8490 ****       135.2500 138.0000 103.0000 Du        
   8491 ****       135.2500 138.0000 103.2500 Du        
   8492 ****       135.2500 138.0000 103.5000 Du        
   8493 ****       135.2500 138.0000 103.7500 Du        
   8494 ****       135.2500 138.0000 104.0000 Du        
   8495 ****       135.2500 138.0000 104.2500 Du        
   8496 ****       135.2500 138.0000 104.5000 Du        
   8497 ****       135.2500 138.0000 104.7500 Du        
   8498 ****       135.2500 138.0000 105.0000 Du        
   8499 ****       135.2500 138.0000 105.2500 Du        
   8500 ****       135.2500 138.0000 105.5000 Du        
   8501 ****       135.2500 138.0000 105.7500 Du        
   8502 ****       135.2500 138.0000 106.0000 Du        
   8503 ****       135.2500 138.2500 102.7500 Du        
   8504 ****       135.2500 138.2500 103.0000 Du        
   8505 ****       135.2500 138.2500 103.2500 Du        
   8506 ****       135.2500 138.2500 103.5000 Du        
   8507 ****       135.2500 138.2500 103.7500 Du        
   8508 ****       135.2500 138.2500 104.0000 Du        
   8509 ****       135.2500 138.2500 104.2500 Du        
   8510 ****       135.2500 138.2500 104.5000 Du        
   8511 ****       135.2500 138.2500 104.7500 Du        
   8512 ****       135.2500 138.2500 105.0000 Du        
   8513 ****       135.2500 138.2500 105.2500 Du        
   8514 ****       135.2500 138.2500 105.5000 Du        
   8515 ****       135.2500 138.2500 105.7500 Du        
   8516 ****       135.2500 138.2500 106.0000 Du        
   8517 ****       135.2500 138.5000 102.7500 Du        
   8518 ****       135.2500 138.5000 103.0000 Du        
   8519 ****       135.2500 138.5000 103.2500 Du        
   8520 ****       135.2500 138.5000 103.5000 Du        
   8521 ****       135.2500 138.5000 103.7500 Du        
   8522 ****       135.2500 138.5000 104.0000 Du        
   8523 ****       135.2500 138.5000 104.2500 Du        
   8524 ****       135.2500 138.5000 104.5000 Du        
   8525 ****       135.2500 138.5000 104.7500 Du        
   8526 ****       135.2500 138.5000 105.0000 Du        
   8527 ****       135.2500 138.5000 105.2500 Du        
   8528 ****       135.2500 138.5000 105.5000 Du        
   8529 ****       135.2500 138.5000 105.7500 Du        
   8530 ****       135.2500 138.5000 106.0000 Du        
   8531 ****       135.2500 138.7500 102.7500 Du        
   8532 ****       135.2500 138.7500 103.0000 Du        
   8533 ****       135.2500 138.7500 103.2500 Du        
   8534 ****       135.2500 138.7500 103.5000 Du        
   8535 ****       135.2500 138.7500 103.7500 Du        
   8536 ****       135.2500 138.7500 104.0000 Du        
   8537 ****       135.2500 138.7500 104.2500 Du        
   8538 ****       135.2500 138.7500 104.5000 Du        
   8539 ****       135.2500 138.7500 104.7500 Du        
   8540 ****       135.2500 138.7500 105.0000 Du        
   8541 ****       135.2500 138.7500 105.2500 Du        
   8542 ****       135.2500 138.7500 105.5000 Du        
   8543 ****       135.2500 138.7500 105.7500 Du        
   8544 ****       135.2500 139.0000 102.7500 Du        
   8545 ****       135.2500 139.0000 103.0000 Du        
   8546 ****       135.2500 139.0000 103.2500 Du        
   8547 ****       135.2500 139.0000 103.5000 Du        
   8548 ****       135.2500 139.0000 103.7500 Du        
   8549 ****       135.2500 139.0000 104.0000 Du        
   8550 ****       135.2500 139.0000 104.2500 Du        
   8551 ****       135.2500 139.0000 104.5000 Du        
   8552 ****       135.2500 139.0000 104.7500 Du        
   8553 ****       135.2500 139.0000 105.0000 Du        
   8554 ****       135.2500 139.0000 105.2500 Du        
   8555 ****       135.2500 139.0000 105.5000 Du        
   8556 ****       135.2500 139.2500 104.7500 Du        
   8557 ****       135.2500 139.2500 105.0000 Du        
   8558 ****       135.5000 134.2500 103.7500 Du        
   8559 ****       135.5000 134.2500 104.0000 Du        
   8560 ****       135.5000 134.2500 104.2500 Du        
   8561 ****       135.5000 134.2500 104.5000 Du        
   8562 ****       135.5000 134.5000 103.7500 Du        
   8563 ****       135.5000 134.5000 104.0000 Du        
   8564 ****       135.5000 134.5000 104.2500 Du        
   8565 ****       135.5000 134.5000 104.5000 Du        
   8566 ****       135.5000 134.5000 104.7500 Du        
   8567 ****       135.5000 134.7500 103.7500 Du        
   8568 ****       135.5000 134.7500 104.0000 Du        
   8569 ****       135.5000 134.7500 104.2500 Du        
   8570 ****       135.5000 134.7500 104.5000 Du        
   8571 ****       135.5000 134.7500 104.7500 Du        
   8572 ****       135.5000 134.7500 105.0000 Du        
   8573 ****       135.5000 135.0000 103.5000 Du        
   8574 ****       135.5000 135.0000 103.7500 Du        
   8575 ****       135.5000 135.0000 104.0000 Du        
   8576 ****       135.5000 135.0000 104.2500 Du        
   8577 ****       135.5000 135.0000 104.5000 Du        
   8578 ****       135.5000 135.0000 104.7500 Du        
   8579 ****       135.5000 135.0000 105.0000 Du        
   8580 ****       135.5000 135.0000 105.2500 Du        
   8581 ****       135.5000 135.2500 103.5000 Du        
   8582 ****       135.5000 135.2500 103.7500 Du        
   8583 ****       135.5000 135.2500 104.0000 Du        
   8584 ****       135.5000 135.2500 104.2500 Du        
   8585 ****       135.5000 135.2500 104.5000 Du        
   8586 ****       135.5000 135.2500 104.7500 Du        
   8587 ****       135.5000 135.2500 105.0000 Du        
   8588 ****       135.5000 135.2500 105.2500 Du        
   8589 ****       135.5000 135.5000 103.5000 Du        
   8590 ****       135.5000 135.5000 103.7500 Du        
   8591 ****       135.5000 135.5000 104.0000 Du        
   8592 ****       135.5000 135.5000 104.2500 Du        
   8593 ****       135.5000 135.5000 104.5000 Du        
   8594 ****       135.5000 135.5000 104.7500 Du        
   8595 ****       135.5000 135.5000 105.0000 Du        
   8596 ****       135.5000 135.5000 105.2500 Du        
   8597 ****       135.5000 135.7500 103.5000 Du        
   8598 ****       135.5000 135.7500 103.7500 Du        
   8599 ****       135.5000 135.7500 104.0000 Du        
   8600 ****       135.5000 135.7500 104.2500 Du        
   8601 ****       135.5000 135.7500 104.5000 Du        
   8602 ****       135.5000 135.7500 104.7500 Du        
   8603 ****       135.5000 135.7500 105.0000 Du        
   8604 ****       135.5000 135.7500 105.2500 Du        
   8605 ****       135.5000 136.0000 103.5000 Du        
   8606 ****       135.5000 136.0000 103.7500 Du        
   8607 ****       135.5000 136.0000 104.0000 Du        
   8608 ****       135.5000 136.0000 104.2500 Du        
   8609 ****       135.5000 136.0000 104.5000 Du        
   8610 ****       135.5000 136.0000 104.7500 Du        
   8611 ****       135.5000 136.0000 105.0000 Du        
   8612 ****       135.5000 136.0000 105.2500 Du        
   8613 ****       135.5000 136.2500 103.5000 Du        
   8614 ****       135.5000 136.2500 103.7500 Du        
   8615 ****       135.5000 136.2500 104.0000 Du        
   8616 ****       135.5000 136.2500 104.2500 Du        
   8617 ****       135.5000 136.2500 104.5000 Du        
   8618 ****       135.5000 136.2500 104.7500 Du        
   8619 ****       135.5000 136.2500 105.0000 Du        
   8620 ****       135.5000 136.5000 103.5000 Du        
   8621 ****       135.5000 136.5000 103.7500 Du        
   8622 ****       135.5000 136.5000 104.0000 Du        
   8623 ****       135.5000 136.5000 104.2500 Du        
   8624 ****       135.5000 136.5000 104.5000 Du        
   8625 ****       135.5000 136.5000 104.7500 Du        
   8626 ****       135.5000 136.5000 105.0000 Du        
   8627 ****       135.5000 136.7500 103.5000 Du        
   8628 ****       135.5000 136.7500 103.7500 Du        
   8629 ****       135.5000 136.7500 104.0000 Du        
   8630 ****       135.5000 136.7500 104.2500 Du        
   8631 ****       135.5000 136.7500 104.5000 Du        
   8632 ****       135.5000 136.7500 104.7500 Du        
   8633 ****       135.5000 137.0000 103.2500 Du        
   8634 ****       135.5000 137.0000 103.5000 Du        
   8635 ****       135.5000 137.0000 103.7500 Du        
   8636 ****       135.5000 137.0000 104.0000 Du        
   8637 ****       135.5000 137.0000 104.2500 Du        
   8638 ****       135.5000 137.0000 104.5000 Du        
   8639 ****       135.5000 137.0000 104.7500 Du        
   8640 ****       135.5000 137.0000 105.0000 Du        
   8641 ****       135.5000 137.2500  89.5000 Du        
   8642 ****       135.5000 137.2500  97.2500 Du        
   8643 ****       135.5000 137.2500 103.2500 Du        
   8644 ****       135.5000 137.2500 103.5000 Du        
   8645 ****       135.5000 137.2500 103.7500 Du        
   8646 ****       135.5000 137.2500 104.0000 Du        
   8647 ****       135.5000 137.2500 104.2500 Du        
   8648 ****       135.5000 137.2500 104.5000 Du        
   8649 ****       135.5000 137.2500 104.7500 Du        
   8650 ****       135.5000 137.2500 105.0000 Du        
   8651 ****       135.5000 137.5000 103.2500 Du        
   8652 ****       135.5000 137.5000 103.5000 Du        
   8653 ****       135.5000 137.5000 103.7500 Du        
   8654 ****       135.5000 137.5000 104.0000 Du        
   8655 ****       135.5000 137.5000 104.2500 Du        
   8656 ****       135.5000 137.5000 104.5000 Du        
   8657 ****       135.5000 137.5000 104.7500 Du        
   8658 ****       135.5000 137.5000 105.0000 Du        
   8659 ****       135.5000 137.5000 105.2500 Du        
   8660 ****       135.5000 137.7500 103.0000 Du        
   8661 ****       135.5000 137.7500 103.2500 Du        
   8662 ****       135.5000 137.7500 103.5000 Du        
   8663 ****       135.5000 137.7500 103.7500 Du        
   8664 ****       135.5000 137.7500 104.0000 Du        
   8665 ****       135.5000 137.7500 104.2500 Du        
   8666 ****       135.5000 137.7500 104.5000 Du        
   8667 ****       135.5000 137.7500 104.7500 Du        
   8668 ****       135.5000 137.7500 105.0000 Du        
   8669 ****       135.5000 137.7500 105.2500 Du        
   8670 ****       135.5000 137.7500 105.5000 Du        
   8671 ****       135.5000 137.7500 105.7500 Du        
   8672 ****       135.5000 138.0000 103.0000 Du        
   8673 ****       135.5000 138.0000 103.2500 Du        
   8674 ****       135.5000 138.0000 103.5000 Du        
   8675 ****       135.5000 138.0000 103.7500 Du        
   8676 ****       135.5000 138.0000 104.0000 Du        
   8677 ****       135.5000 138.0000 104.2500 Du        
   8678 ****       135.5000 138.0000 104.5000 Du        
   8679 ****       135.5000 138.0000 104.7500 Du        
   8680 ****       135.5000 138.0000 105.0000 Du        
   8681 ****       135.5000 138.0000 105.2500 Du        
   8682 ****       135.5000 138.0000 105.5000 Du        
   8683 ****       135.5000 138.0000 105.7500 Du        
   8684 ****       135.5000 138.2500 103.0000 Du        
   8685 ****       135.5000 138.2500 103.2500 Du        
   8686 ****       135.5000 138.2500 103.5000 Du        
   8687 ****       135.5000 138.2500 103.7500 Du        
   8688 ****       135.5000 138.2500 104.0000 Du        
   8689 ****       135.5000 138.2500 104.2500 Du        
   8690 ****       135.5000 138.2500 104.5000 Du        
   8691 ****       135.5000 138.2500 104.7500 Du        
   8692 ****       135.5000 138.2500 105.0000 Du        
   8693 ****       135.5000 138.2500 105.2500 Du        
   8694 ****       135.5000 138.2500 105.5000 Du        
   8695 ****       135.5000 138.2500 105.7500 Du        
   8696 ****       135.5000 138.5000 103.0000 Du        
   8697 ****       135.5000 138.5000 103.2500 Du        
   8698 ****       135.5000 138.5000 103.5000 Du        
   8699 ****       135.5000 138.5000 103.7500 Du        
   8700 ****       135.5000 138.5000 104.0000 Du        
   8701 ****       135.5000 138.5000 104.2500 Du        
   8702 ****       135.5000 138.5000 104.5000 Du        
   8703 ****       135.5000 138.5000 104.7500 Du        
   8704 ****       135.5000 138.5000 105.0000 Du        
   8705 ****       135.5000 138.5000 105.2500 Du        
   8706 ****       135.5000 138.5000 105.5000 Du        
   8707 ****       135.5000 138.5000 105.7500 Du        
   8708 ****       135.5000 138.7500 102.7500 Du        
   8709 ****       135.5000 138.7500 103.0000 Du        
   8710 ****       135.5000 138.7500 103.2500 Du        
   8711 ****       135.5000 138.7500 103.5000 Du        
   8712 ****       135.5000 138.7500 103.7500 Du        
   8713 ****       135.5000 138.7500 104.0000 Du        
   8714 ****       135.5000 138.7500 104.2500 Du        
   8715 ****       135.5000 138.7500 104.5000 Du        
   8716 ****       135.5000 138.7500 104.7500 Du        
   8717 ****       135.5000 138.7500 105.0000 Du        
   8718 ****       135.5000 138.7500 105.2500 Du        
   8719 ****       135.5000 138.7500 105.5000 Du        
   8720 ****       135.5000 138.7500 105.7500 Du        
   8721 ****       135.5000 139.0000 102.7500 Du        
   8722 ****       135.5000 139.0000 103.0000 Du        
   8723 ****       135.5000 139.0000 103.2500 Du        
   8724 ****       135.5000 139.0000 103.5000 Du        
   8725 ****       135.5000 139.0000 103.7500 Du        
   8726 ****       135.5000 139.0000 104.0000 Du        
   8727 ****       135.5000 139.0000 104.2500 Du        
   8728 ****       135.5000 139.0000 104.5000 Du        
   8729 ****       135.5000 139.0000 104.7500 Du        
   8730 ****       135.5000 139.0000 105.0000 Du        
   8731 ****       135.5000 139.0000 105.2500 Du        
   8732 ****       135.5000 139.0000 105.5000 Du        
   8733 ****       135.7500 134.2500 103.7500 Du        
   8734 ****       135.7500 134.2500 104.0000 Du        
   8735 ****       135.7500 134.2500 104.2500 Du        
   8736 ****       135.7500 134.2500 104.5000 Du        
   8737 ****       135.7500 134.5000 103.5000 Du        
   8738 ****       135.7500 134.5000 103.7500 Du        
   8739 ****       135.7500 134.5000 104.0000 Du        
   8740 ****       135.7500 134.5000 104.2500 Du        
   8741 ****       135.7500 134.5000 104.5000 Du        
   8742 ****       135.7500 134.5000 104.7500 Du        
   8743 ****       135.7500 134.7500 103.5000 Du        
   8744 ****       135.7500 134.7500 103.7500 Du        
   8745 ****       135.7500 134.7500 104.0000 Du        
   8746 ****       135.7500 134.7500 104.2500 Du        
   8747 ****       135.7500 134.7500 104.5000 Du        
   8748 ****       135.7500 134.7500 104.7500 Du        
   8749 ****       135.7500 134.7500 105.0000 Du        
   8750 ****       135.7500 135.0000 103.5000 Du        
   8751 ****       135.7500 135.0000 103.7500 Du        
   8752 ****       135.7500 135.0000 104.0000 Du        
   8753 ****       135.7500 135.0000 104.2500 Du        
   8754 ****       135.7500 135.0000 104.5000 Du        
   8755 ****       135.7500 135.0000 104.7500 Du        
   8756 ****       135.7500 135.0000 105.0000 Du        
   8757 ****       135.7500 135.0000 105.2500 Du        
   8758 ****       135.7500 135.2500 103.5000 Du        
   8759 ****       135.7500 135.2500 103.7500 Du        
   8760 ****       135.7500 135.2500 104.0000 Du        
   8761 ****       135.7500 135.2500 104.2500 Du        
   8762 ****       135.7500 135.2500 104.5000 Du        
   8763 ****       135.7500 135.2500 104.7500 Du        
   8764 ****       135.7500 135.2500 105.0000 Du        
   8765 ****       135.7500 135.2500 105.2500 Du        
   8766 ****       135.7500 135.5000 103.5000 Du        
   8767 ****       135.7500 135.5000 103.7500 Du        
   8768 ****       135.7500 135.5000 104.0000 Du        
   8769 ****       135.7500 135.5000 104.2500 Du        
   8770 ****       135.7500 135.5000 104.5000 Du        
   8771 ****       135.7500 135.5000 104.7500 Du        
   8772 ****       135.7500 135.5000 105.0000 Du        
   8773 ****       135.7500 135.5000 105.2500 Du        
   8774 ****       135.7500 135.7500 103.5000 Du        
   8775 ****       135.7500 135.7500 103.7500 Du        
   8776 ****       135.7500 135.7500 104.0000 Du        
   8777 ****       135.7500 135.7500 104.2500 Du        
   8778 ****       135.7500 135.7500 104.5000 Du        
   8779 ****       135.7500 135.7500 104.7500 Du        
   8780 ****       135.7500 135.7500 105.0000 Du        
   8781 ****       135.7500 136.0000 103.5000 Du        
   8782 ****       135.7500 136.0000 103.7500 Du        
   8783 ****       135.7500 136.0000 104.0000 Du        
   8784 ****       135.7500 136.0000 104.2500 Du        
   8785 ****       135.7500 136.0000 104.5000 Du        
   8786 ****       135.7500 136.0000 104.7500 Du        
   8787 ****       135.7500 136.2500 103.5000 Du        
   8788 ****       135.7500 136.2500 103.7500 Du        
   8789 ****       135.7500 136.2500 104.0000 Du        
   8790 ****       135.7500 136.2500 104.2500 Du        
   8791 ****       135.7500 136.2500 104.5000 Du        
   8792 ****       135.7500 136.5000 103.5000 Du        
   8793 ****       135.7500 136.5000 103.7500 Du        
   8794 ****       135.7500 136.5000 104.0000 Du        
   8795 ****       135.7500 136.5000 104.2500 Du        
   8796 ****       135.7500 136.7500 103.5000 Du        
   8797 ****       135.7500 136.7500 103.7500 Du        
   8798 ****       135.7500 136.7500 104.0000 Du        
   8799 ****       135.7500 136.7500 104.2500 Du        
   8800 ****       135.7500 137.0000 103.5000 Du        
   8801 ****       135.7500 137.0000 103.7500 Du        
   8802 ****       135.7500 137.0000 104.0000 Du        
   8803 ****       135.7500 137.0000 104.2500 Du        
   8804 ****       135.7500 137.2500 103.5000 Du        
   8805 ****       135.7500 137.2500 103.7500 Du        
   8806 ****       135.7500 137.2500 104.0000 Du        
   8807 ****       135.7500 137.2500 104.2500 Du        
   8808 ****       135.7500 137.5000 103.5000 Du        
   8809 ****       135.7500 137.5000 103.7500 Du        
   8810 ****       135.7500 137.5000 104.0000 Du        
   8811 ****       135.7500 137.5000 104.2500 Du        
   8812 ****       135.7500 137.7500 103.2500 Du        
   8813 ****       135.7500 137.7500 103.5000 Du        
   8814 ****       135.7500 137.7500 103.7500 Du        
   8815 ****       135.7500 137.7500 104.0000 Du        
   8816 ****       135.7500 137.7500 104.2500 Du        
   8817 ****       135.7500 137.7500 104.5000 Du        
   8818 ****       135.7500 138.0000 103.2500 Du        
   8819 ****       135.7500 138.0000 103.5000 Du        
   8820 ****       135.7500 138.0000 103.7500 Du        
   8821 ****       135.7500 138.0000 104.0000 Du        
   8822 ****       135.7500 138.0000 104.2500 Du        
   8823 ****       135.7500 138.0000 104.5000 Du        
   8824 ****       135.7500 138.0000 104.7500 Du        
   8825 ****       135.7500 138.0000 105.0000 Du        
   8826 ****       135.7500 138.2500 103.0000 Du        
   8827 ****       135.7500 138.2500 103.2500 Du        
   8828 ****       135.7500 138.2500 103.5000 Du        
   8829 ****       135.7500 138.2500 103.7500 Du        
   8830 ****       135.7500 138.2500 104.0000 Du        
   8831 ****       135.7500 138.2500 104.2500 Du        
   8832 ****       135.7500 138.2500 104.5000 Du        
   8833 ****       135.7500 138.2500 104.7500 Du        
   8834 ****       135.7500 138.2500 105.0000 Du        
   8835 ****       135.7500 138.2500 105.2500 Du        
   8836 ****       135.7500 138.5000 103.0000 Du        
   8837 ****       135.7500 138.5000 103.2500 Du        
   8838 ****       135.7500 138.5000 103.5000 Du        
   8839 ****       135.7500 138.5000 103.7500 Du        
   8840 ****       135.7500 138.5000 104.0000 Du        
   8841 ****       135.7500 138.5000 104.2500 Du        
   8842 ****       135.7500 138.5000 104.5000 Du        
   8843 ****       135.7500 138.5000 104.7500 Du        
   8844 ****       135.7500 138.5000 105.0000 Du        
   8845 ****       135.7500 138.5000 105.2500 Du        
   8846 ****       135.7500 138.5000 105.5000 Du        
   8847 ****       135.7500 138.7500 103.0000 Du        
   8848 ****       135.7500 138.7500 103.2500 Du        
   8849 ****       135.7500 138.7500 103.5000 Du        
   8850 ****       135.7500 138.7500 103.7500 Du        
   8851 ****       135.7500 138.7500 104.0000 Du        
   8852 ****       135.7500 138.7500 104.2500 Du        
   8853 ****       135.7500 138.7500 104.5000 Du        
   8854 ****       135.7500 138.7500 104.7500 Du        
   8855 ****       135.7500 138.7500 105.0000 Du        
   8856 ****       135.7500 138.7500 105.2500 Du        
   8857 ****       135.7500 138.7500 105.5000 Du        
   8858 ****       135.7500 139.0000 103.2500 Du        
   8859 ****       135.7500 139.0000 103.5000 Du        
   8860 ****       135.7500 139.0000 103.7500 Du        
   8861 ****       135.7500 139.0000 104.0000 Du        
   8862 ****       135.7500 139.0000 104.2500 Du        
   8863 ****       135.7500 139.0000 104.5000 Du        
   8864 ****       135.7500 139.0000 104.7500 Du        
   8865 ****       135.7500 139.0000 105.0000 Du        
   8866 ****       135.7500 139.0000 105.2500 Du        
   8867 ****       135.7500 140.7500  94.7500 Du        
   8868 ****       135.7500 140.7500  95.0000 Du        
   8869 ****       135.7500 141.0000  94.5000 Du        
   8870 ****       135.7500 141.0000  94.7500 Du        
   8871 ****       135.7500 141.0000  95.0000 Du        
   8872 ****       135.7500 141.2500  94.5000 Du        
   8873 ****       135.7500 141.2500  94.7500 Du        
   8874 ****       135.7500 141.2500  95.0000 Du        
   8875 ****       135.7500 141.5000  94.5000 Du        
   8876 ****       135.7500 141.7500  94.2500 Du        
   8877 ****       135.7500 142.5000  94.0000 Du        
   8878 ****       135.7500 142.7500  93.5000 Du        
   8879 ****       135.7500 142.7500  93.7500 Du        
   8880 ****       135.7500 142.7500  94.0000 Du        
   8881 ****       135.7500 143.0000  93.5000 Du        
   8882 ****       135.7500 143.0000  93.7500 Du        
   8883 ****       135.7500 143.7500  92.7500 Du        
   8884 ****       136.0000 134.2500 103.5000 Du        
   8885 ****       136.0000 134.2500 103.7500 Du        
   8886 ****       136.0000 134.2500 104.0000 Du        
   8887 ****       136.0000 134.2500 104.2500 Du        
   8888 ****       136.0000 134.5000 103.2500 Du        
   8889 ****       136.0000 134.5000 103.5000 Du        
   8890 ****       136.0000 134.5000 103.7500 Du        
   8891 ****       136.0000 134.5000 104.0000 Du        
   8892 ****       136.0000 134.5000 104.2500 Du        
   8893 ****       136.0000 134.5000 104.5000 Du        
   8894 ****       136.0000 134.7500 103.2500 Du        
   8895 ****       136.0000 134.7500 103.5000 Du        
   8896 ****       136.0000 134.7500 103.7500 Du        
   8897 ****       136.0000 134.7500 104.0000 Du        
   8898 ****       136.0000 134.7500 104.2500 Du        
   8899 ****       136.0000 134.7500 104.5000 Du        
   8900 ****       136.0000 134.7500 104.7500 Du        
   8901 ****       136.0000 135.0000 103.2500 Du        
   8902 ****       136.0000 135.0000 103.5000 Du        
   8903 ****       136.0000 135.0000 103.7500 Du        
   8904 ****       136.0000 135.0000 104.0000 Du        
   8905 ****       136.0000 135.0000 104.2500 Du        
   8906 ****       136.0000 135.0000 104.5000 Du        
   8907 ****       136.0000 135.0000 104.7500 Du        
   8908 ****       136.0000 135.0000 105.0000 Du        
   8909 ****       136.0000 135.2500 103.5000 Du        
   8910 ****       136.0000 135.2500 103.7500 Du        
   8911 ****       136.0000 135.2500 104.0000 Du        
   8912 ****       136.0000 135.2500 104.2500 Du        
   8913 ****       136.0000 135.2500 104.5000 Du        
   8914 ****       136.0000 135.2500 104.7500 Du        
   8915 ****       136.0000 135.5000 103.5000 Du        
   8916 ****       136.0000 135.5000 103.7500 Du        
   8917 ****       136.0000 135.5000 104.0000 Du        
   8918 ****       136.0000 135.5000 104.2500 Du        
   8919 ****       136.0000 135.5000 104.5000 Du        
   8920 ****       136.0000 135.5000 104.7500 Du        
   8921 ****       136.0000 135.7500 103.5000 Du        
   8922 ****       136.0000 135.7500 103.7500 Du        
   8923 ****       136.0000 135.7500 104.0000 Du        
   8924 ****       136.0000 135.7500 104.2500 Du        
   8925 ****       136.0000 136.0000 103.5000 Du        
   8926 ****       136.0000 136.0000 103.7500 Du        
   8927 ****       136.0000 136.0000 104.0000 Du        
   8928 ****       136.0000 136.0000 104.2500 Du        
   8929 ****       136.0000 136.2500 103.7500 Du        
   8930 ****       136.0000 136.2500 104.0000 Du        
   8931 ****       136.0000 137.5000 103.7500 Du        
   8932 ****       136.0000 137.7500 103.5000 Du        
   8933 ****       136.0000 137.7500 103.7500 Du        
   8934 ****       136.0000 137.7500 104.0000 Du        
   8935 ****       136.0000 138.0000 103.5000 Du        
   8936 ****       136.0000 138.0000 103.7500 Du        
   8937 ****       136.0000 138.0000 104.0000 Du        
   8938 ****       136.0000 138.0000 104.2500 Du        
   8939 ****       136.0000 138.2500 103.2500 Du        
   8940 ****       136.0000 138.2500 103.5000 Du        
   8941 ****       136.0000 138.2500 103.7500 Du        
   8942 ****       136.0000 138.2500 104.0000 Du        
   8943 ****       136.0000 138.2500 104.2500 Du        
   8944 ****       136.0000 138.2500 104.5000 Du        
   8945 ****       136.0000 138.5000 103.2500 Du        
   8946 ****       136.0000 138.5000 103.5000 Du        
   8947 ****       136.0000 138.5000 103.7500 Du        
   8948 ****       136.0000 138.5000 104.0000 Du        
   8949 ****       136.0000 138.5000 104.2500 Du        
   8950 ****       136.0000 138.5000 104.5000 Du        
   8951 ****       136.0000 138.5000 104.7500 Du        
   8952 ****       136.0000 138.7500 103.2500 Du        
   8953 ****       136.0000 138.7500 103.5000 Du        
   8954 ****       136.0000 138.7500 103.7500 Du        
   8955 ****       136.0000 138.7500 104.0000 Du        
   8956 ****       136.0000 138.7500 104.2500 Du        
   8957 ****       136.0000 138.7500 104.5000 Du        
   8958 ****       136.0000 138.7500 104.7500 Du        
   8959 ****       136.0000 138.7500 105.0000 Du        
   8960 ****       136.0000 138.7500 105.2500 Du        
   8961 ****       136.0000 139.0000  93.0000 Du        
   8962 ****       136.0000 139.0000 104.7500 Du        
   8963 ****       136.0000 139.0000 105.0000 Du        
   8964 ****       136.0000 139.0000 105.2500 Du        
   8965 ****       136.0000 140.7500  94.2500 Du        
   8966 ****       136.0000 140.7500  94.5000 Du        
   8967 ****       136.0000 140.7500  94.7500 Du        
   8968 ****       136.0000 140.7500  95.0000 Du        
   8969 ****       136.0000 140.7500  95.2500 Du        
   8970 ****       136.0000 141.0000  94.2500 Du        
   8971 ****       136.0000 141.0000  94.5000 Du        
   8972 ****       136.0000 141.0000  94.7500 Du        
   8973 ****       136.0000 141.0000  95.0000 Du        
   8974 ****       136.0000 141.0000  95.2500 Du        
   8975 ****       136.0000 141.2500  94.5000 Du        
   8976 ****       136.0000 141.2500  94.7500 Du        
   8977 ****       136.0000 141.2500  95.0000 Du        
   8978 ****       136.0000 141.5000  94.0000 Du        
   8979 ****       136.0000 141.5000  94.2500 Du        
   8980 ****       136.0000 141.5000  94.5000 Du        
   8981 ****       136.0000 141.5000  94.7500 Du        
   8982 ****       136.0000 141.7500  94.0000 Du        
   8983 ****       136.0000 141.7500  94.2500 Du        
   8984 ****       136.0000 141.7500  94.5000 Du        
   8985 ****       136.0000 142.0000  94.0000 Du        
   8986 ****       136.0000 142.0000  94.2500 Du        
   8987 ****       136.0000 142.5000  93.5000 Du        
   8988 ****       136.0000 142.5000  93.7500 Du        
   8989 ****       136.0000 142.5000  94.0000 Du        
   8990 ****       136.0000 142.7500  93.5000 Du        
   8991 ****       136.0000 142.7500  93.7500 Du        
   8992 ****       136.0000 142.7500  94.0000 Du        
   8993 ****       136.0000 143.0000  93.2500 Du        
   8994 ****       136.0000 143.0000  93.5000 Du        
   8995 ****       136.0000 143.0000  93.7500 Du        
   8996 ****       136.0000 143.2500  93.5000 Du        
   8997 ****       136.2500 134.0000 103.2500 Du        
   8998 ****       136.2500 134.0000 103.5000 Du        
   8999 ****       136.2500 134.2500 103.2500 Du        
   9000 ****       136.2500 134.2500 103.5000 Du        
   9001 ****       136.2500 134.2500 103.7500 Du        
   9002 ****       136.2500 134.2500 104.0000 Du        
   9003 ****       136.2500 134.5000 103.2500 Du        
   9004 ****       136.2500 134.5000 103.5000 Du        
   9005 ****       136.2500 134.5000 103.7500 Du        
   9006 ****       136.2500 134.5000 104.0000 Du        
   9007 ****       136.2500 134.5000 104.2500 Du        
   9008 ****       136.2500 134.7500 103.2500 Du        
   9009 ****       136.2500 134.7500 103.5000 Du        
   9010 ****       136.2500 134.7500 103.7500 Du        
   9011 ****       136.2500 134.7500 104.0000 Du        
   9012 ****       136.2500 134.7500 104.2500 Du        
   9013 ****       136.2500 134.7500 104.5000 Du        
   9014 ****       136.2500 135.0000 103.2500 Du        
   9015 ****       136.2500 135.0000 103.5000 Du        
   9016 ****       136.2500 135.0000 103.7500 Du        
   9017 ****       136.2500 135.0000 104.0000 Du        
   9018 ****       136.2500 135.0000 104.2500 Du        
   9019 ****       136.2500 135.0000 104.5000 Du        
   9020 ****       136.2500 135.2500 103.5000 Du        
   9021 ****       136.2500 135.2500 103.7500 Du        
   9022 ****       136.2500 135.2500 104.0000 Du        
   9023 ****       136.2500 135.2500 104.2500 Du        
   9024 ****       136.2500 135.5000 103.5000 Du        
   9025 ****       136.2500 135.5000 103.7500 Du        
   9026 ****       136.2500 135.5000 104.0000 Du        
   9027 ****       136.2500 135.5000 104.2500 Du        
   9028 ****       136.2500 135.7500 103.7500 Du        
   9029 ****       136.2500 135.7500 104.0000 Du        
   9030 ****       136.2500 138.0000 103.7500 Du        
   9031 ****       136.2500 138.2500 103.5000 Du        
   9032 ****       136.2500 138.2500 103.7500 Du        
   9033 ****       136.2500 138.2500 104.0000 Du        
   9034 ****       136.2500 138.5000 103.2500 Du        
   9035 ****       136.2500 138.5000 103.5000 Du        
   9036 ****       136.2500 138.5000 103.7500 Du        
   9037 ****       136.2500 138.5000 104.0000 Du        
   9038 ****       136.2500 138.5000 104.2500 Du        
   9039 ****       136.2500 138.7500  92.5000 Du        
   9040 ****       136.2500 138.7500  92.7500 Du        
   9041 ****       136.2500 138.7500 103.2500 Du        
   9042 ****       136.2500 138.7500 103.5000 Du        
   9043 ****       136.2500 138.7500 103.7500 Du        
   9044 ****       136.2500 138.7500 104.0000 Du        
   9045 ****       136.2500 138.7500 104.2500 Du        
   9046 ****       136.2500 139.0000  92.0000 Du        
   9047 ****       136.2500 139.0000  92.2500 Du        
   9048 ****       136.2500 139.0000  92.5000 Du        
   9049 ****       136.2500 139.0000  92.7500 Du        
   9050 ****       136.2500 139.0000  93.0000 Du        
   9051 ****       136.2500 139.2500  92.5000 Du        
   9052 ****       136.2500 139.2500  92.7500 Du        
   9053 ****       136.2500 139.2500  93.0000 Du        
   9054 ****       136.2500 140.7500  94.2500 Du        
   9055 ****       136.2500 140.7500  94.5000 Du        
   9056 ****       136.2500 140.7500  94.7500 Du        
   9057 ****       136.2500 140.7500  95.0000 Du        
   9058 ****       136.2500 140.7500  95.2500 Du        
   9059 ****       136.2500 141.0000  94.0000 Du        
   9060 ****       136.2500 141.0000  94.2500 Du        
   9061 ****       136.2500 141.0000  94.5000 Du        
   9062 ****       136.2500 141.0000  94.7500 Du        
   9063 ****       136.2500 141.0000  95.0000 Du        
   9064 ****       136.2500 141.0000  95.2500 Du        
   9065 ****       136.2500 141.2500  94.0000 Du        
   9066 ****       136.2500 141.2500  94.2500 Du        
   9067 ****       136.2500 141.2500  94.5000 Du        
   9068 ****       136.2500 141.2500  94.7500 Du        
   9069 ****       136.2500 141.2500  95.0000 Du        
   9070 ****       136.2500 141.2500  95.2500 Du        
   9071 ****       136.2500 141.5000  94.0000 Du        
   9072 ****       136.2500 141.5000  94.2500 Du        
   9073 ****       136.2500 141.5000  94.5000 Du        
   9074 ****       136.2500 141.5000  94.7500 Du        
   9075 ****       136.2500 141.5000  95.0000 Du        
   9076 ****       136.2500 141.7500  94.0000 Du        
   9077 ****       136.2500 141.7500  94.2500 Du        
   9078 ****       136.2500 141.7500  94.5000 Du        
   9079 ****       136.2500 141.7500  94.7500 Du        
   9080 ****       136.2500 142.0000  93.7500 Du        
   9081 ****       136.2500 142.0000  94.0000 Du        
   9082 ****       136.2500 142.0000  94.2500 Du        
   9083 ****       136.2500 142.0000  94.5000 Du        
   9084 ****       136.2500 142.2500  94.0000 Du        
   9085 ****       136.2500 142.2500  94.2500 Du        
   9086 ****       136.2500 142.5000  93.5000 Du        
   9087 ****       136.2500 142.5000  93.7500 Du        
   9088 ****       136.2500 142.5000  94.0000 Du        
   9089 ****       136.2500 142.5000  94.2500 Du        
   9090 ****       136.2500 142.7500  93.5000 Du        
   9091 ****       136.2500 142.7500  93.7500 Du        
   9092 ****       136.2500 142.7500  94.0000 Du        
   9093 ****       136.2500 143.0000  93.2500 Du        
   9094 ****       136.2500 143.0000  93.5000 Du        
   9095 ****       136.2500 143.0000  93.7500 Du        
   9096 ****       136.2500 143.2500  93.0000 Du        
   9097 ****       136.2500 143.2500  93.2500 Du        
   9098 ****       136.2500 143.2500  93.5000 Du        
   9099 ****       136.2500 143.5000  93.0000 Du        
   9100 ****       136.2500 143.7500  92.7500 Du        
   9101 ****       136.2500 144.0000  92.5000 Du        
   9102 ****       136.2500 144.0000  92.7500 Du        
   9103 ****       136.2500 144.2500  92.5000 Du        
   9104 ****       136.5000 134.0000 103.0000 Du        
   9105 ****       136.5000 134.0000 103.2500 Du        
   9106 ****       136.5000 134.0000 103.5000 Du        
   9107 ****       136.5000 134.2500 103.0000 Du        
   9108 ****       136.5000 134.2500 103.2500 Du        
   9109 ****       136.5000 134.2500 103.5000 Du        
   9110 ****       136.5000 134.2500 103.7500 Du        
   9111 ****       136.5000 134.2500 104.0000 Du        
   9112 ****       136.5000 134.5000 103.0000 Du        
   9113 ****       136.5000 134.5000 103.2500 Du        
   9114 ****       136.5000 134.5000 103.5000 Du        
   9115 ****       136.5000 134.5000 103.7500 Du        
   9116 ****       136.5000 134.5000 104.0000 Du        
   9117 ****       136.5000 134.5000 104.2500 Du        
   9118 ****       136.5000 134.7500 103.0000 Du        
   9119 ****       136.5000 134.7500 103.2500 Du        
   9120 ****       136.5000 134.7500 103.5000 Du        
   9121 ****       136.5000 134.7500 103.7500 Du        
   9122 ****       136.5000 134.7500 104.0000 Du        
   9123 ****       136.5000 134.7500 104.2500 Du        
   9124 ****       136.5000 135.0000 103.2500 Du        
   9125 ****       136.5000 135.0000 103.5000 Du        
   9126 ****       136.5000 135.0000 103.7500 Du        
   9127 ****       136.5000 135.0000 104.0000 Du        
   9128 ****       136.5000 135.2500 103.5000 Du        
   9129 ****       136.5000 135.2500 103.7500 Du        
   9130 ****       136.5000 135.2500 104.0000 Du        
   9131 ****       136.5000 138.5000  91.7500 Du        
   9132 ****       136.5000 138.7500  91.5000 Du        
   9133 ****       136.5000 138.7500  91.7500 Du        
   9134 ****       136.5000 138.7500  92.0000 Du        
   9135 ****       136.5000 138.7500  92.2500 Du        
   9136 ****       136.5000 138.7500  92.5000 Du        
   9137 ****       136.5000 138.7500  92.7500 Du        
   9138 ****       136.5000 139.0000  91.7500 Du        
   9139 ****       136.5000 139.0000  92.0000 Du        
   9140 ****       136.5000 139.0000  92.2500 Du        
   9141 ****       136.5000 139.0000  92.5000 Du        
   9142 ****       136.5000 139.0000  92.7500 Du        
   9143 ****       136.5000 139.0000  93.0000 Du        
   9144 ****       136.5000 139.2500  91.7500 Du        
   9145 ****       136.5000 139.2500  92.0000 Du        
   9146 ****       136.5000 139.2500  92.2500 Du        
   9147 ****       136.5000 139.2500  92.5000 Du        
   9148 ****       136.5000 139.2500  92.7500 Du        
   9149 ****       136.5000 139.2500  93.0000 Du        
   9150 ****       136.5000 140.7500  94.0000 Du        
   9151 ****       136.5000 140.7500  94.2500 Du        
   9152 ****       136.5000 140.7500  94.5000 Du        
   9153 ****       136.5000 140.7500  94.7500 Du        
   9154 ****       136.5000 140.7500  95.0000 Du        
   9155 ****       136.5000 140.7500  95.2500 Du        
   9156 ****       136.5000 141.0000  94.0000 Du        
   9157 ****       136.5000 141.0000  94.2500 Du        
   9158 ****       136.5000 141.0000  94.5000 Du        
   9159 ****       136.5000 141.0000  94.7500 Du        
   9160 ****       136.5000 141.0000  95.0000 Du        
   9161 ****       136.5000 141.0000  95.2500 Du        
   9162 ****       136.5000 141.0000  95.5000 Du        
   9163 ****       136.5000 141.2500  93.7500 Du        
   9164 ****       136.5000 141.2500  94.0000 Du        
   9165 ****       136.5000 141.2500  94.2500 Du        
   9166 ****       136.5000 141.2500  94.5000 Du        
   9167 ****       136.5000 141.2500  94.7500 Du        
   9168 ****       136.5000 141.2500  95.0000 Du        
   9169 ****       136.5000 141.2500  95.2500 Du        
   9170 ****       136.5000 141.5000  93.7500 Du        
   9171 ****       136.5000 141.5000  94.0000 Du        
   9172 ****       136.5000 141.5000  94.2500 Du        
   9173 ****       136.5000 141.5000  94.5000 Du        
   9174 ****       136.5000 141.5000  94.7500 Du        
   9175 ****       136.5000 141.5000  95.0000 Du        
   9176 ****       136.5000 141.7500  93.7500 Du        
   9177 ****       136.5000 141.7500  94.0000 Du        
   9178 ****       136.5000 141.7500  94.2500 Du        
   9179 ****       136.5000 141.7500  94.5000 Du        
   9180 ****       136.5000 141.7500  94.7500 Du        
   9181 ****       136.5000 141.7500  95.0000 Du        
   9182 ****       136.5000 142.0000  93.5000 Du        
   9183 ****       136.5000 142.0000  93.7500 Du        
   9184 ****       136.5000 142.0000  94.0000 Du        
   9185 ****       136.5000 142.0000  94.2500 Du        
   9186 ****       136.5000 142.0000  94.5000 Du        
   9187 ****       136.5000 142.0000  94.7500 Du        
   9188 ****       136.5000 142.2500  93.5000 Du        
   9189 ****       136.5000 142.2500  93.7500 Du        
   9190 ****       136.5000 142.2500  94.0000 Du        
   9191 ****       136.5000 142.2500  94.2500 Du        
   9192 ****       136.5000 142.2500  94.5000 Du        
   9193 ****       136.5000 142.5000  93.2500 Du        
   9194 ****       136.5000 142.5000  93.5000 Du        
   9195 ****       136.5000 142.5000  93.7500 Du        
   9196 ****       136.5000 142.5000  94.0000 Du        
   9197 ****       136.5000 142.5000  94.2500 Du        
   9198 ****       136.5000 142.7500  93.2500 Du        
   9199 ****       136.5000 142.7500  93.5000 Du        
   9200 ****       136.5000 142.7500  93.7500 Du        
   9201 ****       136.5000 142.7500  94.0000 Du        
   9202 ****       136.5000 143.0000  93.2500 Du        
   9203 ****       136.5000 143.0000  93.5000 Du        
   9204 ****       136.5000 143.0000  93.7500 Du        
   9205 ****       136.5000 143.5000  92.7500 Du        
   9206 ****       136.5000 143.5000  93.0000 Du        
   9207 ****       136.5000 143.5000  93.2500 Du        
   9208 ****       136.5000 143.7500  92.5000 Du        
   9209 ****       136.5000 143.7500  92.7500 Du        
   9210 ****       136.5000 143.7500  93.0000 Du        
   9211 ****       136.5000 144.0000  92.5000 Du        
   9212 ****       136.5000 144.0000  92.7500 Du        
   9213 ****       136.5000 144.2500  92.5000 Du        
   9214 ****       136.5000 144.5000  92.2500 Du        
   9215 ****       136.5000 144.5000  92.5000 Du        
   9216 ****       136.5000 144.7500  92.0000 Du        
   9217 ****       136.5000 145.0000  92.0000 Du        
   9218 ****       136.7500 133.7500 102.5000 Du        
   9219 ****       136.7500 133.7500 102.7500 Du        
   9220 ****       136.7500 133.7500 103.0000 Du        
   9221 ****       136.7500 134.0000 102.5000 Du        
   9222 ****       136.7500 134.0000 102.7500 Du        
   9223 ****       136.7500 134.0000 103.0000 Du        
   9224 ****       136.7500 134.0000 103.2500 Du        
   9225 ****       136.7500 134.0000 103.5000 Du        
   9226 ****       136.7500 134.2500 102.7500 Du        
   9227 ****       136.7500 134.2500 103.0000 Du        
   9228 ****       136.7500 134.2500 103.2500 Du        
   9229 ****       136.7500 134.2500 103.5000 Du        
   9230 ****       136.7500 134.2500 103.7500 Du        
   9231 ****       136.7500 134.5000 102.7500 Du        
   9232 ****       136.7500 134.5000 103.0000 Du        
   9233 ****       136.7500 134.5000 103.2500 Du        
   9234 ****       136.7500 134.5000 103.5000 Du        
   9235 ****       136.7500 134.5000 103.7500 Du        
   9236 ****       136.7500 134.5000 104.0000 Du        
   9237 ****       136.7500 134.7500 103.0000 Du        
   9238 ****       136.7500 134.7500 103.2500 Du        
   9239 ****       136.7500 134.7500 103.5000 Du        
   9240 ****       136.7500 134.7500 103.7500 Du        
   9241 ****       136.7500 134.7500 104.0000 Du        
   9242 ****       136.7500 135.0000 103.2500 Du        
   9243 ****       136.7500 135.0000 103.5000 Du        
   9244 ****       136.7500 135.0000 103.7500 Du        
   9245 ****       136.7500 138.2500  91.5000 Du        
   9246 ****       136.7500 138.2500  91.7500 Du        
   9247 ****       136.7500 138.2500  92.0000 Du        
   9248 ****       136.7500 138.5000  91.5000 Du        
   9249 ****       136.7500 138.5000  91.7500 Du        
   9250 ****       136.7500 138.5000  92.0000 Du        
   9251 ****       136.7500 138.5000  92.2500 Du        
   9252 ****       136.7500 138.7500  91.5000 Du        
   9253 ****       136.7500 138.7500  91.7500 Du        
   9254 ****       136.7500 138.7500  92.0000 Du        
   9255 ****       136.7500 138.7500  92.2500 Du        
   9256 ****       136.7500 138.7500  92.5000 Du        
   9257 ****       136.7500 139.0000  91.7500 Du        
   9258 ****       136.7500 139.0000  92.0000 Du        
   9259 ****       136.7500 139.0000  92.2500 Du        
   9260 ****       136.7500 139.0000  92.5000 Du        
   9261 ****       136.7500 139.0000  92.7500 Du        
   9262 ****       136.7500 139.2500  91.7500 Du        
   9263 ****       136.7500 139.2500  92.0000 Du        
   9264 ****       136.7500 139.2500  92.2500 Du        
   9265 ****       136.7500 139.2500  92.5000 Du        
   9266 ****       136.7500 139.2500  92.7500 Du        
   9267 ****       136.7500 139.5000  92.0000 Du        
   9268 ****       136.7500 139.5000  92.2500 Du        
   9269 ****       136.7500 139.5000  92.5000 Du        
   9270 ****       136.7500 139.7500  92.0000 Du        
   9271 ****       136.7500 139.7500  92.2500 Du        
   9272 ****       136.7500 139.7500  92.5000 Du        
   9273 ****       136.7500 139.7500  92.7500 Du        
   9274 ****       136.7500 140.0000  92.5000 Du        
   9275 ****       136.7500 140.7500  94.2500 Du        
   9276 ****       136.7500 140.7500  94.5000 Du        
   9277 ****       136.7500 140.7500  94.7500 Du        
   9278 ****       136.7500 141.0000  93.7500 Du        
   9279 ****       136.7500 141.0000  94.0000 Du        
   9280 ****       136.7500 141.0000  94.2500 Du        
   9281 ****       136.7500 141.0000  94.5000 Du        
   9282 ****       136.7500 141.0000  94.7500 Du        
   9283 ****       136.7500 141.0000  95.0000 Du        
   9284 ****       136.7500 141.0000  95.2500 Du        
   9285 ****       136.7500 141.2500  93.5000 Du        
   9286 ****       136.7500 141.2500  93.7500 Du        
   9287 ****       136.7500 141.2500  94.0000 Du        
   9288 ****       136.7500 141.2500  94.2500 Du        
   9289 ****       136.7500 141.2500  94.5000 Du        
   9290 ****       136.7500 141.2500  94.7500 Du        
   9291 ****       136.7500 141.2500  95.0000 Du        
   9292 ****       136.7500 141.2500  95.2500 Du        
   9293 ****       136.7500 141.5000  93.7500 Du        
   9294 ****       136.7500 141.5000  94.0000 Du        
   9295 ****       136.7500 141.5000  94.2500 Du        
   9296 ****       136.7500 141.5000  94.5000 Du        
   9297 ****       136.7500 141.5000  94.7500 Du        
   9298 ****       136.7500 141.5000  95.0000 Du        
   9299 ****       136.7500 141.5000  95.2500 Du        
   9300 ****       136.7500 141.7500  93.5000 Du        
   9301 ****       136.7500 141.7500  93.7500 Du        
   9302 ****       136.7500 141.7500  94.0000 Du        
   9303 ****       136.7500 141.7500  94.2500 Du        
   9304 ****       136.7500 141.7500  94.5000 Du        
   9305 ****       136.7500 141.7500  94.7500 Du        
   9306 ****       136.7500 141.7500  95.0000 Du        
   9307 ****       136.7500 142.0000  93.5000 Du        
   9308 ****       136.7500 142.0000  93.7500 Du        
   9309 ****       136.7500 142.0000  94.0000 Du        
   9310 ****       136.7500 142.0000  94.2500 Du        
   9311 ****       136.7500 142.0000  94.5000 Du        
   9312 ****       136.7500 142.0000  94.7500 Du        
   9313 ****       136.7500 142.2500  93.5000 Du        
   9314 ****       136.7500 142.2500  93.7500 Du        
   9315 ****       136.7500 142.2500  94.0000 Du        
   9316 ****       136.7500 142.2500  94.2500 Du        
   9317 ****       136.7500 142.2500  94.5000 Du        
   9318 ****       136.7500 142.5000  93.2500 Du        
   9319 ****       136.7500 142.5000  93.5000 Du        
   9320 ****       136.7500 142.5000  93.7500 Du        
   9321 ****       136.7500 142.5000  94.0000 Du        
   9322 ****       136.7500 142.5000  94.2500 Du        
   9323 ****       136.7500 142.7500  93.0000 Du        
   9324 ****       136.7500 142.7500  93.2500 Du        
   9325 ****       136.7500 142.7500  93.5000 Du        
   9326 ****       136.7500 142.7500  93.7500 Du        
   9327 ****       136.7500 142.7500  94.0000 Du        
   9328 ****       136.7500 143.0000  93.0000 Du        
   9329 ****       136.7500 143.0000  93.2500 Du        
   9330 ****       136.7500 143.0000  93.5000 Du        
   9331 ****       136.7500 143.2500  93.0000 Du        
   9332 ****       136.7500 143.2500  93.2500 Du        
   9333 ****       136.7500 143.5000  92.7500 Du        
   9334 ****       136.7500 143.5000  93.0000 Du        
   9335 ****       136.7500 143.5000  93.2500 Du        
   9336 ****       136.7500 143.7500  92.5000 Du        
   9337 ****       136.7500 143.7500  92.7500 Du        
   9338 ****       136.7500 143.7500  93.0000 Du        
   9339 ****       136.7500 144.0000  92.5000 Du        
   9340 ****       136.7500 144.0000  92.7500 Du        
   9341 ****       136.7500 144.2500  92.5000 Du        
   9342 ****       136.7500 144.2500  92.7500 Du        
   9343 ****       136.7500 144.5000  92.2500 Du        
   9344 ****       136.7500 144.5000  92.5000 Du        
   9345 ****       136.7500 144.7500  92.0000 Du        
   9346 ****       136.7500 144.7500  92.2500 Du        
   9347 ****       136.7500 145.0000  92.0000 Du        
   9348 ****       137.0000 133.5000 102.2500 Du        
   9349 ****       137.0000 133.7500 102.2500 Du        
   9350 ****       137.0000 133.7500 102.5000 Du        
   9351 ****       137.0000 133.7500 102.7500 Du        
   9352 ****       137.0000 133.7500 103.0000 Du        
   9353 ****       137.0000 134.0000 102.2500 Du        
   9354 ****       137.0000 134.0000 102.5000 Du        
   9355 ****       137.0000 134.0000 102.7500 Du        
   9356 ****       137.0000 134.0000 103.0000 Du        
   9357 ****       137.0000 134.0000 103.2500 Du        
   9358 ****       137.0000 134.2500 102.5000 Du        
   9359 ****       137.0000 134.2500 102.7500 Du        
   9360 ****       137.0000 134.2500 103.0000 Du        
   9361 ****       137.0000 134.2500 103.2500 Du        
   9362 ****       137.0000 134.2500 103.5000 Du        
   9363 ****       137.0000 134.5000 102.7500 Du        
   9364 ****       137.0000 134.5000 103.0000 Du        
   9365 ****       137.0000 134.5000 103.2500 Du        
   9366 ****       137.0000 134.5000 103.5000 Du        
   9367 ****       137.0000 134.5000 103.7500 Du        
   9368 ****       137.0000 134.7500 103.0000 Du        
   9369 ****       137.0000 134.7500 103.2500 Du        
   9370 ****       137.0000 134.7500 103.5000 Du        
   9371 ****       137.0000 134.7500 103.7500 Du        
   9372 ****       137.0000 135.0000 103.2500 Du        
   9373 ****       137.0000 135.0000 103.5000 Du        
   9374 ****       137.0000 138.0000  91.2500 Du        
   9375 ****       137.0000 138.2500  91.5000 Du        
   9376 ****       137.0000 138.2500  91.7500 Du        
   9377 ****       137.0000 138.2500  92.0000 Du        
   9378 ****       137.0000 138.5000  91.5000 Du        
   9379 ****       137.0000 138.5000  91.7500 Du        
   9380 ****       137.0000 138.5000  92.0000 Du        
   9381 ****       137.0000 138.7500  91.5000 Du        
   9382 ****       137.0000 138.7500  91.7500 Du        
   9383 ****       137.0000 138.7500  92.0000 Du        
   9384 ****       137.0000 138.7500  92.2500 Du        
   9385 ****       137.0000 139.0000  91.7500 Du        
   9386 ****       137.0000 139.0000  92.0000 Du        
   9387 ****       137.0000 139.0000  92.2500 Du        
   9388 ****       137.0000 139.0000  92.5000 Du        
   9389 ****       137.0000 139.2500  91.7500 Du        
   9390 ****       137.0000 139.2500  92.0000 Du        
   9391 ****       137.0000 139.2500  92.2500 Du        
   9392 ****       137.0000 139.2500  92.5000 Du        
   9393 ****       137.0000 139.5000  92.0000 Du        
   9394 ****       137.0000 139.5000  92.2500 Du        
   9395 ****       137.0000 139.7500  92.0000 Du        
   9396 ****       137.0000 139.7500  92.2500 Du        
   9397 ****       137.0000 139.7500  92.5000 Du        
   9398 ****       137.0000 140.0000  92.0000 Du        
   9399 ****       137.0000 140.0000  92.2500 Du        
   9400 ****       137.0000 140.0000  92.5000 Du        
   9401 ****       137.0000 140.2500  92.0000 Du        
   9402 ****       137.0000 141.0000  93.2500 Du        
   9403 ****       137.0000 141.0000  94.0000 Du        
   9404 ****       137.0000 141.0000  94.5000 Du        
   9405 ****       137.0000 141.0000  94.7500 Du        
   9406 ****       137.0000 141.0000  95.0000 Du        
   9407 ****       137.0000 141.2500  93.7500 Du        
   9408 ****       137.0000 141.2500  94.0000 Du        
   9409 ****       137.0000 141.2500  94.2500 Du        
   9410 ****       137.0000 141.2500  94.5000 Du        
   9411 ****       137.0000 141.2500  94.7500 Du        
   9412 ****       137.0000 141.2500  95.0000 Du        
   9413 ****       137.0000 141.2500  95.2500 Du        
   9414 ****       137.0000 141.5000  93.7500 Du        
   9415 ****       137.0000 141.5000  94.0000 Du        
   9416 ****       137.0000 141.5000  94.2500 Du        
   9417 ****       137.0000 141.5000  94.5000 Du        
   9418 ****       137.0000 141.5000  94.7500 Du        
   9419 ****       137.0000 141.5000  95.0000 Du        
   9420 ****       137.0000 141.5000  95.2500 Du        
   9421 ****       137.0000 141.7500  93.2500 Du        
   9422 ****       137.0000 141.7500  93.5000 Du        
   9423 ****       137.0000 141.7500  93.7500 Du        
   9424 ****       137.0000 141.7500  94.0000 Du        
   9425 ****       137.0000 141.7500  94.2500 Du        
   9426 ****       137.0000 141.7500  94.5000 Du        
   9427 ****       137.0000 141.7500  94.7500 Du        
   9428 ****       137.0000 141.7500  95.0000 Du        
   9429 ****       137.0000 142.0000  93.0000 Du        
   9430 ****       137.0000 142.0000  93.2500 Du        
   9431 ****       137.0000 142.0000  93.5000 Du        
   9432 ****       137.0000 142.0000  93.7500 Du        
   9433 ****       137.0000 142.0000  94.0000 Du        
   9434 ****       137.0000 142.0000  94.2500 Du        
   9435 ****       137.0000 142.0000  94.5000 Du        
   9436 ****       137.0000 142.0000  94.7500 Du        
   9437 ****       137.0000 142.2500  93.0000 Du        
   9438 ****       137.0000 142.2500  93.2500 Du        
   9439 ****       137.0000 142.2500  93.5000 Du        
   9440 ****       137.0000 142.2500  93.7500 Du        
   9441 ****       137.0000 142.2500  94.0000 Du        
   9442 ****       137.0000 142.2500  94.2500 Du        
   9443 ****       137.0000 142.2500  94.5000 Du        
   9444 ****       137.0000 142.5000  93.2500 Du        
   9445 ****       137.0000 142.5000  93.5000 Du        
   9446 ****       137.0000 142.5000  93.7500 Du        
   9447 ****       137.0000 142.5000  94.0000 Du        
   9448 ****       137.0000 142.7500  93.0000 Du        
   9449 ****       137.0000 142.7500  93.2500 Du        
   9450 ****       137.0000 142.7500  93.5000 Du        
   9451 ****       137.0000 142.7500  93.7500 Du        
   9452 ****       137.0000 143.0000  92.7500 Du        
   9453 ****       137.0000 143.0000  93.0000 Du        
   9454 ****       137.0000 143.0000  93.2500 Du        
   9455 ****       137.0000 143.2500  92.7500 Du        
   9456 ****       137.0000 143.2500  93.0000 Du        
   9457 ****       137.0000 143.5000  92.7500 Du        
   9458 ****       137.0000 143.5000  93.0000 Du        
   9459 ****       137.0000 143.7500  92.5000 Du        
   9460 ****       137.0000 143.7500  92.7500 Du        
   9461 ****       137.0000 143.7500  93.0000 Du        
   9462 ****       137.0000 144.0000  92.5000 Du        
   9463 ****       137.0000 144.0000  92.7500 Du        
   9464 ****       137.0000 144.2500  92.5000 Du        
   9465 ****       137.0000 144.2500  92.7500 Du        
   9466 ****       137.0000 144.5000  92.2500 Du        
   9467 ****       137.0000 144.5000  92.5000 Du        
   9468 ****       137.0000 144.7500  92.2500 Du        
   9469 ****       137.0000 145.0000  92.0000 Du        
   9470 ****       137.2500 133.7500 102.2500 Du        
   9471 ****       137.2500 134.0000 102.2500 Du        
   9472 ****       137.2500 134.0000 102.5000 Du        
   9473 ****       137.2500 134.0000 102.7500 Du        
   9474 ****       137.2500 134.0000 103.0000 Du        
   9475 ****       137.2500 134.2500 102.5000 Du        
   9476 ****       137.2500 134.2500 102.7500 Du        
   9477 ****       137.2500 134.2500 103.0000 Du        
   9478 ****       137.2500 134.2500 103.2500 Du        
   9479 ****       137.2500 134.5000 102.7500 Du        
   9480 ****       137.2500 134.5000 103.0000 Du        
   9481 ****       137.2500 134.5000 103.2500 Du        
   9482 ****       137.2500 134.5000 103.5000 Du        
   9483 ****       137.2500 134.7500 103.0000 Du        
   9484 ****       137.2500 134.7500 103.2500 Du        
   9485 ****       137.2500 134.7500 103.5000 Du        
   9486 ****       137.2500 138.0000  91.2500 Du        
   9487 ****       137.2500 138.0000  91.5000 Du        
   9488 ****       137.2500 138.2500  91.5000 Du        
   9489 ****       137.2500 138.2500  91.7500 Du        
   9490 ****       137.2500 138.5000  91.5000 Du        
   9491 ****       137.2500 138.5000  91.7500 Du        
   9492 ****       137.2500 138.7500  91.7500 Du        
   9493 ****       137.2500 138.7500  92.0000 Du        
   9494 ****       137.2500 139.0000  91.7500 Du        
   9495 ****       137.2500 139.0000  92.0000 Du        
   9496 ****       137.2500 139.0000  92.2500 Du        
   9497 ****       137.2500 139.2500  91.7500 Du        
   9498 ****       137.2500 139.2500  92.0000 Du        
   9499 ****       137.2500 139.2500  92.2500 Du        
   9500 ****       137.2500 139.5000  92.0000 Du        
   9501 ****       137.2500 139.7500  92.0000 Du        
   9502 ****       137.2500 139.7500  92.2500 Du        
   9503 ****       137.2500 140.0000  92.0000 Du        
   9504 ****       137.2500 140.0000  92.2500 Du        
   9505 ****       137.2500 140.2500  92.0000 Du        
   9506 ****       137.2500 141.5000  94.5000 Du        
   9507 ****       137.2500 141.5000  94.7500 Du        
   9508 ****       137.2500 141.7500  93.0000 Du        
   9509 ****       137.2500 141.7500  93.2500 Du        
   9510 ****       137.2500 141.7500  93.5000 Du        
   9511 ****       137.2500 141.7500  93.7500 Du        
   9512 ****       137.2500 141.7500  94.0000 Du        
   9513 ****       137.2500 141.7500  94.2500 Du        
   9514 ****       137.2500 141.7500  94.5000 Du        
   9515 ****       137.2500 141.7500  94.7500 Du        
   9516 ****       137.2500 142.0000  92.7500 Du        
   9517 ****       137.2500 142.0000  93.0000 Du        
   9518 ****       137.2500 142.0000  93.2500 Du        
   9519 ****       137.2500 142.0000  93.5000 Du        
   9520 ****       137.2500 142.0000  93.7500 Du        
   9521 ****       137.2500 142.0000  94.0000 Du        
   9522 ****       137.2500 142.0000  94.2500 Du        
   9523 ****       137.2500 142.0000  94.5000 Du        
   9524 ****       137.2500 142.2500  92.7500 Du        
   9525 ****       137.2500 142.2500  93.0000 Du        
   9526 ****       137.2500 142.2500  93.2500 Du        
   9527 ****       137.2500 142.2500  93.5000 Du        
   9528 ****       137.2500 142.2500  93.7500 Du        
   9529 ****       137.2500 142.2500  94.0000 Du        
   9530 ****       137.2500 142.5000  93.0000 Du        
   9531 ****       137.2500 142.5000  93.2500 Du        
   9532 ****       137.2500 142.5000  93.5000 Du        
   9533 ****       137.2500 142.5000  93.7500 Du        
   9534 ****       137.2500 142.7500  92.7500 Du        
   9535 ****       137.2500 142.7500  93.0000 Du        
   9536 ****       137.2500 142.7500  93.2500 Du        
   9537 ****       137.2500 142.7500  93.5000 Du        
   9538 ****       137.2500 143.0000  92.7500 Du        
   9539 ****       137.2500 143.0000  93.0000 Du        
   9540 ****       137.2500 143.0000  93.2500 Du        
   9541 ****       137.2500 143.2500  92.7500 Du        
   9542 ****       137.2500 143.2500  93.0000 Du        
   9543 ****       137.2500 143.5000  92.7500 Du        
   9544 ****       137.2500 143.7500  92.5000 Du        
   9545 ****       137.2500 143.7500  92.7500 Du        
   9546 ****       137.2500 144.0000  92.2500 Du        
   9547 ****       137.2500 144.0000  92.5000 Du        
   9548 ****       137.2500 144.0000  92.7500 Du        
   9549 ****       137.2500 144.2500  92.2500 Du        
   9550 ****       137.2500 144.2500  92.5000 Du        
   9551 ****       137.2500 144.2500  92.7500 Du        
   9552 ****       137.2500 144.5000  92.5000 Du        
   9553 ****       137.2500 144.7500  92.0000 Du        
   9554 ****       137.2500 144.7500  92.2500 Du        
   9555 ****       137.5000 138.0000  91.5000 Du        
   9556 ****       137.5000 138.2500  91.5000 Du        
   9557 ****       137.5000 138.7500  91.7500 Du        
   9558 ****       137.5000 139.0000  91.7500 Du        
   9559 ****       137.5000 139.2500  92.0000 Du        
   9560 ****       137.5000 139.7500  92.0000 Du        
   9561 ****       137.5000 140.0000  92.0000 Du        
   9562 ****       137.5000 140.2500  92.0000 Du        
   9563 ****       137.5000 141.7500  92.7500 Du        
   9564 ****       137.5000 141.7500  93.0000 Du        
   9565 ****       137.5000 141.7500  93.2500 Du        
   9566 ****       137.5000 142.0000  92.5000 Du        
   9567 ****       137.5000 142.0000  92.7500 Du        
   9568 ****       137.5000 142.0000  93.0000 Du        
   9569 ****       137.5000 142.0000  93.2500 Du        
   9570 ****       137.5000 142.0000  93.5000 Du        
   9571 ****       137.5000 142.0000  93.7500 Du        
   9572 ****       137.5000 142.2500  92.5000 Du        
   9573 ****       137.5000 142.2500  92.7500 Du        
   9574 ****       137.5000 142.2500  93.0000 Du        
   9575 ****       137.5000 142.2500  93.2500 Du        
   9576 ****       137.5000 142.2500  93.5000 Du        
   9577 ****       137.5000 142.5000  92.5000 Du        
   9578 ****       137.5000 142.5000  92.7500 Du        
   9579 ****       137.5000 142.5000  93.0000 Du        
   9580 ****       137.5000 142.5000  93.2500 Du        
   9581 ****       137.5000 142.5000  93.5000 Du        
   9582 ****       137.5000 142.7500  92.5000 Du        
   9583 ****       137.5000 142.7500  92.7500 Du        
   9584 ****       137.5000 142.7500  93.0000 Du        
   9585 ****       137.5000 142.7500  93.2500 Du        
   9586 ****       137.5000 143.0000  92.5000 Du        
   9587 ****       137.5000 143.0000  92.7500 Du        
   9588 ****       137.5000 143.0000  93.0000 Du        
   9589 ****       137.5000 143.2500  92.5000 Du        
   9590 ****       137.5000 143.2500  92.7500 Du        
   9591 ****       137.5000 143.5000  92.5000 Du        
   9592 ****       137.5000 143.5000  92.7500 Du        
   9593 ****       137.5000 143.7500  92.5000 Du        
   9594 ****       137.5000 144.0000  92.5000 Du        
   9595 ****       137.5000 144.2500  92.5000 Du        
   9596 ****       137.5000 144.5000  92.5000 Du        
   9597 ****       137.5000 144.7500  92.0000 Du        
   9598 ****       137.7500 137.2500  91.0000 Du        
   9599 ****       137.7500 142.0000  92.5000 Du        
   9600 ****       137.7500 142.0000  92.7500 Du        
   9601 ****       137.7500 142.0000  93.0000 Du        
   9602 ****       137.7500 142.2500  92.5000 Du        
   9603 ****       137.7500 142.2500  92.7500 Du        
   9604 ****       137.7500 142.2500  93.0000 Du        
   9605 ****       137.7500 142.5000  92.5000 Du        
   9606 ****       137.7500 142.5000  92.7500 Du        
   9607 ****       137.7500 142.5000  93.0000 Du        
   9608 ****       137.7500 142.5000  93.2500 Du        
   9609 ****       137.7500 142.7500  92.2500 Du        
   9610 ****       137.7500 142.7500  92.5000 Du        
   9611 ****       137.7500 142.7500  92.7500 Du        
   9612 ****       137.7500 142.7500  93.0000 Du        
   9613 ****       137.7500 143.0000  92.0000 Du        
   9614 ****       137.7500 143.0000  92.2500 Du        
   9615 ****       137.7500 143.0000  92.5000 Du        
   9616 ****       137.7500 143.0000  92.7500 Du        
   9617 ****       137.7500 143.2500  92.0000 Du        
   9618 ****       137.7500 143.2500  92.2500 Du        
   9619 ****       137.7500 143.2500  92.5000 Du        
   9620 ****       137.7500 143.2500  92.7500 Du        
   9621 ****       137.7500 143.7500  92.2500 Du        
   9622 ****       137.7500 143.7500  92.5000 Du        
   9623 ****       137.7500 144.5000  92.0000 Du        
   9624 ****       137.7500 144.5000  92.2500 Du        
   9625 ****       137.7500 144.7500  92.0000 Du        
   9626 ****       137.7500 144.7500  92.2500 Du        
   9627 ****       137.7500 145.0000  92.0000 Du        
   9628 ****       138.0000 142.2500  92.7500 Du        
   9629 ****       138.0000 142.5000  92.5000 Du        
   9630 ****       138.0000 142.5000  92.7500 Du        
   9631 ****       138.0000 142.7500  92.2500 Du        
   9632 ****       138.0000 142.7500  92.5000 Du        
   9633 ****       138.0000 142.7500  92.7500 Du        
   9634 ****       138.0000 143.0000  91.7500 Du        
   9635 ****       138.0000 143.0000  92.0000 Du        
   9636 ****       138.0000 143.0000  92.2500 Du        
   9637 ****       138.0000 143.0000  92.5000 Du        
   9638 ****       138.0000 143.0000  92.7500 Du        
   9639 ****       138.0000 143.2500  91.7500 Du        
   9640 ****       138.0000 143.2500  92.0000 Du        
   9641 ****       138.0000 143.2500  92.2500 Du        
   9642 ****       138.0000 143.2500  92.5000 Du        
   9643 ****       138.0000 143.5000  92.2500 Du        
   9644 ****       138.0000 143.7500  92.2500 Du        
   9645 ****       138.0000 144.0000  92.0000 Du        
   9646 ****       138.0000 144.0000  92.2500 Du        
   9647 ****       138.0000 144.2500  92.0000 Du        
   9648 ****       138.0000 144.7500  92.0000 Du        
   9649 ****       138.0000 145.0000  91.7500 Du        
   9650 ****       138.0000 145.0000  92.0000 Du        
   9651 ****       138.2500 142.7500  92.0000 Du        
   9652 ****       138.2500 143.0000  91.7500 Du        
   9653 ****       138.2500 143.0000  92.0000 Du        
   9654 ****       138.2500 143.0000  92.2500 Du        
   9655 ****       138.2500 143.0000  92.5000 Du        
   9656 ****       138.2500 143.2500  91.5000 Du        
   9657 ****       138.2500 143.2500  91.7500 Du        
   9658 ****       138.2500 143.2500  92.0000 Du        
   9659 ****       138.2500 143.2500  92.2500 Du        
   9660 ****       138.2500 143.2500  92.5000 Du        
   9661 ****       138.2500 143.5000  92.0000 Du        
   9662 ****       138.2500 143.5000  92.2500 Du        
   9663 ****       138.2500 143.7500  92.0000 Du        
   9664 ****       138.2500 143.7500  92.2500 Du        
   9665 ****       138.2500 144.0000  91.7500 Du        
   9666 ****       138.2500 144.0000  92.0000 Du        
   9667 ****       138.2500 144.0000  92.2500 Du        
   9668 ****       138.2500 144.2500  91.7500 Du        
   9669 ****       138.2500 144.2500  92.0000 Du        
   9670 ****       138.2500 144.5000  92.0000 Du        
   9671 ****       138.2500 144.7500  91.7500 Du        
   9672 ****       138.2500 144.7500  92.0000 Du        
   9673 ****       138.2500 145.0000  91.7500 Du        
   9674 ****       138.2500 145.5000  91.5000 Du        
   9675 ****       138.2500 145.5000  91.7500 Du        
   9676 ****       138.2500 145.7500  91.2500 Du        
   9677 ****       138.2500 145.7500  91.5000 Du        
   9678 ****       138.2500 146.0000  91.0000 Du        
   9679 ****       138.2500 146.0000  91.2500 Du        
   9680 ****       138.2500 146.2500  91.0000 Du        
   9681 ****       138.2500 146.5000  91.0000 Du        
   9682 ****       138.2500 146.7500  90.7500 Du        
   9683 ****       138.2500 146.7500  91.0000 Du        
   9684 ****       138.5000 143.0000  91.5000 Du        
   9685 ****       138.5000 143.0000  91.7500 Du        
   9686 ****       138.5000 143.0000  92.0000 Du        
   9687 ****       138.5000 143.0000  92.2500 Du        
   9688 ****       138.5000 143.2500  91.5000 Du        
   9689 ****       138.5000 143.2500  91.7500 Du        
   9690 ****       138.5000 143.2500  92.0000 Du        
   9691 ****       138.5000 143.2500  92.2500 Du        
   9692 ****       138.5000 143.5000  91.5000 Du        
   9693 ****       138.5000 143.5000  91.7500 Du        
   9694 ****       138.5000 143.5000  92.0000 Du        
   9695 ****       138.5000 143.5000  92.2500 Du        
   9696 ****       138.5000 143.7500  91.5000 Du        
   9697 ****       138.5000 143.7500  91.7500 Du        
   9698 ****       138.5000 143.7500  92.0000 Du        
   9699 ****       138.5000 143.7500  92.2500 Du        
   9700 ****       138.5000 144.0000  91.5000 Du        
   9701 ****       138.5000 144.0000  91.7500 Du        
   9702 ****       138.5000 144.0000  92.0000 Du        
   9703 ****       138.5000 144.0000  92.2500 Du        
   9704 ****       138.5000 144.2500  91.5000 Du        
   9705 ****       138.5000 144.2500  91.7500 Du        
   9706 ****       138.5000 144.2500  92.0000 Du        
   9707 ****       138.5000 144.2500  92.2500 Du        
   9708 ****       138.5000 144.5000  91.5000 Du        
   9709 ****       138.5000 144.5000  91.7500 Du        
   9710 ****       138.5000 144.5000  92.0000 Du        
   9711 ****       138.5000 144.5000  92.2500 Du        
   9712 ****       138.5000 144.7500  91.2500 Du        
   9713 ****       138.5000 144.7500  91.5000 Du        
   9714 ****       138.5000 144.7500  91.7500 Du        
   9715 ****       138.5000 144.7500  92.0000 Du        
   9716 ****       138.5000 145.0000  91.2500 Du        
   9717 ****       138.5000 145.0000  91.5000 Du        
   9718 ****       138.5000 145.0000  91.7500 Du        
   9719 ****       138.5000 145.0000  92.0000 Du        
   9720 ****       138.5000 145.2500  91.2500 Du        
   9721 ****       138.5000 145.2500  91.5000 Du        
   9722 ****       138.5000 145.2500  91.7500 Du        
   9723 ****       138.5000 145.5000  91.0000 Du        
   9724 ****       138.5000 145.5000  91.2500 Du        
   9725 ****       138.5000 145.5000  91.5000 Du        
   9726 ****       138.5000 145.5000  91.7500 Du        
   9727 ****       138.5000 145.7500  91.0000 Du        
   9728 ****       138.5000 145.7500  91.2500 Du        
   9729 ****       138.5000 145.7500  91.5000 Du        
   9730 ****       138.5000 146.0000  90.7500 Du        
   9731 ****       138.5000 146.0000  91.0000 Du        
   9732 ****       138.5000 146.0000  91.2500 Du        
   9733 ****       138.5000 146.2500  90.7500 Du        
   9734 ****       138.5000 146.2500  91.0000 Du        
   9735 ****       138.5000 146.5000  90.7500 Du        
   9736 ****       138.7500 143.0000  90.7500 Du        
   9737 ****       138.7500 143.0000  91.0000 Du        
   9738 ****       138.7500 143.0000  91.5000 Du        
   9739 ****       138.7500 143.0000  91.7500 Du        
   9740 ****       138.7500 143.2500  91.5000 Du        
   9741 ****       138.7500 143.2500  91.7500 Du        
   9742 ****       138.7500 143.2500  92.0000 Du        
   9743 ****       138.7500 143.5000  91.0000 Du        
   9744 ****       138.7500 143.5000  91.2500 Du        
   9745 ****       138.7500 143.5000  91.5000 Du        
   9746 ****       138.7500 143.5000  91.7500 Du        
   9747 ****       138.7500 143.5000  92.0000 Du        
   9748 ****       138.7500 143.5000  92.2500 Du        
   9749 ****       138.7500 143.7500  90.7500 Du        
   9750 ****       138.7500 143.7500  91.0000 Du        
   9751 ****       138.7500 143.7500  91.2500 Du        
   9752 ****       138.7500 143.7500  91.5000 Du        
   9753 ****       138.7500 143.7500  91.7500 Du        
   9754 ****       138.7500 143.7500  92.0000 Du        
   9755 ****       138.7500 143.7500  92.2500 Du        
   9756 ****       138.7500 144.0000  91.0000 Du        
   9757 ****       138.7500 144.0000  91.2500 Du        
   9758 ****       138.7500 144.0000  91.5000 Du        
   9759 ****       138.7500 144.0000  91.7500 Du        
   9760 ****       138.7500 144.0000  92.0000 Du        
   9761 ****       138.7500 144.0000  92.2500 Du        
   9762 ****       138.7500 144.2500  91.0000 Du        
   9763 ****       138.7500 144.2500  91.2500 Du        
   9764 ****       138.7500 144.2500  91.5000 Du        
   9765 ****       138.7500 144.2500  91.7500 Du        
   9766 ****       138.7500 144.2500  92.0000 Du        
   9767 ****       138.7500 144.2500  92.2500 Du        
   9768 ****       138.7500 144.5000  91.2500 Du        
   9769 ****       138.7500 144.5000  91.5000 Du        
   9770 ****       138.7500 144.5000  91.7500 Du        
   9771 ****       138.7500 144.5000  92.0000 Du        
   9772 ****       138.7500 144.7500  91.0000 Du        
   9773 ****       138.7500 144.7500  91.2500 Du        
   9774 ****       138.7500 144.7500  91.5000 Du        
   9775 ****       138.7500 144.7500  91.7500 Du        
   9776 ****       138.7500 144.7500  92.0000 Du        
   9777 ****       138.7500 145.0000  91.0000 Du        
   9778 ****       138.7500 145.0000  91.2500 Du        
   9779 ****       138.7500 145.0000  91.5000 Du        
   9780 ****       138.7500 145.0000  91.7500 Du        
   9781 ****       138.7500 145.0000  92.0000 Du        
   9782 ****       138.7500 145.2500  91.0000 Du        
   9783 ****       138.7500 145.2500  91.2500 Du        
   9784 ****       138.7500 145.2500  91.5000 Du        
   9785 ****       138.7500 145.2500  91.7500 Du        
   9786 ****       138.7500 145.5000  90.7500 Du        
   9787 ****       138.7500 145.5000  91.0000 Du        
   9788 ****       138.7500 145.5000  91.2500 Du        
   9789 ****       138.7500 145.5000  91.5000 Du        
   9790 ****       138.7500 145.5000  91.7500 Du        
   9791 ****       138.7500 145.7500  90.7500 Du        
   9792 ****       138.7500 145.7500  91.0000 Du        
   9793 ****       138.7500 145.7500  91.2500 Du        
   9794 ****       138.7500 145.7500  91.5000 Du        
   9795 ****       138.7500 146.0000  90.5000 Du        
   9796 ****       138.7500 146.0000  90.7500 Du        
   9797 ****       138.7500 146.0000  91.0000 Du        
   9798 ****       138.7500 146.0000  91.2500 Du        
   9799 ****       138.7500 146.2500  90.7500 Du        
   9800 ****       138.7500 146.2500  91.0000 Du        
   9801 ****       138.7500 146.5000  90.7500 Du        
   9802 ****       139.0000 135.2500  88.5000 Du        
   9803 ****       139.0000 135.2500  88.7500 Du        
   9804 ****       139.0000 143.0000  90.7500 Du        
   9805 ****       139.0000 143.0000  91.0000 Du        
   9806 ****       139.0000 143.0000  91.2500 Du        
   9807 ****       139.0000 143.2500  90.7500 Du        
   9808 ****       139.0000 143.2500  91.0000 Du        
   9809 ****       139.0000 143.2500  91.2500 Du        
   9810 ****       139.0000 143.2500  91.5000 Du        
   9811 ****       139.0000 143.2500  91.7500 Du        
   9812 ****       139.0000 143.5000  90.7500 Du        
   9813 ****       139.0000 143.5000  91.0000 Du        
   9814 ****       139.0000 143.5000  91.2500 Du        
   9815 ****       139.0000 143.5000  91.5000 Du        
   9816 ****       139.0000 143.5000  91.7500 Du        
   9817 ****       139.0000 143.5000  92.0000 Du        
   9818 ****       139.0000 143.7500  90.7500 Du        
   9819 ****       139.0000 143.7500  91.0000 Du        
   9820 ****       139.0000 143.7500  91.2500 Du        
   9821 ****       139.0000 143.7500  91.5000 Du        
   9822 ****       139.0000 143.7500  91.7500 Du        
   9823 ****       139.0000 143.7500  92.0000 Du        
   9824 ****       139.0000 143.7500  92.2500 Du        
   9825 ****       139.0000 144.0000  90.5000 Du        
   9826 ****       139.0000 144.0000  90.7500 Du        
   9827 ****       139.0000 144.0000  91.0000 Du        
   9828 ****       139.0000 144.0000  91.2500 Du        
   9829 ****       139.0000 144.0000  91.5000 Du        
   9830 ****       139.0000 144.0000  91.7500 Du        
   9831 ****       139.0000 144.0000  92.0000 Du        
   9832 ****       139.0000 144.0000  92.2500 Du        
   9833 ****       139.0000 144.2500  90.7500 Du        
   9834 ****       139.0000 144.2500  91.0000 Du        
   9835 ****       139.0000 144.2500  91.2500 Du        
   9836 ****       139.0000 144.2500  91.5000 Du        
   9837 ****       139.0000 144.2500  91.7500 Du        
   9838 ****       139.0000 144.2500  92.0000 Du        
   9839 ****       139.0000 144.2500  92.2500 Du        
   9840 ****       139.0000 144.5000  91.0000 Du        
   9841 ****       139.0000 144.5000  91.2500 Du        
   9842 ****       139.0000 144.5000  91.5000 Du        
   9843 ****       139.0000 144.5000  91.7500 Du        
   9844 ****       139.0000 144.5000  92.0000 Du        
   9845 ****       139.0000 144.7500  90.7500 Du        
   9846 ****       139.0000 144.7500  91.0000 Du        
   9847 ****       139.0000 144.7500  91.2500 Du        
   9848 ****       139.0000 144.7500  91.5000 Du        
   9849 ****       139.0000 144.7500  91.7500 Du        
   9850 ****       139.0000 144.7500  92.0000 Du        
   9851 ****       139.0000 145.0000  90.7500 Du        
   9852 ****       139.0000 145.0000  91.0000 Du        
   9853 ****       139.0000 145.0000  91.2500 Du        
   9854 ****       139.0000 145.0000  91.5000 Du        
   9855 ****       139.0000 145.0000  91.7500 Du        
   9856 ****       139.0000 145.0000  92.0000 Du        
   9857 ****       139.0000 145.2500  90.7500 Du        
   9858 ****       139.0000 145.2500  91.0000 Du        
   9859 ****       139.0000 145.2500  91.2500 Du        
   9860 ****       139.0000 145.2500  91.5000 Du        
   9861 ****       139.0000 145.2500  91.7500 Du        
   9862 ****       139.0000 145.5000  90.7500 Du        
   9863 ****       139.0000 145.5000  91.0000 Du        
   9864 ****       139.0000 145.5000  91.2500 Du        
   9865 ****       139.0000 145.5000  91.5000 Du        
   9866 ****       139.0000 145.7500  90.5000 Du        
   9867 ****       139.0000 145.7500  90.7500 Du        
   9868 ****       139.0000 145.7500  91.0000 Du        
   9869 ****       139.0000 145.7500  91.2500 Du        
   9870 ****       139.0000 146.0000  90.5000 Du        
   9871 ****       139.0000 146.0000  90.7500 Du        
   9872 ****       139.0000 146.0000  91.0000 Du        
   9873 ****       139.0000 146.0000  91.2500 Du        
   9874 ****       139.0000 146.2500  90.5000 Du        
   9875 ****       139.0000 146.2500  90.7500 Du        
   9876 ****       139.0000 146.2500  91.0000 Du        
   9877 ****       139.2500 134.7500  88.7500 Du        
   9878 ****       139.2500 135.0000  88.2500 Du        
   9879 ****       139.2500 135.0000  88.5000 Du        
   9880 ****       139.2500 135.0000  88.7500 Du        
   9881 ****       139.2500 135.2500  88.5000 Du        
   9882 ****       139.2500 135.2500  88.7500 Du        
   9883 ****       139.2500 135.2500  89.0000 Du        
   9884 ****       139.2500 143.0000  90.5000 Du        
   9885 ****       139.2500 143.0000  90.7500 Du        
   9886 ****       139.2500 143.0000  91.0000 Du        
   9887 ****       139.2500 143.2500  90.5000 Du        
   9888 ****       139.2500 143.2500  90.7500 Du        
   9889 ****       139.2500 143.2500  91.0000 Du        
   9890 ****       139.2500 143.2500  91.2500 Du        
   9891 ****       139.2500 143.2500  91.5000 Du        
   9892 ****       139.2500 143.5000  90.2500 Du        
   9893 ****       139.2500 143.5000  90.5000 Du        
   9894 ****       139.2500 143.5000  90.7500 Du        
   9895 ****       139.2500 143.5000  91.0000 Du        
   9896 ****       139.2500 143.5000  91.2500 Du        
   9897 ****       139.2500 143.5000  91.5000 Du        
   9898 ****       139.2500 143.5000  91.7500 Du        
   9899 ****       139.2500 143.7500  90.0000 Du        
   9900 ****       139.2500 143.7500  90.2500 Du        
   9901 ****       139.2500 143.7500  90.5000 Du        
   9902 ****       139.2500 143.7500  90.7500 Du        
   9903 ****       139.2500 143.7500  91.0000 Du        
   9904 ****       139.2500 143.7500  91.2500 Du        
   9905 ****       139.2500 143.7500  91.5000 Du        
   9906 ****       139.2500 143.7500  91.7500 Du        
   9907 ****       139.2500 143.7500  92.0000 Du        
   9908 ****       139.2500 144.0000  90.0000 Du        
   9909 ****       139.2500 144.0000  90.2500 Du        
   9910 ****       139.2500 144.0000  90.5000 Du        
   9911 ****       139.2500 144.0000  90.7500 Du        
   9912 ****       139.2500 144.0000  91.0000 Du        
   9913 ****       139.2500 144.0000  91.2500 Du        
   9914 ****       139.2500 144.0000  91.5000 Du        
   9915 ****       139.2500 144.0000  91.7500 Du        
   9916 ****       139.2500 144.0000  92.0000 Du        
   9917 ****       139.2500 144.2500  90.5000 Du        
   9918 ****       139.2500 144.2500  90.7500 Du        
   9919 ****       139.2500 144.2500  91.0000 Du        
   9920 ****       139.2500 144.2500  91.2500 Du        
   9921 ****       139.2500 144.2500  91.5000 Du        
   9922 ****       139.2500 144.2500  91.7500 Du        
   9923 ****       139.2500 144.2500  92.0000 Du        
   9924 ****       139.2500 144.5000  90.7500 Du        
   9925 ****       139.2500 144.5000  91.0000 Du        
   9926 ****       139.2500 144.5000  91.2500 Du        
   9927 ****       139.2500 144.5000  91.5000 Du        
   9928 ****       139.2500 144.5000  91.7500 Du        
   9929 ****       139.2500 144.5000  92.0000 Du        
   9930 ****       139.2500 144.7500  90.5000 Du        
   9931 ****       139.2500 144.7500  90.7500 Du        
   9932 ****       139.2500 144.7500  91.0000 Du        
   9933 ****       139.2500 144.7500  91.2500 Du        
   9934 ****       139.2500 144.7500  91.5000 Du        
   9935 ****       139.2500 144.7500  91.7500 Du        
   9936 ****       139.2500 144.7500  92.0000 Du        
   9937 ****       139.2500 145.0000  90.5000 Du        
   9938 ****       139.2500 145.0000  90.7500 Du        
   9939 ****       139.2500 145.0000  91.0000 Du        
   9940 ****       139.2500 145.0000  91.2500 Du        
   9941 ****       139.2500 145.0000  91.5000 Du        
   9942 ****       139.2500 145.0000  91.7500 Du        
   9943 ****       139.2500 145.0000  92.0000 Du        
   9944 ****       139.2500 145.2500  90.5000 Du        
   9945 ****       139.2500 145.2500  90.7500 Du        
   9946 ****       139.2500 145.2500  91.0000 Du        
   9947 ****       139.2500 145.2500  91.2500 Du        
   9948 ****       139.2500 145.2500  91.5000 Du        
   9949 ****       139.2500 145.2500  91.7500 Du        
   9950 ****       139.2500 145.5000  90.5000 Du        
   9951 ****       139.2500 145.5000  90.7500 Du        
   9952 ****       139.2500 145.5000  91.0000 Du        
   9953 ****       139.2500 145.5000  91.2500 Du        
   9954 ****       139.2500 145.5000  91.5000 Du        
   9955 ****       139.2500 145.7500  90.5000 Du        
   9956 ****       139.2500 145.7500  90.7500 Du        
   9957 ****       139.2500 145.7500  91.0000 Du        
   9958 ****       139.2500 145.7500  91.2500 Du        
   9959 ****       139.2500 146.0000  90.5000 Du        
   9960 ****       139.2500 146.0000  90.7500 Du        
   9961 ****       139.2500 146.0000  91.0000 Du        
   9962 ****       139.2500 146.2500  90.5000 Du        
   9963 ****       139.2500 146.2500  90.7500 Du        
   9964 ****       139.5000 134.0000  88.7500 Du        
   9965 ****       139.5000 134.2500  88.7500 Du        
   9966 ****       139.5000 134.5000  88.7500 Du        
   9967 ****       139.5000 134.7500  88.7500 Du        
   9968 ****       139.5000 134.7500  89.0000 Du        
   9969 ****       139.5000 135.0000  88.2500 Du        
   9970 ****       139.5000 135.0000  88.5000 Du        
   9971 ****       139.5000 135.0000  88.7500 Du        
   9972 ****       139.5000 135.0000  89.0000 Du        
   9973 ****       139.5000 135.2500  88.5000 Du        
   9974 ****       139.5000 135.2500  88.7500 Du        
   9975 ****       139.5000 135.2500  89.0000 Du        
   9976 ****       139.5000 143.0000  90.5000 Du        
   9977 ****       139.5000 143.0000  90.7500 Du        
   9978 ****       139.5000 143.2500  90.0000 Du        
   9979 ****       139.5000 143.2500  90.2500 Du        
   9980 ****       139.5000 143.2500  90.5000 Du        
   9981 ****       139.5000 143.2500  90.7500 Du        
   9982 ****       139.5000 143.2500  91.0000 Du        
   9983 ****       139.5000 143.2500  91.2500 Du        
   9984 ****       139.5000 143.5000  90.0000 Du        
   9985 ****       139.5000 143.5000  90.2500 Du        
   9986 ****       139.5000 143.5000  90.5000 Du        
   9987 ****       139.5000 143.5000  90.7500 Du        
   9988 ****       139.5000 143.5000  91.0000 Du        
   9989 ****       139.5000 143.5000  91.2500 Du        
   9990 ****       139.5000 143.5000  91.5000 Du        
   9991 ****       139.5000 143.7500  89.7500 Du        
   9992 ****       139.5000 143.7500  90.0000 Du        
   9993 ****       139.5000 143.7500  90.2500 Du        
   9994 ****       139.5000 143.7500  90.5000 Du        
   9995 ****       139.5000 143.7500  90.7500 Du        
   9996 ****       139.5000 143.7500  91.0000 Du        
   9997 ****       139.5000 143.7500  91.2500 Du        
   9998 ****       139.5000 143.7500  91.5000 Du        
   9999 ****       139.5000 143.7500  91.7500 Du        
  10000 ****       139.5000 144.0000  90.0000 Du        
  10001 ****       139.5000 144.0000  90.2500 Du        
  10002 ****       139.5000 144.0000  90.5000 Du        
  10003 ****       139.5000 144.0000  90.7500 Du        
  10004 ****       139.5000 144.0000  91.0000 Du        
  10005 ****       139.5000 144.0000  91.2500 Du        
  10006 ****       139.5000 144.0000  91.5000 Du        
  10007 ****       139.5000 144.0000  91.7500 Du        
  10008 ****       139.5000 144.0000  92.0000 Du        
  10009 ****       139.5000 144.2500  90.0000 Du        
  10010 ****       139.5000 144.2500  90.2500 Du        
  10011 ****       139.5000 144.2500  90.5000 Du        
  10012 ****       139.5000 144.2500  90.7500 Du        
  10013 ****       139.5000 144.2500  91.0000 Du        
  10014 ****       139.5000 144.2500  91.2500 Du        
  10015 ****       139.5000 144.2500  91.5000 Du        
  10016 ****       139.5000 144.2500  91.7500 Du        
  10017 ****       139.5000 144.2500  92.0000 Du        
  10018 ****       139.5000 144.5000  90.2500 Du        
  10019 ****       139.5000 144.5000  90.5000 Du        
  10020 ****       139.5000 144.5000  90.7500 Du        
  10021 ****       139.5000 144.5000  91.0000 Du        
  10022 ****       139.5000 144.5000  91.2500 Du        
  10023 ****       139.5000 144.5000  91.5000 Du        
  10024 ****       139.5000 144.5000  91.7500 Du        
  10025 ****       139.5000 144.5000  92.0000 Du        
  10026 ****       139.5000 144.7500  90.0000 Du        
  10027 ****       139.5000 144.7500  90.2500 Du        
  10028 ****       139.5000 144.7500  90.5000 Du        
  10029 ****       139.5000 144.7500  90.7500 Du        
  10030 ****       139.5000 144.7500  91.0000 Du        
  10031 ****       139.5000 144.7500  91.2500 Du        
  10032 ****       139.5000 144.7500  91.5000 Du        
  10033 ****       139.5000 144.7500  91.7500 Du        
  10034 ****       139.5000 144.7500  92.0000 Du        
  10035 ****       139.5000 145.0000  90.0000 Du        
  10036 ****       139.5000 145.0000  90.2500 Du        
  10037 ****       139.5000 145.0000  90.5000 Du        
  10038 ****       139.5000 145.0000  90.7500 Du        
  10039 ****       139.5000 145.0000  91.0000 Du        
  10040 ****       139.5000 145.0000  91.2500 Du        
  10041 ****       139.5000 145.0000  91.5000 Du        
  10042 ****       139.5000 145.0000  91.7500 Du        
  10043 ****       139.5000 145.2500  90.0000 Du        
  10044 ****       139.5000 145.2500  90.2500 Du        
  10045 ****       139.5000 145.2500  90.5000 Du        
  10046 ****       139.5000 145.2500  90.7500 Du        
  10047 ****       139.5000 145.2500  91.0000 Du        
  10048 ****       139.5000 145.2500  91.2500 Du        
  10049 ****       139.5000 145.2500  91.5000 Du        
  10050 ****       139.5000 145.2500  91.7500 Du        
  10051 ****       139.5000 145.5000  90.2500 Du        
  10052 ****       139.5000 145.5000  90.5000 Du        
  10053 ****       139.5000 145.5000  90.7500 Du        
  10054 ****       139.5000 145.5000  91.0000 Du        
  10055 ****       139.5000 145.5000  91.2500 Du        
  10056 ****       139.5000 145.5000  91.5000 Du        
  10057 ****       139.5000 145.7500  90.2500 Du        
  10058 ****       139.5000 145.7500  90.5000 Du        
  10059 ****       139.5000 145.7500  90.7500 Du        
  10060 ****       139.5000 145.7500  91.0000 Du        
  10061 ****       139.5000 145.7500  91.2500 Du        
  10062 ****       139.5000 146.0000  90.2500 Du        
  10063 ****       139.5000 146.0000  90.5000 Du        
  10064 ****       139.5000 146.0000  90.7500 Du        
  10065 ****       139.5000 146.2500  90.5000 Du        
  10066 ****       139.7500 135.0000  88.7500 Du        
  10067 ****       139.7500 135.0000  89.0000 Du        
  10068 ****       139.7500 135.2500  88.7500 Du        
  10069 ****       139.7500 135.2500  89.0000 Du        
  10070 ****       139.7500 143.0000  90.2500 Du        
  10071 ****       139.7500 143.0000  90.5000 Du        
  10072 ****       139.7500 143.0000  90.7500 Du        
  10073 ****       139.7500 143.2500  90.0000 Du        
  10074 ****       139.7500 143.2500  90.2500 Du        
  10075 ****       139.7500 143.2500  90.5000 Du        
  10076 ****       139.7500 143.2500  90.7500 Du        
  10077 ****       139.7500 143.2500  91.0000 Du        
  10078 ****       139.7500 143.5000  89.7500 Du        
  10079 ****       139.7500 143.5000  90.0000 Du        
  10080 ****       139.7500 143.5000  90.2500 Du        
  10081 ****       139.7500 143.5000  90.5000 Du        
  10082 ****       139.7500 143.5000  90.7500 Du        
  10083 ****       139.7500 143.5000  91.0000 Du        
  10084 ****       139.7500 143.5000  91.2500 Du        
  10085 ****       139.7500 143.5000  91.5000 Du        
  10086 ****       139.7500 143.7500  89.7500 Du        
  10087 ****       139.7500 143.7500  90.0000 Du        
  10088 ****       139.7500 143.7500  90.2500 Du        
  10089 ****       139.7500 143.7500  90.5000 Du        
  10090 ****       139.7500 143.7500  90.7500 Du        
  10091 ****       139.7500 143.7500  91.0000 Du        
  10092 ****       139.7500 143.7500  91.2500 Du        
  10093 ****       139.7500 143.7500  91.5000 Du        
  10094 ****       139.7500 143.7500  91.7500 Du        
  10095 ****       139.7500 144.0000  89.7500 Du        
  10096 ****       139.7500 144.0000  90.0000 Du        
  10097 ****       139.7500 144.0000  90.2500 Du        
  10098 ****       139.7500 144.0000  90.5000 Du        
  10099 ****       139.7500 144.0000  90.7500 Du        
  10100 ****       139.7500 144.0000  91.0000 Du        
  10101 ****       139.7500 144.0000  91.2500 Du        
  10102 ****       139.7500 144.0000  91.5000 Du        
  10103 ****       139.7500 144.0000  91.7500 Du        
  10104 ****       139.7500 144.2500  89.5000 Du        
  10105 ****       139.7500 144.2500  89.7500 Du        
  10106 ****       139.7500 144.2500  90.0000 Du        
  10107 ****       139.7500 144.2500  90.2500 Du        
  10108 ****       139.7500 144.2500  90.5000 Du        
  10109 ****       139.7500 144.2500  90.7500 Du        
  10110 ****       139.7500 144.2500  91.0000 Du        
  10111 ****       139.7500 144.2500  91.2500 Du        
  10112 ****       139.7500 144.2500  91.5000 Du        
  10113 ****       139.7500 144.2500  91.7500 Du        
  10114 ****       139.7500 144.2500  92.0000 Du        
  10115 ****       139.7500 144.5000  90.0000 Du        
  10116 ****       139.7500 144.5000  90.2500 Du        
  10117 ****       139.7500 144.5000  90.5000 Du        
  10118 ****       139.7500 144.5000  90.7500 Du        
  10119 ****       139.7500 144.5000  91.0000 Du        
  10120 ****       139.7500 144.5000  91.2500 Du        
  10121 ****       139.7500 144.5000  91.5000 Du        
  10122 ****       139.7500 144.5000  91.7500 Du        
  10123 ****       139.7500 144.5000  92.0000 Du        
  10124 ****       139.7500 144.7500  90.0000 Du        
  10125 ****       139.7500 144.7500  90.2500 Du        
  10126 ****       139.7500 144.7500  90.5000 Du        
  10127 ****       139.7500 144.7500  90.7500 Du        
  10128 ****       139.7500 144.7500  91.0000 Du        
  10129 ****       139.7500 144.7500  91.2500 Du        
  10130 ****       139.7500 144.7500  91.5000 Du        
  10131 ****       139.7500 144.7500  91.7500 Du        
  10132 ****       139.7500 145.0000  90.0000 Du        
  10133 ****       139.7500 145.0000  90.2500 Du        
  10134 ****       139.7500 145.0000  90.5000 Du        
  10135 ****       139.7500 145.0000  90.7500 Du        
  10136 ****       139.7500 145.0000  91.0000 Du        
  10137 ****       139.7500 145.0000  91.2500 Du        
  10138 ****       139.7500 145.0000  91.5000 Du        
  10139 ****       139.7500 145.0000  91.7500 Du        
  10140 ****       139.7500 145.2500  90.0000 Du        
  10141 ****       139.7500 145.2500  90.2500 Du        
  10142 ****       139.7500 145.2500  90.5000 Du        
  10143 ****       139.7500 145.2500  90.7500 Du        
  10144 ****       139.7500 145.2500  91.0000 Du        
  10145 ****       139.7500 145.2500  91.2500 Du        
  10146 ****       139.7500 145.2500  91.5000 Du        
  10147 ****       139.7500 145.5000  90.2500 Du        
  10148 ****       139.7500 145.5000  90.5000 Du        
  10149 ****       139.7500 145.5000  90.7500 Du        
  10150 ****       139.7500 145.5000  91.0000 Du        
  10151 ****       139.7500 145.5000  91.2500 Du        
  10152 ****       139.7500 145.7500  90.2500 Du        
  10153 ****       139.7500 145.7500  90.5000 Du        
  10154 ****       139.7500 145.7500  90.7500 Du        
  10155 ****       139.7500 145.7500  91.0000 Du        
  10156 ****       139.7500 146.0000  90.2500 Du        
  10157 ****       139.7500 146.0000  90.5000 Du        
  10158 ****       140.0000 135.0000  88.7500 Du        
  10159 ****       140.0000 135.0000  89.0000 Du        
  10160 ****       140.0000 135.0000  89.2500 Du        
  10161 ****       140.0000 135.2500  89.0000 Du        
  10162 ****       140.0000 143.0000  90.2500 Du        
  10163 ****       140.0000 143.0000  90.5000 Du        
  10164 ****       140.0000 143.0000  90.7500 Du        
  10165 ****       140.0000 143.2500  89.7500 Du        
  10166 ****       140.0000 143.2500  90.0000 Du        
  10167 ****       140.0000 143.2500  90.2500 Du        
  10168 ****       140.0000 143.2500  90.5000 Du        
  10169 ****       140.0000 143.2500  90.7500 Du        
  10170 ****       140.0000 143.2500  91.0000 Du        
  10171 ****       140.0000 143.5000  89.5000 Du        
  10172 ****       140.0000 143.5000  89.7500 Du        
  10173 ****       140.0000 143.5000  90.0000 Du        
  10174 ****       140.0000 143.5000  90.2500 Du        
  10175 ****       140.0000 143.5000  90.5000 Du        
  10176 ****       140.0000 143.5000  90.7500 Du        
  10177 ****       140.0000 143.5000  91.0000 Du        
  10178 ****       140.0000 143.5000  91.2500 Du        
  10179 ****       140.0000 143.7500  89.5000 Du        
  10180 ****       140.0000 143.7500  89.7500 Du        
  10181 ****       140.0000 143.7500  90.0000 Du        
  10182 ****       140.0000 143.7500  90.2500 Du        
  10183 ****       140.0000 143.7500  90.5000 Du        
  10184 ****       140.0000 143.7500  90.7500 Du        
  10185 ****       140.0000 143.7500  91.0000 Du        
  10186 ****       140.0000 143.7500  91.2500 Du        
  10187 ****       140.0000 143.7500  91.5000 Du        
  10188 ****       140.0000 144.0000  89.2500 Du        
  10189 ****       140.0000 144.0000  89.5000 Du        
  10190 ****       140.0000 144.0000  89.7500 Du        
  10191 ****       140.0000 144.0000  90.0000 Du        
  10192 ****       140.0000 144.0000  90.2500 Du        
  10193 ****       140.0000 144.0000  90.5000 Du        
  10194 ****       140.0000 144.0000  90.7500 Du        
  10195 ****       140.0000 144.0000  91.0000 Du        
  10196 ****       140.0000 144.0000  91.2500 Du        
  10197 ****       140.0000 144.0000  91.5000 Du        
  10198 ****       140.0000 144.0000  91.7500 Du        
  10199 ****       140.0000 144.2500  89.5000 Du        
  10200 ****       140.0000 144.2500  89.7500 Du        
  10201 ****       140.0000 144.2500  90.0000 Du        
  10202 ****       140.0000 144.2500  90.2500 Du        
  10203 ****       140.0000 144.2500  90.5000 Du        
  10204 ****       140.0000 144.2500  90.7500 Du        
  10205 ****       140.0000 144.2500  91.0000 Du        
  10206 ****       140.0000 144.2500  91.2500 Du        
  10207 ****       140.0000 144.2500  91.5000 Du        
  10208 ****       140.0000 144.2500  91.7500 Du        
  10209 ****       140.0000 144.5000  90.0000 Du        
  10210 ****       140.0000 144.5000  90.2500 Du        
  10211 ****       140.0000 144.5000  90.5000 Du        
  10212 ****       140.0000 144.5000  90.7500 Du        
  10213 ****       140.0000 144.5000  91.0000 Du        
  10214 ****       140.0000 144.5000  91.2500 Du        
  10215 ****       140.0000 144.5000  91.5000 Du        
  10216 ****       140.0000 144.5000  91.7500 Du        
  10217 ****       140.0000 144.7500  90.0000 Du        
  10218 ****       140.0000 144.7500  90.2500 Du        
  10219 ****       140.0000 144.7500  90.5000 Du        
  10220 ****       140.0000 144.7500  90.7500 Du        
  10221 ****       140.0000 144.7500  91.0000 Du        
  10222 ****       140.0000 144.7500  91.2500 Du        
  10223 ****       140.0000 144.7500  91.5000 Du        
  10224 ****       140.0000 144.7500  91.7500 Du        
  10225 ****       140.0000 145.0000  90.0000 Du        
  10226 ****       140.0000 145.0000  90.2500 Du        
  10227 ****       140.0000 145.0000  90.5000 Du        
  10228 ****       140.0000 145.0000  90.7500 Du        
  10229 ****       140.0000 145.0000  91.0000 Du        
  10230 ****       140.0000 145.0000  91.2500 Du        
  10231 ****       140.0000 145.0000  91.5000 Du        
  10232 ****       140.0000 145.0000  91.7500 Du        
  10233 ****       140.0000 145.2500  90.0000 Du        
  10234 ****       140.0000 145.2500  90.2500 Du        
  10235 ****       140.0000 145.2500  90.5000 Du        
  10236 ****       140.0000 145.2500  90.7500 Du        
  10237 ****       140.0000 145.2500  91.0000 Du        
  10238 ****       140.0000 145.2500  91.2500 Du        
  10239 ****       140.0000 145.2500  91.5000 Du        
  10240 ****       140.0000 145.5000  90.5000 Du        
  10241 ****       140.0000 145.5000  90.7500 Du        
  10242 ****       140.0000 145.5000  91.0000 Du        
  10243 ****       140.0000 145.7500  90.5000 Du        
  10244 ****       140.0000 145.7500  90.7500 Du        
  10245 ****       140.2500 135.0000  89.2500 Du        
  10246 ****       140.2500 143.0000  90.2500 Du        
  10247 ****       140.2500 143.0000  90.5000 Du        
  10248 ****       140.2500 143.2500  89.7500 Du        
  10249 ****       140.2500 143.2500  90.0000 Du        
  10250 ****       140.2500 143.2500  90.2500 Du        
  10251 ****       140.2500 143.2500  90.5000 Du        
  10252 ****       140.2500 143.2500  90.7500 Du        
  10253 ****       140.2500 143.5000  89.5000 Du        
  10254 ****       140.2500 143.5000  89.7500 Du        
  10255 ****       140.2500 143.5000  90.0000 Du        
  10256 ****       140.2500 143.5000  90.2500 Du        
  10257 ****       140.2500 143.5000  90.5000 Du        
  10258 ****       140.2500 143.5000  90.7500 Du        
  10259 ****       140.2500 143.5000  91.0000 Du        
  10260 ****       140.2500 143.7500  89.0000 Du        
  10261 ****       140.2500 143.7500  89.2500 Du        
  10262 ****       140.2500 143.7500  89.5000 Du        
  10263 ****       140.2500 143.7500  89.7500 Du        
  10264 ****       140.2500 143.7500  90.0000 Du        
  10265 ****       140.2500 143.7500  90.2500 Du        
  10266 ****       140.2500 143.7500  90.5000 Du        
  10267 ****       140.2500 143.7500  90.7500 Du        
  10268 ****       140.2500 143.7500  91.0000 Du        
  10269 ****       140.2500 143.7500  91.2500 Du        
  10270 ****       140.2500 143.7500  91.5000 Du        
  10271 ****       140.2500 144.0000  88.7500 Du        
  10272 ****       140.2500 144.0000  89.0000 Du        
  10273 ****       140.2500 144.0000  89.2500 Du        
  10274 ****       140.2500 144.0000  89.5000 Du        
  10275 ****       140.2500 144.0000  89.7500 Du        
  10276 ****       140.2500 144.0000  90.0000 Du        
  10277 ****       140.2500 144.0000  90.2500 Du        
  10278 ****       140.2500 144.0000  90.5000 Du        
  10279 ****       140.2500 144.0000  90.7500 Du        
  10280 ****       140.2500 144.0000  91.0000 Du        
  10281 ****       140.2500 144.0000  91.2500 Du        
  10282 ****       140.2500 144.0000  91.5000 Du        
  10283 ****       140.2500 144.2500  89.5000 Du        
  10284 ****       140.2500 144.2500  89.7500 Du        
  10285 ****       140.2500 144.2500  90.0000 Du        
  10286 ****       140.2500 144.2500  90.2500 Du        
  10287 ****       140.2500 144.2500  90.5000 Du        
  10288 ****       140.2500 144.2500  90.7500 Du        
  10289 ****       140.2500 144.2500  91.0000 Du        
  10290 ****       140.2500 144.2500  91.2500 Du        
  10291 ****       140.2500 144.2500  91.5000 Du        
  10292 ****       140.2500 144.2500  91.7500 Du        
  10293 ****       140.2500 144.5000  90.0000 Du        
  10294 ****       140.2500 144.5000  90.2500 Du        
  10295 ****       140.2500 144.5000  90.5000 Du        
  10296 ****       140.2500 144.5000  90.7500 Du        
  10297 ****       140.2500 144.5000  91.0000 Du        
  10298 ****       140.2500 144.5000  91.2500 Du        
  10299 ****       140.2500 144.5000  91.5000 Du        
  10300 ****       140.2500 144.7500  90.0000 Du        
  10301 ****       140.2500 144.7500  90.2500 Du        
  10302 ****       140.2500 144.7500  90.5000 Du        
  10303 ****       140.2500 144.7500  90.7500 Du        
  10304 ****       140.2500 144.7500  91.0000 Du        
  10305 ****       140.2500 144.7500  91.2500 Du        
  10306 ****       140.2500 144.7500  91.5000 Du        
  10307 ****       140.2500 145.0000  90.2500 Du        
  10308 ****       140.2500 145.0000  90.5000 Du        
  10309 ****       140.2500 145.0000  90.7500 Du        
  10310 ****       140.2500 145.0000  91.0000 Du        
  10311 ****       140.2500 145.0000  91.2500 Du        
  10312 ****       140.2500 145.0000  91.5000 Du        
  10313 ****       140.2500 145.2500  90.5000 Du        
  10314 ****       140.2500 145.2500  90.7500 Du        
  10315 ****       140.2500 145.2500  91.0000 Du        
  10316 ****       140.2500 145.2500  91.2500 Du        
  10317 ****       140.5000 135.0000  89.2500 Du        
  10318 ****       140.5000 143.0000  90.2500 Du        
  10319 ****       140.5000 143.0000  90.5000 Du        
  10320 ****       140.5000 143.2500  89.5000 Du        
  10321 ****       140.5000 143.2500  89.7500 Du        
  10322 ****       140.5000 143.2500  90.0000 Du        
  10323 ****       140.5000 143.2500  90.2500 Du        
  10324 ****       140.5000 143.2500  90.5000 Du        
  10325 ****       140.5000 143.2500  90.7500 Du        
  10326 ****       140.5000 143.5000  89.0000 Du        
  10327 ****       140.5000 143.5000  89.2500 Du        
  10328 ****       140.5000 143.5000  89.5000 Du        
  10329 ****       140.5000 143.5000  89.7500 Du        
  10330 ****       140.5000 143.5000  90.0000 Du        
  10331 ****       140.5000 143.5000  90.2500 Du        
  10332 ****       140.5000 143.5000  90.5000 Du        
  10333 ****       140.5000 143.5000  90.7500 Du        
  10334 ****       140.5000 143.5000  91.0000 Du        
  10335 ****       140.5000 143.7500  88.7500 Du        
  10336 ****       140.5000 143.7500  89.0000 Du        
  10337 ****       140.5000 143.7500  89.2500 Du        
  10338 ****       140.5000 143.7500  89.5000 Du        
  10339 ****       140.5000 143.7500  89.7500 Du        
  10340 ****       140.5000 143.7500  90.0000 Du        
  10341 ****       140.5000 143.7500  90.2500 Du        
  10342 ****       140.5000 143.7500  90.5000 Du        
  10343 ****       140.5000 143.7500  90.7500 Du        
  10344 ****       140.5000 143.7500  91.0000 Du        
  10345 ****       140.5000 143.7500  91.2500 Du        
  10346 ****       140.5000 144.0000  88.7500 Du        
  10347 ****       140.5000 144.0000  89.0000 Du        
  10348 ****       140.5000 144.0000  89.2500 Du        
  10349 ****       140.5000 144.0000  89.5000 Du        
  10350 ****       140.5000 144.0000  89.7500 Du        
  10351 ****       140.5000 144.0000  90.0000 Du        
  10352 ****       140.5000 144.0000  90.2500 Du        
  10353 ****       140.5000 144.0000  90.5000 Du        
  10354 ****       140.5000 144.0000  90.7500 Du        
  10355 ****       140.5000 144.0000  91.0000 Du        
  10356 ****       140.5000 144.0000  91.2500 Du        
  10357 ****       140.5000 144.0000  91.5000 Du        
  10358 ****       140.5000 144.2500  89.2500 Du        
  10359 ****       140.5000 144.2500  89.5000 Du        
  10360 ****       140.5000 144.2500  89.7500 Du        
  10361 ****       140.5000 144.2500  90.0000 Du        
  10362 ****       140.5000 144.2500  90.2500 Du        
  10363 ****       140.5000 144.2500  90.5000 Du        
  10364 ****       140.5000 144.2500  90.7500 Du        
  10365 ****       140.5000 144.2500  91.0000 Du        
  10366 ****       140.5000 144.2500  91.2500 Du        
  10367 ****       140.5000 144.2500  91.5000 Du        
  10368 ****       140.5000 144.5000  90.0000 Du        
  10369 ****       140.5000 144.5000  90.2500 Du        
  10370 ****       140.5000 144.5000  90.5000 Du        
  10371 ****       140.5000 144.5000  90.7500 Du        
  10372 ****       140.5000 144.5000  91.0000 Du        
  10373 ****       140.5000 144.5000  91.2500 Du        
  10374 ****       140.5000 144.5000  91.5000 Du        
  10375 ****       140.5000 144.7500  90.5000 Du        
  10376 ****       140.5000 144.7500  90.7500 Du        
  10377 ****       140.5000 144.7500  91.0000 Du        
  10378 ****       140.5000 144.7500  91.2500 Du        
  10379 ****       140.5000 144.7500  91.5000 Du        
  10380 ****       140.5000 145.0000  90.7500 Du        
  10381 ****       140.5000 145.0000  91.0000 Du        
  10382 ****       140.5000 145.0000  91.2500 Du        
  10383 ****       140.5000 145.0000  91.5000 Du        
  10384 ****       140.7500 143.2500  89.5000 Du        
  10385 ****       140.7500 143.2500  89.7500 Du        
  10386 ****       140.7500 143.2500  90.0000 Du        
  10387 ****       140.7500 143.2500  90.2500 Du        
  10388 ****       140.7500 143.2500  90.5000 Du        
  10389 ****       140.7500 143.2500  90.7500 Du        
  10390 ****       140.7500 143.5000  88.7500 Du        
  10391 ****       140.7500 143.5000  89.0000 Du        
  10392 ****       140.7500 143.5000  89.2500 Du        
  10393 ****       140.7500 143.5000  89.5000 Du        
  10394 ****       140.7500 143.5000  89.7500 Du        
  10395 ****       140.7500 143.5000  90.0000 Du        
  10396 ****       140.7500 143.5000  90.2500 Du        
  10397 ****       140.7500 143.5000  90.5000 Du        
  10398 ****       140.7500 143.5000  90.7500 Du        
  10399 ****       140.7500 143.5000  91.0000 Du        
  10400 ****       140.7500 143.7500  88.5000 Du        
  10401 ****       140.7500 143.7500  88.7500 Du        
  10402 ****       140.7500 143.7500  89.0000 Du        
  10403 ****       140.7500 143.7500  89.2500 Du        
  10404 ****       140.7500 143.7500  89.5000 Du        
  10405 ****       140.7500 143.7500  89.7500 Du        
  10406 ****       140.7500 143.7500  90.0000 Du        
  10407 ****       140.7500 143.7500  90.2500 Du        
  10408 ****       140.7500 143.7500  90.5000 Du        
  10409 ****       140.7500 143.7500  90.7500 Du        
  10410 ****       140.7500 143.7500  91.0000 Du        
  10411 ****       140.7500 143.7500  91.2500 Du        
  10412 ****       140.7500 144.0000  89.2500 Du        
  10413 ****       140.7500 144.0000  89.5000 Du        
  10414 ****       140.7500 144.0000  89.7500 Du        
  10415 ****       140.7500 144.0000  90.0000 Du        
  10416 ****       140.7500 144.0000  90.2500 Du        
  10417 ****       140.7500 144.0000  90.5000 Du        
  10418 ****       140.7500 144.0000  90.7500 Du        
  10419 ****       140.7500 144.0000  91.0000 Du        
  10420 ****       140.7500 144.0000  91.2500 Du        
  10421 ****       140.7500 144.0000  91.5000 Du        
  10422 ****       140.7500 144.2500  90.0000 Du        
  10423 ****       140.7500 144.2500  90.2500 Du        
  10424 ****       140.7500 144.2500  90.5000 Du        
  10425 ****       140.7500 144.2500  90.7500 Du        
  10426 ****       140.7500 144.2500  91.0000 Du        
  10427 ****       140.7500 144.2500  91.2500 Du        
  10428 ****       140.7500 144.2500  91.5000 Du        
  10429 ****       140.7500 144.5000  90.7500 Du        
  10430 ****       140.7500 144.5000  91.0000 Du        
  10431 ****       140.7500 144.5000  91.2500 Du        
  10432 ****       140.7500 144.5000  91.5000 Du        
  10433 ****       140.7500 144.7500  90.7500 Du        
  10434 ****       140.7500 144.7500  91.0000 Du        
  10435 ****       140.7500 144.7500  91.2500 Du        
  10436 ****       140.7500 144.7500  91.5000 Du        
  10437 ****       141.0000 143.2500  89.7500 Du        
  10438 ****       141.0000 143.2500  90.0000 Du        
  10439 ****       141.0000 143.2500  90.2500 Du        
  10440 ****       141.0000 143.2500  90.5000 Du        
  10441 ****       141.0000 143.2500  90.7500 Du        
  10442 ****       141.0000 143.5000  88.5000 Du        
  10443 ****       141.0000 143.5000  88.7500 Du        
  10444 ****       141.0000 143.5000  89.0000 Du        
  10445 ****       141.0000 143.5000  89.2500 Du        
  10446 ****       141.0000 143.5000  89.5000 Du        
  10447 ****       141.0000 143.5000  89.7500 Du        
  10448 ****       141.0000 143.5000  90.0000 Du        
  10449 ****       141.0000 143.5000  90.2500 Du        
  10450 ****       141.0000 143.5000  90.5000 Du        
  10451 ****       141.0000 143.5000  90.7500 Du        
  10452 ****       141.0000 143.5000  91.0000 Du        
  10453 ****       141.0000 143.7500  88.2500 Du        
  10454 ****       141.0000 143.7500  88.5000 Du        
  10455 ****       141.0000 143.7500  89.5000 Du        
  10456 ****       141.0000 143.7500  89.7500 Du        
  10457 ****       141.0000 143.7500  90.0000 Du        
  10458 ****       141.0000 143.7500  90.2500 Du        
  10459 ****       141.0000 143.7500  90.5000 Du        
  10460 ****       141.0000 143.7500  90.7500 Du        
  10461 ****       141.0000 143.7500  91.0000 Du        
  10462 ****       141.0000 143.7500  91.2500 Du        
  10463 ****       141.0000 144.0000  90.0000 Du        
  10464 ****       141.0000 144.0000  90.2500 Du        
  10465 ****       141.0000 144.0000  90.5000 Du        
  10466 ****       141.0000 144.0000  90.7500 Du        
  10467 ****       141.0000 144.0000  91.0000 Du        
  10468 ****       141.0000 144.0000  91.2500 Du        
  10469 ****       141.0000 144.0000  91.5000 Du        
  10470 ****       141.0000 144.2500  90.7500 Du        
  10471 ****       141.0000 144.2500  91.0000 Du        
  10472 ****       141.0000 144.2500  91.2500 Du        
  10473 ****       141.0000 144.2500  91.5000 Du        
  10474 ****       141.0000 144.5000  91.0000 Du        
  10475 ****       141.0000 144.5000  91.2500 Du        
  10476 ****       141.0000 144.5000  91.5000 Du        
  10477 ****       141.2500 143.2500  90.0000 Du        
  10478 ****       141.2500 143.2500  90.2500 Du        
  10479 ****       141.2500 143.2500  90.5000 Du        
  10480 ****       141.2500 143.2500  90.7500 Du        
  10481 ****       141.2500 143.5000  89.7500 Du        
  10482 ****       141.2500 143.5000  90.0000 Du        
  10483 ****       141.2500 143.5000  90.2500 Du        
  10484 ****       141.2500 143.5000  90.5000 Du        
  10485 ****       141.2500 143.5000  90.7500 Du        
  10486 ****       141.2500 143.5000  91.0000 Du        
  10487 ****       141.2500 143.7500  90.2500 Du        
  10488 ****       141.2500 143.7500  90.5000 Du        
  10489 ****       141.2500 143.7500  90.7500 Du        
  10490 ****       141.2500 143.7500  91.0000 Du        
  10491 ****       141.2500 143.7500  91.2500 Du        
  10492 ****       141.2500 144.0000  90.7500 Du        
  10493 ****       141.2500 144.0000  91.0000 Du        
  10494 ****       141.2500 144.0000  91.2500 Du        
  10495 ****       141.2500 144.0000  91.5000 Du        
  10496 ****       141.2500 144.2500  91.0000 Du        
  10497 ****       141.2500 144.2500  91.2500 Du        
  10498 ****       141.2500 144.2500  91.5000 Du        
  10499 ****       141.5000 143.2500  90.2500 Du        
  10500 ****       141.5000 143.2500  90.5000 Du        
  10501 ****       141.5000 143.2500  90.7500 Du        
  10502 ****       141.5000 143.5000  90.2500 Du        
  10503 ****       141.5000 143.5000  90.5000 Du        
  10504 ****       141.5000 143.5000  90.7500 Du        
  10505 ****       141.5000 143.5000  91.0000 Du        
  10506 ****       141.5000 143.7500  90.7500 Du        
  10507 ****       141.5000 143.7500  91.0000 Du        
  10508 ****       141.5000 143.7500  91.2500 Du        
  10509 ****       141.5000 144.0000  91.0000 Du        
  10510 ****       141.5000 144.0000  91.2500 Du        
  10511 ****       141.5000 144.0000  91.5000 Du        
  10512 ****       141.7500 143.2500  90.5000 Du        
  10513 ****       141.7500 143.2500  90.7500 Du        
  10514 ****       141.7500 143.5000  90.7500 Du        
  10515 ****       141.7500 143.5000  91.0000 Du        
  10516 ****       141.7500 143.7500  91.0000 Du        
  10517 ****       141.7500 143.7500  91.2500 Du        
  10518 ****       141.7500 144.0000  91.2500 Du        
  10519 ****       141.7500 144.0000  91.5000 Du        
  10520 ****       142.0000 143.2500  90.7500 Du        
  10521 ****       142.0000 143.5000  91.0000 Du        
  10522 ****       142.0000 143.5000  91.2500 Du        
  10523 ****       142.0000 143.7500  91.2500 Du        
  10524 ****       142.5000 143.5000  91.5000 Du        
