#       Name:                CT1002167954
#       Creating user name   hitesit
#       Creation time:       Sun Apr 16 22:51:03 2023


#       File generated by GOLD software.
#

@<TRIPOS>MOLECULE
CT1002167954|ligand_prepared|mol2|1|dock7
    29    30     1
SMALL
NO_CHARGES


@<TRIPOS>ATOM
      1 C1         131.0346 141.7600 100.1495 C.3            1 RES1               0.0000
      2 C2         132.1164 140.9202 100.8588 C.ar           1 RES1               0.0000
      3 C3         129.7307 140.9785 100.2811 C.2            1 RES1               0.0000
      4 C4         131.0208 143.1154 100.8477 C.2            1 RES1               0.0000
      5 C5         131.3144 141.9992  98.6475 C.3            1 RES1               0.0000
      6 C6         131.8491 140.3040 102.0777 C.ar           1 RES1               0.0000
      7 C7         133.3832 140.7507 100.3064 C.ar           1 RES1               0.0000
      8 N8         128.8004 141.4455 101.1622 N.am           1 RES1               0.0000
      9 O9         129.5381 139.9462  99.6507 O.2            1 RES1               0.0000
     10 N10        129.8959 143.4657 101.5474 N.am           1 RES1               0.0000
     11 O11        131.9802 143.8760 100.8121 O.2            1 RES1               0.0000
     12 C12        130.1584 142.6503  97.9045 C.3            1 RES1               0.0000
     13 C13        132.8123 139.5434 102.7196 C.ar           1 RES1               0.0000
     14 C14        134.3450 139.9898 100.9502 C.ar           1 RES1               0.0000
     15 C15        128.7969 142.6792 101.7619 C.2            1 RES1               0.0000
     16 C16        134.0606 139.3854 102.1562 C.ar           1 RES1               0.0000
     17 O17        127.8468 143.0440 102.4484 O.2            1 RES1               0.0000
     18 H18        132.2008 142.6382  98.5508 H              1 RES1               0.0000
     19 H19        131.5416 141.0366  98.1729 H              1 RES1               0.0000
     20 H20        130.8732 140.4191 102.5375 H              1 RES1               0.0000
     21 H21        133.6297 141.2177  99.3590 H              1 RES1               0.0000
     22 H22        128.0366 140.8195 101.3969 H              1 RES1               0.0000
     23 H23        129.8758 144.3994 101.9452 H              1 RES1               0.0000
     24 H24        130.4071 142.7954  96.8554 H              1 RES1               0.0000
     25 H25        129.2666 142.0294  97.9587 H              1 RES1               0.0000
     26 H26        129.9219 143.6215  98.3343 H              1 RES1               0.0000
     27 H27        132.5838 139.0709 103.6693 H              1 RES1               0.0000
     28 H28        135.3263 139.8686 100.5034 H              1 RES1               0.0000
     29 H29        134.8148 138.7892 102.6591 H              1 RES1               0.0000
@<TRIPOS>BOND
    1    1    2 1     
    2    1    3 1     
    3    1    4 1     
    4    1    5 1     
    5    2    6 ar    
    6    2    7 ar    
    7    3    8 1     
    8    3    9 2     
    9    4   10 1     
   10    4   11 2     
   11    5   12 1     
   12    5   18 1     
   13    5   19 1     
   14    6   13 ar    
   15    6   20 1     
   16    7   14 ar    
   17    7   21 1     
   18    8   15 1     
   19    8   22 1     
   20   10   15 1     
   21   10   23 1     
   22   12   24 1     
   23   12   25 1     
   24   12   26 1     
   25   13   16 ar    
   26   13   27 1     
   27   14   16 ar    
   28   14   28 1     
   29   15   17 2     
   30   16   29 1     
@<TRIPOS>SUBSTRUCTURE
      1 RES1           1
@<TRIPOS>SET
DONOR_HYDROGENS      STATIC     ATOMS    <user>   **** ""
2 22 23
ATOM$RED        STATIC     ATOMS    COLORGROUP SYSTEM
2 22 23
@<TRIPOS>COMMENT
> <Gold.Version>
2022.3.0

> <Gold.Id.Protein>
unknown|7rmi_clean|pdb

> <Gold.Protein.RotatedTorsions>
[ 4419 4410 4409 4407 ] final  101.53 input   60.00 | X-H torsion
[ 7286 7277 7276 7274 ] final  145.85 input   59.98 | X-H torsion
[ 7448 7439 7438 7436 ] final -157.14 input   59.99 | X-H torsion
[ 5718 5713 5712 5709 ] final  110.21 input   60.00 | X-H torsion
[ 4298 4286 4285 4282 ] final  -14.48 input   60.01 | X-H torsion
[ 6139 6130 6129 6127 ] final   66.66 input   59.98 | X-H torsion
[ 6229 6224 6223 6220 ] final -131.94 input   60.02 | X-H torsion
[ 7183 7174 7173 7171 ] final  143.15 input   60.02 | X-H torsion

> <Gold.Protein.ActiveResidues>
 GLN24   PHE25   GLN27   MET81   PHE84   ASN85   THR86   VAL88   ASN89   PHE90  
 TYR92   ALA93   VAL94   HIS95   ASN96   GLU97   TRP98   TYR100  TYR104  CYS105 
 HIS108  ASN109  PRO112  ILE113  ALA114  ALA115  VAL116  PHE117  LEU161  ALA162 
 GLN165  SER169  THR170  GLU172  MET174  PRO175  ARG177  VAL178  VAL179  CYS180 
 MET181  ILE182  GLU183  TRP184  TYR196  HIS197  VAL200  THR201  ILE204  TRP261 
 PHE264  HIS265  PHE267  PHE268  LEU269  PRO271  TYR272  PRO275  LEU277  TYR278 
 LEU279  LYS280  LYS281  PHE282  ILE283  GLN284  GLN285  VAL286  TYR287  LEU288 
 ILE290  MET291  ALA294  MET295 

> <Gold.Protein.RotatedAtoms>
  124.0494  138.5289  110.0879 H   0  0  0  0  0  0  0  0  0  0  0  0  # atno 4298 bound_to 4286
  126.7719  146.2653   96.5668 H   0  0  0  0  0  0  0  0  0  0  0  0  # atno 4419 bound_to 4410
  132.3094  149.4327  100.7428 H   0  0  0  0  0  0  0  0  0  0  0  0  # atno 5718 bound_to 5713
  139.3794  142.7199  105.1765 H   0  0  0  0  0  0  0  0  0  0  0  0  # atno 6139 bound_to 6130
  138.8410  131.1503  102.8550 H   0  0  0  0  0  0  0  0  0  0  0  0  # atno 6229 bound_to 6224
  137.7882  137.7647   96.9918 H   0  0  0  0  0  0  0  0  0  0  0  0  # atno 7183 bound_to 7174
  131.8108  135.4929   94.3320 H   0  0  0  0  0  0  0  0  0  0  0  0  # atno 7286 bound_to 7277
  125.4652  139.6270  102.3548 H   0  0  0  0  0  0  0  0  0  0  0  0  # atno 7448 bound_to 7439
  125.4885  146.1092   95.5785 LP  0  0  0  0  0  0  0  0  0  0  0  0  # atno 14307 bound_to 4410
  126.3829  144.8011   95.9726 LP  0  0  0  0  0  0  0  0  0  0  0  0  # atno 14308 bound_to 4410
  132.7186  134.4220   93.5096 LP  0  0  0  0  0  0  0  0  0  0  0  0  # atno 14309 bound_to 7277
  131.3545  133.9327   94.2623 LP  0  0  0  0  0  0  0  0  0  0  0  0  # atno 14310 bound_to 7277
  126.7076  140.0501  101.3927 LP  0  0  0  0  0  0  0  0  0  0  0  0  # atno 14329 bound_to 7439
  126.9314  138.9604  102.5882 LP  0  0  0  0  0  0  0  0  0  0  0  0  # atno 14330 bound_to 7439
  132.6604  150.4643   99.5340 LP  0  0  0  0  0  0  0  0  0  0  0  0  # atno 14371 bound_to 5713
  132.2704  151.0371  101.0127 LP  0  0  0  0  0  0  0  0  0  0  0  0  # atno 14372 bound_to 5713
  122.9414  137.5088  110.7040 LP  0  0  0  0  0  0  0  0  0  0  0  0  # atno 14387 bound_to 4286
  123.4785  138.7691  111.5927 LP  0  0  0  0  0  0  0  0  0  0  0  0  # atno 14388 bound_to 4286
  139.4970  141.2229  105.8045 LP  0  0  0  0  0  0  0  0  0  0  0  0  # atno 14389 bound_to 6130
  138.3628  141.5513  104.6764 LP  0  0  0  0  0  0  0  0  0  0  0  0  # atno 14390 bound_to 6130
  139.6586  132.5082  102.4852 LP  0  0  0  0  0  0  0  0  0  0  0  0  # atno 14404 bound_to 6224
  138.7224  132.4541  103.8221 LP  0  0  0  0  0  0  0  0  0  0  0  0  # atno 14405 bound_to 6224
  138.1670  138.6680   95.6921 LP  0  0  0  0  0  0  0  0  0  0  0  0  # atno 14408 bound_to 7174
  139.2823  138.3947   96.8531 LP  0  0  0  0  0  0  0  0  0  0  0  0  # atno 14409 bound_to 7174

> <Gold.Score>
     Fitness  S(hb_ext) S(vdw_ext)  S(hb_int)    S(int)      intcor
     27.51       2.33      18.43       0.00      -0.16      -0.76

> <Gold.Goldscore.Fitness>
27.5132

> <Gold.Goldscore.Internal.Vdw>
-0.4390

> <Gold.Goldscore.Internal.Torsion>
-0.4811

> <Gold.Goldscore.External.Vdw>
18.4254

> <Gold.Goldscore.Internal.HBond>
0.0000

> <Gold.Goldscore.External.HBond>
2.3334

> <Gold.Goldscore.Internal.Correction>
-0.7650

> <Gold.Goldscore.Hbonds>
donor molecule, donor type, donor heavy atom, donor atom, acceptor molecule, acceptor atom, score
      P1  H  4721  4726       L1    11  0.17
      L1  H     8    22       P1  7439  1.00

> <Gold.Goldscore.Internal.Vdw.Weighted>
-0.4390

> <Gold.Goldscore.Internal.Torsion.Weighted>
-0.4811

> <Gold.Goldscore.External.Vdw.Weighted>
25.3350

> <Gold.Goldscore.Internal.HBond.Weighted>
0.0000

> <Gold.Goldscore.External.HBond.Weighted>
2.3334

> <Gold.Goldscore.Internal.Correction.Weighted>
-0.7650

> <Gold.Rescore>
     Score     S(PLP)   S(hbond)     S(cho)   S(metal)  DE(clash)   DE(tors)     intcor
     32.63     -34.11       0.01       0.00       0.00       0.00       0.75       ----

> <Gold.PLP.Fitness>
32.6314

> <Gold.PLP.PLP>
-34.1065

> <Gold.PLP.part.hbond>
-4.0000

> <Gold.PLP.part.metal>
0.0000

> <Gold.PLP.part.buried>
-5.4724

> <Gold.PLP.part.nonpolar>
-25.6158

> <Gold.PLP.part.repulsive>
0.3342

> <Gold.PLP.ligand.clash>
0.0000

> <Gold.PLP.ligand.torsion>
0.7473

> <Gold.PLP.Chemscore.Hbond>
0.0065

> <Gold.PLP.Chemscore.CHOScore>
0.0000

> <Gold.PLP.Chemscore.Metal>
0.0000

> <Gold.Chemscore.Hbonds>
donor molecule, donor type, donor heavy atom, donor atom, acceptor molecule, acceptor atom, score
      L1  H     8    22       P1  7439  0.32
      P1  H  4721  4726       L1    11  0.86

> <Gold.PLP.Chemscore.Internal.Correction>
   9.000000E+99

