#       Name:                CT1002167954
#       Creating user name   hitesit
#       Creation time:       Sun Apr 16 22:51:02 2023


#       File generated by GOLD software.
#

@<TRIPOS>MOLECULE
CT1002167954|ligand_prepared|mol2|1|dock6
    29    30     1
SMALL
NO_CHARGES


@<TRIPOS>ATOM
      1 C1         128.9545 141.4337 100.2454 C.3            1 RES1               0.0000
      2 C2         128.0935 140.5630  99.3076 C.ar           1 RES1               0.0000
      3 C3         130.1041 141.9696  99.3970 C.2            1 RES1               0.0000
      4 C4         128.0291 142.5146 100.7931 C.2            1 RES1               0.0000
      5 C5         129.5487 140.6604 101.4455 C.3            1 RES1               0.0000
      6 C6         126.9693 141.0933  98.6819 C.ar           1 RES1               0.0000
      7 C7         128.4118 139.2309  99.0569 C.ar           1 RES1               0.0000
      8 N8         130.0645 143.2845  99.0375 N.am           1 RES1               0.0000
      9 O9         131.0112 141.2400  99.0161 O.2            1 RES1               0.0000
     10 N10        128.2794 143.8143 100.4385 N.am           1 RES1               0.0000
     11 O11        127.0754 142.2507 101.5150 O.2            1 RES1               0.0000
     12 C12        130.1693 141.5564 102.5057 C.3            1 RES1               0.0000
     13 C13        126.1930 140.3210  97.8339 C.ar           1 RES1               0.0000
     14 C14        127.6340 138.4602  98.2086 C.ar           1 RES1               0.0000
     15 C15        129.2367 144.2451  99.5608 C.2            1 RES1               0.0000
     16 C16        126.5250 139.0042  97.5963 C.ar           1 RES1               0.0000
     17 O17        129.3652 145.4257  99.2500 O.2            1 RES1               0.0000
     18 H18        128.7539 140.0631 101.9091 H              1 RES1               0.0000
     19 H19        130.3153 139.9686 101.0752 H              1 RES1               0.0000
     20 H20        126.6910 142.1270  98.8587 H              1 RES1               0.0000
     21 H21        129.2792 138.7815  99.5285 H              1 RES1               0.0000
     22 H22        130.7099 143.5811  98.3125 H              1 RES1               0.0000
     23 H23        127.6985 144.5268 100.8689 H              1 RES1               0.0000
     24 H24        130.5709 140.9637 103.3249 H              1 RES1               0.0000
     25 H25        130.9806 142.1468 102.0851 H              1 RES1               0.0000
     26 H26        129.4285 142.2408 102.9141 H              1 RES1               0.0000
     27 H27        125.3204 140.7534  97.3555 H              1 RES1               0.0000
     28 H28        127.8987 137.4241  98.0251 H              1 RES1               0.0000
     29 H29        125.9170 138.3994  96.9317 H              1 RES1               0.0000
@<TRIPOS>BOND
    1    1    2 1     
    2    1    3 1     
    3    1    4 1     
    4    1    5 1     
    5    2    6 ar    
    6    2    7 ar    
    7    3    8 1     
    8    3    9 2     
    9    4   10 1     
   10    4   11 2     
   11    5   12 1     
   12    5   18 1     
   13    5   19 1     
   14    6   13 ar    
   15    6   20 1     
   16    7   14 ar    
   17    7   21 1     
   18    8   15 1     
   19    8   22 1     
   20   10   15 1     
   21   10   23 1     
   22   12   24 1     
   23   12   25 1     
   24   12   26 1     
   25   13   16 ar    
   26   13   27 1     
   27   14   16 ar    
   28   14   28 1     
   29   15   17 2     
   30   16   29 1     
@<TRIPOS>SUBSTRUCTURE
      1 RES1           1
@<TRIPOS>SET
DONOR_HYDROGENS      STATIC     ATOMS    <user>   **** ""
2 22 23
ATOM$RED        STATIC     ATOMS    COLORGROUP SYSTEM
2 22 23
@<TRIPOS>COMMENT
> <Gold.Version>
2022.3.0

> <Gold.Id.Protein>
unknown|7rmi_clean|pdb

> <Gold.Protein.RotatedTorsions>
[ 4419 4410 4409 4407 ] final   69.25 input   60.00 | X-H torsion
[ 7286 7277 7276 7274 ] final   19.38 input   59.98 | X-H torsion
[ 7448 7439 7438 7436 ] final  116.85 input   59.99 | X-H torsion
[ 5718 5713 5712 5709 ] final -119.08 input   60.00 | X-H torsion
[ 4298 4286 4285 4282 ] final    3.46 input   60.01 | X-H torsion
[ 6139 6130 6129 6127 ] final  141.83 input   59.98 | X-H torsion
[ 6229 6224 6223 6220 ] final -157.89 input   60.02 | X-H torsion
[ 7183 7174 7173 7171 ] final -145.65 input   60.02 | X-H torsion

> <Gold.Protein.ActiveResidues>
 GLN24   PHE25   GLN27   MET81   PHE84   ASN85   THR86   VAL88   ASN89   PHE90  
 TYR92   ALA93   VAL94   HIS95   ASN96   GLU97   TRP98   TYR100  TYR104  CYS105 
 HIS108  ASN109  PRO112  ILE113  ALA114  ALA115  VAL116  PHE117  LEU161  ALA162 
 GLN165  SER169  THR170  GLU172  MET174  PRO175  ARG177  VAL178  VAL179  CYS180 
 MET181  ILE182  GLU183  TRP184  TYR196  HIS197  VAL200  THR201  ILE204  TRP261 
 PHE264  HIS265  PHE267  PHE268  LEU269  PRO271  TYR272  PRO275  LEU277  TYR278 
 LEU279  LYS280  LYS281  PHE282  ILE283  GLN284  GLN285  VAL286  TYR287  LEU288 
 ILE290  MET291  ALA294  MET295 

> <Gold.Protein.RotatedAtoms>
  124.1170  138.7389  110.2791 H   0  0  0  0  0  0  0  0  0  0  0  0  # atno 4298 bound_to 4286
  126.4120  146.5825   96.3650 H   0  0  0  0  0  0  0  0  0  0  0  0  # atno 4419 bound_to 4410
  132.3133  151.1299  100.8701 H   0  0  0  0  0  0  0  0  0  0  0  0  # atno 5718 bound_to 5713
  138.5288  142.2420  104.5819 H   0  0  0  0  0  0  0  0  0  0  0  0  # atno 6139 bound_to 6130
  139.0994  131.2531  102.5396 H   0  0  0  0  0  0  0  0  0  0  0  0  # atno 6229 bound_to 6224
  138.8161  137.9610   97.2973 H   0  0  0  0  0  0  0  0  0  0  0  0  # atno 7183 bound_to 7174
  132.6773  134.3240   93.5097 H   0  0  0  0  0  0  0  0  0  0  0  0  # atno 7286 bound_to 7277
  126.1750  140.1740  101.4448 H   0  0  0  0  0  0  0  0  0  0  0  0  # atno 7448 bound_to 7439
  125.4795  145.5974   95.4660 LP  0  0  0  0  0  0  0  0  0  0  0  0  # atno 14307 bound_to 4410
  126.7543  144.9934   96.2885 LP  0  0  0  0  0  0  0  0  0  0  0  0  # atno 14308 bound_to 4410
  131.2994  134.0071   94.3147 LP  0  0  0  0  0  0  0  0  0  0  0  0  # atno 14309 bound_to 7277
  131.9009  135.5249   94.2856 LP  0  0  0  0  0  0  0  0  0  0  0  0  # atno 14310 bound_to 7277
  127.2377  139.1965  102.1955 LP  0  0  0  0  0  0  0  0  0  0  0  0  # atno 14329 bound_to 7439
  125.6866  139.2631  102.7018 LP  0  0  0  0  0  0  0  0  0  0  0  0  # atno 14330 bound_to 7439
  132.2669  149.5034  100.8976 LP  0  0  0  0  0  0  0  0  0  0  0  0  # atno 14371 bound_to 5713
  132.6600  150.2887   99.5208 LP  0  0  0  0  0  0  0  0  0  0  0  0  # atno 14372 bound_to 5713
  123.0708  137.5031  110.4401 LP  0  0  0  0  0  0  0  0  0  0  0  0  # atno 14387 bound_to 4286
  123.2810  138.5634  111.6641 LP  0  0  0  0  0  0  0  0  0  0  0  0  # atno 14388 bound_to 4286
  139.7543  142.3331  105.6491 LP  0  0  0  0  0  0  0  0  0  0  0  0  # atno 14389 bound_to 6130
  138.9617  140.9222  105.4303 LP  0  0  0  0  0  0  0  0  0  0  0  0  # atno 14390 bound_to 6130
  139.5706  132.7912  102.7874 LP  0  0  0  0  0  0  0  0  0  0  0  0  # atno 14404 bound_to 6224
  138.5503  132.0677  103.8373 LP  0  0  0  0  0  0  0  0  0  0  0  0  # atno 14405 bound_to 6224
  137.5129  138.0568   96.3272 LP  0  0  0  0  0  0  0  0  0  0  0  0  # atno 14408 bound_to 7174
  138.9015  138.8082   95.9104 LP  0  0  0  0  0  0  0  0  0  0  0  0  # atno 14409 bound_to 7174

> <Gold.Score>
     Fitness  S(hb_ext) S(vdw_ext)  S(hb_int)    S(int)      intcor
     30.20       0.17      22.42       0.00      -0.80      -0.77

> <Gold.Goldscore.Fitness>
30.1964

> <Gold.Goldscore.Internal.Vdw>
-1.0144

> <Gold.Goldscore.Internal.Torsion>
-0.5561

> <Gold.Goldscore.External.Vdw>
22.4198

> <Gold.Goldscore.Internal.HBond>
0.0000

> <Gold.Goldscore.External.HBond>
0.1704

> <Gold.Goldscore.Internal.Correction>
-0.7693

> <Gold.Goldscore.Hbonds>
donor molecule, donor type, donor heavy atom, donor atom, acceptor molecule, acceptor atom, score
      P1  H  7439  7448       L1    11  0.09

> <Gold.Goldscore.Internal.Vdw.Weighted>
-1.0144

> <Gold.Goldscore.Internal.Torsion.Weighted>
-0.5561

> <Gold.Goldscore.External.Vdw.Weighted>
30.8272

> <Gold.Goldscore.Internal.HBond.Weighted>
0.0000

> <Gold.Goldscore.External.HBond.Weighted>
0.1704

> <Gold.Goldscore.Internal.Correction.Weighted>
-0.7693

> <Gold.Rescore>
     Score     S(PLP)   S(hbond)     S(cho)   S(metal)  DE(clash)   DE(tors)     intcor
     29.03     -26.89       0.99       0.00       0.00       0.00       0.42       ----

> <Gold.PLP.Fitness>
29.0329

> <Gold.PLP.PLP>
-26.8923

> <Gold.PLP.part.hbond>
-0.7009

> <Gold.PLP.part.metal>
0.0000

> <Gold.PLP.part.buried>
-3.4245

> <Gold.PLP.part.nonpolar>
-24.9420

> <Gold.PLP.part.repulsive>
1.9492

> <Gold.PLP.ligand.clash>
0.0000

> <Gold.PLP.ligand.torsion>
0.4177

> <Gold.PLP.Chemscore.Hbond>
0.9920

> <Gold.PLP.Chemscore.CHOScore>
0.0000

> <Gold.PLP.Chemscore.Metal>
0.0000

> <Gold.Chemscore.Hbonds>
donor molecule, donor type, donor heavy atom, donor atom, acceptor molecule, acceptor atom, score
      P1  H  7439  7448       L1    11  0.45

> <Gold.PLP.Chemscore.Internal.Correction>
   9.000000E+99

