#       Name:                CT1002167954
#       Creating user name   hitesit
#       Creation time:       Sun Apr 16 22:51:04 2023


#       File generated by GOLD software.
#

@<TRIPOS>MOLECULE
CT1002167954|ligand_prepared|mol2|1|dock8
    29    30     1
SMALL
NO_CHARGES


@<TRIPOS>ATOM
      1 C1         124.7846 138.9392  95.5500 C.3            1 RES1               0.0000
      2 C2         125.1696 139.7202  96.8230 C.ar           1 RES1               0.0000
      3 C3         125.9282 139.1423  94.5604 C.2            1 RES1               0.0000
      4 C4         124.5856 137.4907  95.9820 C.2            1 RES1               0.0000
      5 C5         123.4728 139.4258  94.8912 C.3            1 RES1               0.0000
      6 C6         124.2543 140.5697  97.4372 C.ar           1 RES1               0.0000
      7 C7         126.4332 139.5998  97.3952 C.ar           1 RES1               0.0000
      8 N8         126.7696 138.0913  94.3429 N.am           1 RES1               0.0000
      9 O9         126.1124 140.2205  94.0092 O.2            1 RES1               0.0000
     10 N10        125.4572 136.5507  95.4979 N.am           1 RES1               0.0000
     11 O11        123.6919 137.1573  96.7505 O.2            1 RES1               0.0000
     12 C12        123.2252 138.8381  93.5108 C.3            1 RES1               0.0000
     13 C13        124.5889 141.2710  98.5837 C.ar           1 RES1               0.0000
     14 C14        126.7659 140.3023  98.5417 C.ar           1 RES1               0.0000
     15 C15        126.5588 136.7900  94.7224 C.2            1 RES1               0.0000
     16 C16        125.8446 141.1375  99.1369 C.ar           1 RES1               0.0000
     17 O17        127.3265 135.8986  94.3716 O.2            1 RES1               0.0000
     18 H18        122.6312 139.1621  95.5435 H              1 RES1               0.0000
     19 H19        123.5034 140.5193  94.8090 H              1 RES1               0.0000
     20 H20        123.2621 140.6893  97.0149 H              1 RES1               0.0000
     21 H21        127.1744 138.9493  96.9435 H              1 RES1               0.0000
     22 H22        127.6357 138.2913  93.8529 H              1 RES1               0.0000
     23 H23        125.2672 135.5828  95.7378 H              1 RES1               0.0000
     24 H24        122.2924 139.2121  93.0941 H              1 RES1               0.0000
     25 H25        124.0309 139.1021  92.8290 H              1 RES1               0.0000
     26 H26        123.1638 137.7529  93.5590 H              1 RES1               0.0000
     27 H27        123.8607 141.9282  99.0476 H              1 RES1               0.0000
     28 H28        127.7555 140.1946  98.9733 H              1 RES1               0.0000
     29 H29        126.1063 141.6868 100.0353 H              1 RES1               0.0000
@<TRIPOS>BOND
    1    1    2 1     
    2    1    3 1     
    3    1    4 1     
    4    1    5 1     
    5    2    6 ar    
    6    2    7 ar    
    7    3    8 1     
    8    3    9 2     
    9    4   10 1     
   10    4   11 2     
   11    5   12 1     
   12    5   18 1     
   13    5   19 1     
   14    6   13 ar    
   15    6   20 1     
   16    7   14 ar    
   17    7   21 1     
   18    8   15 1     
   19    8   22 1     
   20   10   15 1     
   21   10   23 1     
   22   12   24 1     
   23   12   25 1     
   24   12   26 1     
   25   13   16 ar    
   26   13   27 1     
   27   14   16 ar    
   28   14   28 1     
   29   15   17 2     
   30   16   29 1     
@<TRIPOS>SUBSTRUCTURE
      1 RES1           1
@<TRIPOS>SET
DONOR_HYDROGENS      STATIC     ATOMS    <user>   **** ""
2 22 23
ATOM$RED        STATIC     ATOMS    COLORGROUP SYSTEM
2 22 23
@<TRIPOS>COMMENT
> <Gold.Version>
2022.3.0

> <Gold.Id.Protein>
unknown|7rmi_clean|pdb

> <Gold.Protein.RotatedTorsions>
[ 4419 4410 4409 4407 ] final  115.15 input   60.00 | X-H torsion
[ 7286 7277 7276 7274 ] final  -11.00 input   59.98 | X-H torsion
[ 7448 7439 7438 7436 ] final   44.34 input   59.99 | X-H torsion
[ 5718 5713 5712 5709 ] final -167.89 input   60.00 | X-H torsion
[ 4298 4286 4285 4282 ] final   85.06 input   60.01 | X-H torsion
[ 6139 6130 6129 6127 ] final  -28.67 input   59.98 | X-H torsion
[ 6229 6224 6223 6220 ] final   -3.60 input   60.02 | X-H torsion
[ 7183 7174 7173 7171 ] final  -38.37 input   60.02 | X-H torsion

> <Gold.Protein.ActiveResidues>
 GLN24   PHE25   GLN27   MET81   PHE84   ASN85   THR86   VAL88   ASN89   PHE90  
 TYR92   ALA93   VAL94   HIS95   ASN96   GLU97   TRP98   TYR100  TYR104  CYS105 
 HIS108  ASN109  PRO112  ILE113  ALA114  ALA115  VAL116  PHE117  LEU161  ALA162 
 GLN165  SER169  THR170  GLU172  MET174  PRO175  ARG177  VAL178  VAL179  CYS180 
 MET181  ILE182  GLU183  TRP184  TYR196  HIS197  VAL200  THR201  ILE204  TRP261 
 PHE264  HIS265  PHE267  PHE268  LEU269  PRO271  TYR272  PRO275  LEU277  TYR278 
 LEU279  LYS280  LYS281  PHE282  ILE283  GLN284  GLN285  VAL286  TYR287  LEU288 
 ILE290  MET291  ALA294  MET295 

> <Gold.Protein.RotatedAtoms>
  123.7005  138.9405  111.4117 H   0  0  0  0  0  0  0  0  0  0  0  0  # atno 4298 bound_to 4286
  126.8770  146.0734   96.6053 H   0  0  0  0  0  0  0  0  0  0  0  0  # atno 4419 bound_to 4410
  132.1782  150.5108  101.3142 H   0  0  0  0  0  0  0  0  0  0  0  0  # atno 5718 bound_to 5713
  139.7015  141.5631  105.8660 H   0  0  0  0  0  0  0  0  0  0  0  0  # atno 6139 bound_to 6130
  138.7988  132.5595  103.7799 H   0  0  0  0  0  0  0  0  0  0  0  0  # atno 6229 bound_to 6224
  139.0517  138.7775   96.0513 H   0  0  0  0  0  0  0  0  0  0  0  0  # atno 7183 bound_to 7174
  132.4045  133.9245   93.5900 H   0  0  0  0  0  0  0  0  0  0  0  0  # atno 7286 bound_to 7277
  127.1565  139.6977  101.6344 H   0  0  0  0  0  0  0  0  0  0  0  0  # atno 7448 bound_to 7439
  125.5625  146.2982   95.6727 LP  0  0  0  0  0  0  0  0  0  0  0  0  # atno 14307 bound_to 4410
  126.2030  144.8054   95.8398 LP  0  0  0  0  0  0  0  0  0  0  0  0  # atno 14308 bound_to 4410
  131.1616  134.4423   94.5034 LP  0  0  0  0  0  0  0  0  0  0  0  0  # atno 14309 bound_to 7277
  132.3135  135.4921   94.0159 LP  0  0  0  0  0  0  0  0  0  0  0  0  # atno 14310 bound_to 7277
  126.3595  138.9365  102.8318 LP  0  0  0  0  0  0  0  0  0  0  0  0  # atno 14329 bound_to 7439
  125.5762  140.0028  101.8747 LP  0  0  0  0  0  0  0  0  0  0  0  0  # atno 14330 bound_to 7439
  132.4684  149.4107  100.1506 LP  0  0  0  0  0  0  0  0  0  0  0  0  # atno 14371 bound_to 5713
  132.5945  151.0050   99.8206 LP  0  0  0  0  0  0  0  0  0  0  0  0  # atno 14372 bound_to 5713
  123.9115  138.2583  109.9495 LP  0  0  0  0  0  0  0  0  0  0  0  0  # atno 14387 bound_to 4286
  122.8596  137.6052  111.0143 LP  0  0  0  0  0  0  0  0  0  0  0  0  # atno 14388 bound_to 4286
  138.4565  141.2147  104.8771 LP  0  0  0  0  0  0  0  0  0  0  0  0  # atno 14389 bound_to 6130
  139.0791  142.7240  104.9098 LP  0  0  0  0  0  0  0  0  0  0  0  0  # atno 14390 bound_to 6130
  138.7614  131.1503  102.9664 LP  0  0  0  0  0  0  0  0  0  0  0  0  # atno 14404 bound_to 6224
  139.6621  132.3936  102.4101 LP  0  0  0  0  0  0  0  0  0  0  0  0  # atno 14405 bound_to 6224
  138.6317  137.8731   97.3374 LP  0  0  0  0  0  0  0  0  0  0  0  0  # atno 14408 bound_to 7174
  137.5455  138.1699   96.1547 LP  0  0  0  0  0  0  0  0  0  0  0  0  # atno 14409 bound_to 7174

> <Gold.Score>
     Fitness  S(hb_ext) S(vdw_ext)  S(hb_int)    S(int)      intcor
     40.35       0.29      29.75       0.00      -0.83      -0.76

> <Gold.Goldscore.Fitness>
40.3531

> <Gold.Goldscore.Internal.Vdw>
-1.0494

> <Gold.Goldscore.Internal.Torsion>
-0.5501

> <Gold.Goldscore.External.Vdw>
29.7471

> <Gold.Goldscore.Internal.HBond>
0.0000

> <Gold.Goldscore.External.HBond>
0.2854

> <Gold.Goldscore.Internal.Correction>
-0.7650

> <Gold.Goldscore.Hbonds>
donor molecule, donor type, donor heavy atom, donor atom, acceptor molecule, acceptor atom, score
      P1  H  4470  4475       L1     9  0.08
      L1  H    10    23       P1  7362  0.06

> <Gold.Goldscore.Internal.Vdw.Weighted>
-1.0494

> <Gold.Goldscore.Internal.Torsion.Weighted>
-0.5501

> <Gold.Goldscore.External.Vdw.Weighted>
40.9023

> <Gold.Goldscore.Internal.HBond.Weighted>
0.0000

> <Gold.Goldscore.External.HBond.Weighted>
0.2854

> <Gold.Goldscore.Internal.Correction.Weighted>
-0.7650

> <Gold.Rescore>
     Score     S(PLP)   S(hbond)     S(cho)   S(metal)  DE(clash)   DE(tors)     intcor
     29.47     -24.87       1.58       0.00       0.00       0.00       0.07       ----

> <Gold.PLP.Fitness>
29.4687

> <Gold.PLP.PLP>
-24.8718

> <Gold.PLP.part.hbond>
-2.0000

> <Gold.PLP.part.metal>
0.0000

> <Gold.PLP.part.buried>
8.5622

> <Gold.PLP.part.nonpolar>
-32.9893

> <Gold.PLP.part.repulsive>
0.3391

> <Gold.PLP.ligand.clash>
0.0000

> <Gold.PLP.ligand.torsion>
0.0709

> <Gold.PLP.Chemscore.Hbond>
1.5796

> <Gold.PLP.Chemscore.CHOScore>
0.0000

> <Gold.PLP.Chemscore.Metal>
0.0000

> <Gold.Chemscore.Hbonds>
donor molecule, donor type, donor heavy atom, donor atom, acceptor molecule, acceptor atom, score
      L1  H    10    23       P1  7362  1.00
      P1  H  4470  4475       L1     9  0.54

> <Gold.PLP.Chemscore.Internal.Correction>
   9.000000E+99

