#       Name:                CT1002167954
#       Creating user name   hitesit
#       Creation time:       Sun Apr 16 22:51:05 2023


#       File generated by GOLD software.
#

@<TRIPOS>MOLECULE
CT1002167954|ligand_prepared|mol2|1|dock9
    29    30     1
SMALL
NO_CHARGES


@<TRIPOS>ATOM
      1 C1         129.2235 141.7421 100.6286 C.3            1 RES1               0.0000
      2 C2         128.2112 140.9242  99.8009 C.ar           1 RES1               0.0000
      3 C3         129.6278 142.9292  99.7593 C.2            1 RES1               0.0000
      4 C4         128.5066 142.1301 101.9171 C.2            1 RES1               0.0000
      5 C5         130.4992 140.9555 101.0099 C.3            1 RES1               0.0000
      6 C6         128.6129 139.7776  99.1221 C.ar           1 RES1               0.0000
      7 C7         126.8741 141.3015  99.7091 C.ar           1 RES1               0.0000
      8 N8         129.1300 144.1545 100.0921 N.am           1 RES1               0.0000
      9 O9         130.3406 142.7860  98.7736 O.2            1 RES1               0.0000
     10 N10        128.2555 143.4591 102.1369 N.am           1 RES1               0.0000
     11 O11        128.1421 141.2954 102.7360 O.2            1 RES1               0.0000
     12 C12        131.3917 141.6800 102.0053 C.3            1 RES1               0.0000
     13 C13        127.7101 139.0335  98.3808 C.ar           1 RES1               0.0000
     14 C14        125.9729 140.5560  98.9670 C.ar           1 RES1               0.0000
     15 C15        128.5073 144.4861 101.2685 C.2            1 RES1               0.0000
     16 C16        126.3896 139.4219  98.3031 C.ar           1 RES1               0.0000
     17 O17        128.2028 145.6496 101.5148 O.2            1 RES1               0.0000
     18 H18        130.2038 139.9898 101.4382 H              1 RES1               0.0000
     19 H19        131.0764 140.7556 100.0986 H              1 RES1               0.0000
     20 H20        129.6485 139.4579  99.1697 H              1 RES1               0.0000
     21 H21        126.5241 142.1908 100.2222 H              1 RES1               0.0000
     22 H22        129.2299 144.8926  99.4024 H              1 RES1               0.0000
     23 H23        127.8427 143.7057 103.0309 H              1 RES1               0.0000
     24 H24        132.2720 141.0848 102.2384 H              1 RES1               0.0000
     25 H25        131.7247 142.6339 101.6016 H              1 RES1               0.0000
     26 H26        130.8573 141.8727 102.9333 H              1 RES1               0.0000
     27 H27        128.0433 138.1425  97.8590 H              1 RES1               0.0000
     28 H28        124.9348 140.8658  98.9081 H              1 RES1               0.0000
     29 H29        125.6825 138.8386  97.7226 H              1 RES1               0.0000
@<TRIPOS>BOND
    1    1    2 1     
    2    1    3 1     
    3    1    4 1     
    4    1    5 1     
    5    2    6 ar    
    6    2    7 ar    
    7    3    8 1     
    8    3    9 2     
    9    4   10 1     
   10    4   11 2     
   11    5   12 1     
   12    5   18 1     
   13    5   19 1     
   14    6   13 ar    
   15    6   20 1     
   16    7   14 ar    
   17    7   21 1     
   18    8   15 1     
   19    8   22 1     
   20   10   15 1     
   21   10   23 1     
   22   12   24 1     
   23   12   25 1     
   24   12   26 1     
   25   13   16 ar    
   26   13   27 1     
   27   14   16 ar    
   28   14   28 1     
   29   15   17 2     
   30   16   29 1     
@<TRIPOS>SUBSTRUCTURE
      1 RES1           1
@<TRIPOS>SET
DONOR_HYDROGENS      STATIC     ATOMS    <user>   **** ""
2 22 23
ATOM$RED        STATIC     ATOMS    COLORGROUP SYSTEM
2 22 23
@<TRIPOS>COMMENT
> <Gold.Version>
2022.3.0

> <Gold.Id.Protein>
unknown|7rmi_clean|pdb

> <Gold.Protein.RotatedTorsions>
[ 4419 4410 4409 4407 ] final  158.74 input   60.00 | X-H torsion
[ 7286 7277 7276 7274 ] final   53.03 input   59.98 | X-H torsion
[ 7448 7439 7438 7436 ] final  167.82 input   59.99 | X-H torsion
[ 5718 5713 5712 5709 ] final -162.56 input   60.00 | X-H torsion
[ 4298 4286 4285 4282 ] final  -11.57 input   60.01 | X-H torsion
[ 6139 6130 6129 6127 ] final  145.41 input   59.98 | X-H torsion
[ 6229 6224 6223 6220 ] final  -41.47 input   60.02 | X-H torsion
[ 7183 7174 7173 7171 ] final  159.67 input   60.02 | X-H torsion

> <Gold.Protein.ActiveResidues>
 GLN24   PHE25   GLN27   MET81   PHE84   ASN85   THR86   VAL88   ASN89   PHE90  
 TYR92   ALA93   VAL94   HIS95   ASN96   GLU97   TRP98   TYR100  TYR104  CYS105 
 HIS108  ASN109  PRO112  ILE113  ALA114  ALA115  VAL116  PHE117  LEU161  ALA162 
 GLN165  SER169  THR170  GLU172  MET174  PRO175  ARG177  VAL178  VAL179  CYS180 
 MET181  ILE182  GLU183  TRP184  TYR196  HIS197  VAL200  THR201  ILE204  TRP261 
 PHE264  HIS265  PHE267  PHE268  LEU269  PRO271  TYR272  PRO275  LEU277  TYR278 
 LEU279  LYS280  LYS281  PHE282  ILE283  GLN284  GLN285  VAL286  TYR287  LEU288 
 ILE290  MET291  ALA294  MET295 

> <Gold.Protein.RotatedAtoms>
  124.0642  138.5652  110.1146 H   0  0  0  0  0  0  0  0  0  0  0  0  # atno 4298 bound_to 4286
  126.9477  145.3878   96.5159 H   0  0  0  0  0  0  0  0  0  0  0  0  # atno 4419 bound_to 4410
  132.1859  150.5949  101.2927 H   0  0  0  0  0  0  0  0  0  0  0  0  # atno 5718 bound_to 5713
  138.5014  142.1906  104.5753 H   0  0  0  0  0  0  0  0  0  0  0  0  # atno 6139 bound_to 6130
  138.5398  132.0113  103.8230 H   0  0  0  0  0  0  0  0  0  0  0  0  # atno 6229 bound_to 6224
  137.9958  137.7412   97.1613 H   0  0  0  0  0  0  0  0  0  0  0  0  # atno 7183 bound_to 7174
  132.7482  134.8554   93.5883 H   0  0  0  0  0  0  0  0  0  0  0  0  # atno 7286 bound_to 7277
  125.5547  139.9708  101.9173 H   0  0  0  0  0  0  0  0  0  0  0  0  # atno 7448 bound_to 7439
  126.0131  146.6465   96.0797 LP  0  0  0  0  0  0  0  0  0  0  0  0  # atno 14307 bound_to 4410
  125.6811  145.1478   95.5228 LP  0  0  0  0  0  0  0  0  0  0  0  0  # atno 14308 bound_to 4410
  131.6609  133.7243   94.0192 LP  0  0  0  0  0  0  0  0  0  0  0  0  # atno 14309 bound_to 7277
  131.4680  135.2724   94.5018 LP  0  0  0  0  0  0  0  0  0  0  0  0  # atno 14310 bound_to 7277
  127.1336  139.7373  101.5995 LP  0  0  0  0  0  0  0  0  0  0  0  0  # atno 14329 bound_to 7439
  126.4153  138.9270  102.8219 LP  0  0  0  0  0  0  0  0  0  0  0  0  # atno 14330 bound_to 7439
  132.4456  149.3881  100.2323 LP  0  0  0  0  0  0  0  0  0  0  0  0  # atno 14371 bound_to 5713
  132.6095  150.9428   99.7605 LP  0  0  0  0  0  0  0  0  0  0  0  0  # atno 14372 bound_to 5713
  122.9590  137.5027  110.6600 LP  0  0  0  0  0  0  0  0  0  0  0  0  # atno 14387 bound_to 4286
  123.4459  138.7386  111.6098 LP  0  0  0  0  0  0  0  0  0  0  0  0  # atno 14388 bound_to 4286
  139.7372  142.3799  105.6176 LP  0  0  0  0  0  0  0  0  0  0  0  0  # atno 14389 bound_to 6130
  139.0064  140.9271  105.4685 LP  0  0  0  0  0  0  0  0  0  0  0  0  # atno 14390 bound_to 6130
  139.1343  131.2764  102.4980 LP  0  0  0  0  0  0  0  0  0  0  0  0  # atno 14404 bound_to 6224
  139.5499  132.8193  102.8350 LP  0  0  0  0  0  0  0  0  0  0  0  0  # atno 14405 bound_to 6224
  137.9310  138.5481   95.7495 LP  0  0  0  0  0  0  0  0  0  0  0  0  # atno 14408 bound_to 7174
  139.3094  138.5382   96.6250 LP  0  0  0  0  0  0  0  0  0  0  0  0  # atno 14409 bound_to 7174

> <Gold.Score>
     Fitness  S(hb_ext) S(vdw_ext)  S(hb_int)    S(int)      intcor
     30.76       1.46      21.74       0.00      -0.59      -0.76

> <Gold.Goldscore.Fitness>
30.7629

> <Gold.Goldscore.Internal.Vdw>
-0.8584

> <Gold.Goldscore.Internal.Torsion>
-0.4971

> <Gold.Goldscore.External.Vdw>
21.7437

> <Gold.Goldscore.Internal.HBond>
0.0000

> <Gold.Goldscore.External.HBond>
1.4559

> <Gold.Goldscore.Internal.Correction>
-0.7650

> <Gold.Goldscore.Hbonds>
donor molecule, donor type, donor heavy atom, donor atom, acceptor molecule, acceptor atom, score
      L1  H     8    22       P1  5901  0.53
      L1  H    10    23       P1  4706  0.20

> <Gold.Goldscore.Internal.Vdw.Weighted>
-0.8584

> <Gold.Goldscore.Internal.Torsion.Weighted>
-0.4971

> <Gold.Goldscore.External.Vdw.Weighted>
29.8976

> <Gold.Goldscore.Internal.HBond.Weighted>
0.0000

> <Gold.Goldscore.External.HBond.Weighted>
1.4559

> <Gold.Goldscore.Internal.Correction.Weighted>
-0.7650

> <Gold.Rescore>
     Score     S(PLP)   S(hbond)     S(cho)   S(metal)  DE(clash)   DE(tors)     intcor
     35.37     -32.75       0.98       0.00       0.00       0.00       0.16       ----

> <Gold.PLP.Fitness>
35.3726

> <Gold.PLP.PLP>
-32.7494

> <Gold.PLP.part.hbond>
-2.0563

> <Gold.PLP.part.metal>
0.0000

> <Gold.PLP.part.buried>
-4.3671

> <Gold.PLP.part.nonpolar>
-27.4844

> <Gold.PLP.part.repulsive>
0.3250

> <Gold.PLP.ligand.clash>
0.0000

> <Gold.PLP.ligand.torsion>
0.1618

> <Gold.PLP.Chemscore.Hbond>
0.9823

> <Gold.PLP.Chemscore.CHOScore>
0.0000

> <Gold.PLP.Chemscore.Metal>
0.0000

> <Gold.Chemscore.Hbonds>
donor molecule, donor type, donor heavy atom, donor atom, acceptor molecule, acceptor atom, score
      L1  H     8    22       P1  5901  0.02
      L1  H    10    23       P1  4347  0.11

> <Gold.PLP.Chemscore.Internal.Correction>
   9.000000E+99

