#       Name:                CT1002167954
#       Creating user name   hitesit
#       Creation time:       Sun Apr 16 22:51:06 2023


#       File generated by GOLD software.
#

@<TRIPOS>MOLECULE
CT1002167954|ligand_prepared|mol2|1|dock10
    29    30     1
SMALL
NO_CHARGES


@<TRIPOS>ATOM
      1 C1         130.2041 142.3894 102.1076 C.3            1 RES1               0.0000
      2 C2         131.4724 141.7509 101.5056 C.ar           1 RES1               0.0000
      3 C3         129.2210 141.2470 102.3458 C.2            1 RES1               0.0000
      4 C4         130.6483 143.1034 103.3794 C.2            1 RES1               0.0000
      5 C5         129.5312 143.4320 101.1846 C.3            1 RES1               0.0000
      6 C6         132.1245 140.7131 102.1648 C.ar           1 RES1               0.0000
      7 C7         131.9999 142.1864 100.2929 C.ar           1 RES1               0.0000
      8 N8         129.0196 140.8450 103.6333 N.am           1 RES1               0.0000
      9 O9         128.6611 140.6812 101.4149 O.2            1 RES1               0.0000
     10 N10        130.1794 142.6319 104.5776 N.am           1 RES1               0.0000
     11 O11        131.4133 144.0597 103.3559 O.2            1 RES1               0.0000
     12 C12        128.2417 144.0081 101.7482 C.3            1 RES1               0.0000
     13 C13        133.2609 140.1297 101.6297 C.ar           1 RES1               0.0000
     14 C14        133.1366 141.6017  99.7596 C.ar           1 RES1               0.0000
     15 C15        129.4097 141.5161 104.7643 C.2            1 RES1               0.0000
     16 C16        133.7675 140.5732 100.4266 C.ar           1 RES1               0.0000
     17 O17        129.0730 141.1242 105.8779 O.2            1 RES1               0.0000
     18 H18        130.2364 144.2531 101.0063 H              1 RES1               0.0000
     19 H19        129.3144 142.9604 100.2182 H              1 RES1               0.0000
     20 H20        131.7419 140.3524 103.1138 H              1 RES1               0.0000
     21 H21        131.5208 142.9948  99.7511 H              1 RES1               0.0000
     22 H22        128.5341 139.9638 103.7677 H              1 RES1               0.0000
     23 H23        130.4270 143.1618 105.4072 H              1 RES1               0.0000
     24 H24        127.8110 144.7338 101.0615 H              1 RES1               0.0000
     25 H25        127.5081 143.2219 101.9142 H              1 RES1               0.0000
     26 H26        128.4247 144.5069 102.6976 H              1 RES1               0.0000
     27 H27        133.7545 139.3215 102.1592 H              1 RES1               0.0000
     28 H28        133.5322 141.9544  98.8128 H              1 RES1               0.0000
     29 H29        134.6575 140.1157 100.0074 H              1 RES1               0.0000
@<TRIPOS>BOND
    1    1    2 1     
    2    1    3 1     
    3    1    4 1     
    4    1    5 1     
    5    2    6 ar    
    6    2    7 ar    
    7    3    8 1     
    8    3    9 2     
    9    4   10 1     
   10    4   11 2     
   11    5   12 1     
   12    5   18 1     
   13    5   19 1     
   14    6   13 ar    
   15    6   20 1     
   16    7   14 ar    
   17    7   21 1     
   18    8   15 1     
   19    8   22 1     
   20   10   15 1     
   21   10   23 1     
   22   12   24 1     
   23   12   25 1     
   24   12   26 1     
   25   13   16 ar    
   26   13   27 1     
   27   14   16 ar    
   28   14   28 1     
   29   15   17 2     
   30   16   29 1     
@<TRIPOS>SUBSTRUCTURE
      1 RES1           1
@<TRIPOS>SET
DONOR_HYDROGENS      STATIC     ATOMS    <user>   **** ""
2 22 23
ATOM$RED        STATIC     ATOMS    COLORGROUP SYSTEM
2 22 23
@<TRIPOS>COMMENT
> <Gold.Version>
2022.3.0

> <Gold.Id.Protein>
unknown|7rmi_clean|pdb

> <Gold.Protein.RotatedTorsions>
[ 4419 4410 4409 4407 ] final  -53.63 input   60.00 | X-H torsion
[ 7286 7277 7276 7274 ] final  -52.35 input   59.98 | X-H torsion
[ 7448 7439 7438 7436 ] final  167.07 input   59.99 | X-H torsion
[ 5718 5713 5712 5709 ] final -163.23 input   60.00 | X-H torsion
[ 4298 4286 4285 4282 ] final   12.65 input   60.01 | X-H torsion
[ 6139 6130 6129 6127 ] final  -97.49 input   59.98 | X-H torsion
[ 6229 6224 6223 6220 ] final  124.46 input   60.02 | X-H torsion
[ 7183 7174 7173 7171 ] final  147.68 input   60.02 | X-H torsion

> <Gold.Protein.ActiveResidues>
 GLN24   PHE25   GLN27   MET81   PHE84   ASN85   THR86   VAL88   ASN89   PHE90  
 TYR92   ALA93   VAL94   HIS95   ASN96   GLU97   TRP98   TYR100  TYR104  CYS105 
 HIS108  ASN109  PRO112  ILE113  ALA114  ALA115  VAL116  PHE117  LEU161  ALA162 
 GLN165  SER169  THR170  GLU172  MET174  PRO175  ARG177  VAL178  VAL179  CYS180 
 MET181  ILE182  GLU183  TRP184  TYR196  HIS197  VAL200  THR201  ILE204  TRP261 
 PHE264  HIS265  PHE267  PHE268  LEU269  PRO271  TYR272  PRO275  LEU277  TYR278 
 LEU279  LYS280  LYS281  PHE282  ILE283  GLN284  GLN285  VAL286  TYR287  LEU288 
 ILE290  MET291  ALA294  MET295 

> <Gold.Protein.RotatedAtoms>
  124.1282  138.8300  110.3977 H   0  0  0  0  0  0  0  0  0  0  0  0  # atno 4298 bound_to 4286
  125.4945  145.5524   95.4698 H   0  0  0  0  0  0  0  0  0  0  0  0  # atno 4419 bound_to 4410
  132.1848  150.5843  101.2959 H   0  0  0  0  0  0  0  0  0  0  0  0  # atno 5718 bound_to 5713
  138.9724  140.9283  105.4346 H   0  0  0  0  0  0  0  0  0  0  0  0  # atno 6139 bound_to 6130
  139.6518  132.2731  102.3562 H   0  0  0  0  0  0  0  0  0  0  0  0  # atno 6229 bound_to 6224
  137.8406  137.7540   97.0428 H   0  0  0  0  0  0  0  0  0  0  0  0  # atno 7183 bound_to 7174
  131.8574  133.6999   93.8853 H   0  0  0  0  0  0  0  0  0  0  0  0  # atno 7286 bound_to 7277
  125.5602  139.9769  101.9081 H   0  0  0  0  0  0  0  0  0  0  0  0  # atno 7448 bound_to 7439
  126.7809  145.0232   96.3144 LP  0  0  0  0  0  0  0  0  0  0  0  0  # atno 14307 bound_to 4410
  126.3772  146.6053   96.3418 LP  0  0  0  0  0  0  0  0  0  0  0  0  # atno 14308 bound_to 4410
  131.3245  135.0862   94.5497 LP  0  0  0  0  0  0  0  0  0  0  0  0  # atno 14309 bound_to 7277
  132.7016  135.0744   93.6722 LP  0  0  0  0  0  0  0  0  0  0  0  0  # atno 14310 bound_to 7277
  127.1401  139.7293  101.6065 LP  0  0  0  0  0  0  0  0  0  0  0  0  # atno 14329 bound_to 7439
  126.4032  138.9289  102.8243 LP  0  0  0  0  0  0  0  0  0  0  0  0  # atno 14330 bound_to 7439
  132.4485  149.3905  100.2218 LP  0  0  0  0  0  0  0  0  0  0  0  0  # atno 14371 bound_to 5713
  132.6077  150.9510   99.7678 LP  0  0  0  0  0  0  0  0  0  0  0  0  # atno 14372 bound_to 5713
  123.1539  137.5292  110.3167 LP  0  0  0  0  0  0  0  0  0  0  0  0  # atno 14387 bound_to 4286
  123.1867  138.4455  111.6680 LP  0  0  0  0  0  0  0  0  0  0  0  0  # atno 14388 bound_to 4286
  138.5182  142.2355  104.5779 LP  0  0  0  0  0  0  0  0  0  0  0  0  # atno 14389 bound_to 6130
  139.7512  142.3422  105.6432 LP  0  0  0  0  0  0  0  0  0  0  0  0  # atno 14390 bound_to 6130
  138.8707  132.6594  103.7309 LP  0  0  0  0  0  0  0  0  0  0  0  0  # atno 14404 bound_to 6224
  138.6943  131.1728  103.0784 LP  0  0  0  0  0  0  0  0  0  0  0  0  # atno 14405 bound_to 6224
  138.0994  138.6380   95.7012 LP  0  0  0  0  0  0  0  0  0  0  0  0  # atno 14408 bound_to 7174
  139.2971  138.4355   96.7926 LP  0  0  0  0  0  0  0  0  0  0  0  0  # atno 14409 bound_to 7174

> <Gold.Score>
     Fitness  S(hb_ext) S(vdw_ext)  S(hb_int)    S(int)      intcor
     32.31       0.67      23.05       0.00      -0.05      -0.76

> <Gold.Goldscore.Fitness>
32.3082

> <Gold.Goldscore.Internal.Vdw>
-0.4373

> <Gold.Goldscore.Internal.Torsion>
-0.3825

> <Gold.Goldscore.External.Vdw>
23.0481

> <Gold.Goldscore.Internal.HBond>
0.0000

> <Gold.Goldscore.External.HBond>
0.6719

> <Gold.Goldscore.Internal.Correction>
-0.7650

> <Gold.Goldscore.Hbonds>
donor molecule, donor type, donor heavy atom, donor atom, acceptor molecule, acceptor atom, score
      P1  H  4348  4353       L1    17  0.34

> <Gold.Goldscore.Internal.Vdw.Weighted>
-0.4373

> <Gold.Goldscore.Internal.Torsion.Weighted>
-0.3825

> <Gold.Goldscore.External.Vdw.Weighted>
31.6911

> <Gold.Goldscore.Internal.HBond.Weighted>
0.0000

> <Gold.Goldscore.External.HBond.Weighted>
0.6719

> <Gold.Goldscore.Internal.Correction.Weighted>
-0.7650

> <Gold.Rescore>
     Score     S(PLP)   S(hbond)     S(cho)   S(metal)  DE(clash)   DE(tors)     intcor
     28.41     -25.74       0.91       0.00       0.00       0.00       0.04       ----

> <Gold.PLP.Fitness>
28.4052

> <Gold.PLP.PLP>
-25.7426

> <Gold.PLP.part.hbond>
-3.4180

> <Gold.PLP.part.metal>
0.0000

> <Gold.PLP.part.buried>
-5.6228

> <Gold.PLP.part.nonpolar>
-20.7944

> <Gold.PLP.part.repulsive>
3.4636

> <Gold.PLP.ligand.clash>
0.0000

> <Gold.PLP.ligand.torsion>
0.0367

> <Gold.PLP.Chemscore.Hbond>
0.9120

> <Gold.PLP.Chemscore.CHOScore>
0.0000

> <Gold.PLP.Chemscore.Metal>
0.0000

> <Gold.Chemscore.Hbonds>
donor molecule, donor type, donor heavy atom, donor atom, acceptor molecule, acceptor atom, score
      P1  H  4348  4353       L1    17  1.00

> <Gold.PLP.Chemscore.Internal.Correction>
   9.000000E+99

