#       Name:                CT1002167954
#       Creating user name   hitesit
#       Creation time:       Sun Apr 16 22:50:57 2023


#       File generated by GOLD software.
#

@<TRIPOS>MOLECULE
CT1002167954|ligand_prepared|mol2|1|dock2
    29    30     1
SMALL
NO_CHARGES


@<TRIPOS>ATOM
      1 C1         129.7170 143.3855 100.9904 C.3            1 RES1               0.0000
      2 C2         130.4230 142.5265 102.0592 C.ar           1 RES1               0.0000
      3 C3         130.8123 143.8944 100.0578 C.2            1 RES1               0.0000
      4 C4         128.6986 142.4738 100.3148 C.2            1 RES1               0.0000
      5 C5         128.9589 144.6032 101.5682 C.3            1 RES1               0.0000
      6 C6         131.4136 141.6183 101.6976 C.ar           1 RES1               0.0000
      7 C7         130.0970 142.6327 103.4087 C.ar           1 RES1               0.0000
      8 N8         130.9016 143.3286  98.8201 N.am           1 RES1               0.0000
      9 O9         131.6103 144.7513 100.4171 O.2            1 RES1               0.0000
     10 N10        128.8890 142.1669  98.9929 N.am           1 RES1               0.0000
     11 O11        127.7422 142.0052 100.9196 O.2            1 RES1               0.0000
     12 C12        128.4820 145.5866 100.5110 C.3            1 RES1               0.0000
     13 C13        132.0570 140.8465 102.6508 C.ar           1 RES1               0.0000
     14 C14        130.7416 141.8597 104.3602 C.ar           1 RES1               0.0000
     15 C15        129.9610 142.5281  98.2232 C.2            1 RES1               0.0000
     16 C16        131.7219 140.9669 103.9826 C.ar           1 RES1               0.0000
     17 O17        130.0885 142.1676  97.0566 O.2            1 RES1               0.0000
     18 H18        128.0901 144.2429 102.1327 H              1 RES1               0.0000
     19 H19        129.6187 145.1302 102.2685 H              1 RES1               0.0000
     20 H20        131.6890 141.5080 100.6541 H              1 RES1               0.0000
     21 H21        129.3281 143.3277 103.7288 H              1 RES1               0.0000
     22 H22        131.7458 143.5180  98.2894 H              1 RES1               0.0000
     23 H23        128.1643 141.6184  98.5409 H              1 RES1               0.0000
     24 H24        127.9567 146.4216 100.9699 H              1 RES1               0.0000
     25 H25        129.3230 145.9843  99.9468 H              1 RES1               0.0000
     26 H26        127.8035 145.1023  99.8118 H              1 RES1               0.0000
     27 H27        132.8269 140.1443 102.3482 H              1 RES1               0.0000
     28 H28        130.4741 141.9574 105.4072 H              1 RES1               0.0000
     29 H29        132.2264 140.3624 104.7291 H              1 RES1               0.0000
@<TRIPOS>BOND
    1    1    2 1     
    2    1    3 1     
    3    1    4 1     
    4    1    5 1     
    5    2    6 ar    
    6    2    7 ar    
    7    3    8 1     
    8    3    9 2     
    9    4   10 1     
   10    4   11 2     
   11    5   12 1     
   12    5   18 1     
   13    5   19 1     
   14    6   13 ar    
   15    6   20 1     
   16    7   14 ar    
   17    7   21 1     
   18    8   15 1     
   19    8   22 1     
   20   10   15 1     
   21   10   23 1     
   22   12   24 1     
   23   12   25 1     
   24   12   26 1     
   25   13   16 ar    
   26   13   27 1     
   27   14   16 ar    
   28   14   28 1     
   29   15   17 2     
   30   16   29 1     
@<TRIPOS>SUBSTRUCTURE
      1 RES1           1
@<TRIPOS>SET
DONOR_HYDROGENS      STATIC     ATOMS    <user>   **** ""
2 22 23
ATOM$RED        STATIC     ATOMS    COLORGROUP SYSTEM
2 22 23
@<TRIPOS>COMMENT
> <Gold.Version>
2022.3.0

> <Gold.Id.Protein>
unknown|7rmi_clean|pdb

> <Gold.Protein.RotatedTorsions>
[ 4419 4410 4409 4407 ] final   38.41 input   60.00 | X-H torsion
[ 7286 7277 7276 7274 ] final  117.50 input   59.98 | X-H torsion
[ 7448 7439 7438 7436 ] final   74.22 input   59.99 | X-H torsion
[ 5718 5713 5712 5709 ] final  105.11 input   60.00 | X-H torsion
[ 4298 4286 4285 4282 ] final  -75.56 input   60.01 | X-H torsion
[ 6139 6130 6129 6127 ] final  -40.69 input   59.98 | X-H torsion
[ 6229 6224 6223 6220 ] final  -58.84 input   60.02 | X-H torsion
[ 7183 7174 7173 7171 ] final  110.57 input   60.02 | X-H torsion

> <Gold.Protein.ActiveResidues>
 GLN24   PHE25   GLN27   MET81   PHE84   ASN85   THR86   VAL88   ASN89   PHE90  
 TYR92   ALA93   VAL94   HIS95   ASN96   GLU97   TRP98   TYR100  TYR104  CYS105 
 HIS108  ASN109  PRO112  ILE113  ALA114  ALA115  VAL116  PHE117  LEU161  ALA162 
 GLN165  SER169  THR170  GLU172  MET174  PRO175  ARG177  VAL178  VAL179  CYS180 
 MET181  ILE182  GLU183  TRP184  TYR196  HIS197  VAL200  THR201  ILE204  TRP261 
 PHE264  HIS265  PHE267  PHE268  LEU269  PRO271  TYR272  PRO275  LEU277  TYR278 
 LEU279  LYS280  LYS281  PHE282  ILE283  GLN284  GLN285  VAL286  TYR287  LEU288 
 ILE290  MET291  ALA294  MET295 

> <Gold.Protein.RotatedAtoms>
  123.4908  137.7631  110.0058 H   0  0  0  0  0  0  0  0  0  0  0  0  # atno 4298 bound_to 4286
  126.0095  146.6389   96.0775 H   0  0  0  0  0  0  0  0  0  0  0  0  # atno 4419 bound_to 4410
  132.3297  149.4070  100.6661 H   0  0  0  0  0  0  0  0  0  0  0  0  # atno 5718 bound_to 5713
  139.6135  141.3888  105.8479 H   0  0  0  0  0  0  0  0  0  0  0  0  # atno 6139 bound_to 6130
  138.4931  131.7483  103.7303 H   0  0  0  0  0  0  0  0  0  0  0  0  # atno 6229 bound_to 6224
  137.5419  137.9291   96.5580 H   0  0  0  0  0  0  0  0  0  0  0  0  # atno 7183 bound_to 7174
  132.1998  135.5212   94.0914 H   0  0  0  0  0  0  0  0  0  0  0  0  # atno 7286 bound_to 7277
  126.8277  139.9820  101.4244 H   0  0  0  0  0  0  0  0  0  0  0  0  # atno 7448 bound_to 7439
  125.6844  145.1435   95.5242 LP  0  0  0  0  0  0  0  0  0  0  0  0  # atno 14307 bound_to 4410
  126.9550  145.3904   96.5198 LP  0  0  0  0  0  0  0  0  0  0  0  0  # atno 14308 bound_to 4410
  132.5027  134.0162   93.5524 LP  0  0  0  0  0  0  0  0  0  0  0  0  # atno 14309 bound_to 7277
  131.1786  134.3100   94.4619 LP  0  0  0  0  0  0  0  0  0  0  0  0  # atno 14310 bound_to 7277
  126.8167  138.9306  102.6665 LP  0  0  0  0  0  0  0  0  0  0  0  0  # atno 14329 bound_to 7439
  125.4502  139.7225  102.2513 LP  0  0  0  0  0  0  0  0  0  0  0  0  # atno 14330 bound_to 7439
  132.6575  150.5464   99.5513 LP  0  0  0  0  0  0  0  0  0  0  0  0  # atno 14371 bound_to 5713
  132.2528  150.9809  101.0725 LP  0  0  0  0  0  0  0  0  0  0  0  0  # atno 14372 bound_to 5713
  122.9340  138.0226  111.5127 LP  0  0  0  0  0  0  0  0  0  0  0  0  # atno 14387 bound_to 4286
  124.0483  139.0264  110.8667 LP  0  0  0  0  0  0  0  0  0  0  0  0  # atno 14388 bound_to 4286
  138.3951  141.3679  104.7689 LP  0  0  0  0  0  0  0  0  0  0  0  0  # atno 14389 bound_to 6130
  139.2291  142.7462  105.0362 LP  0  0  0  0  0  0  0  0  0  0  0  0  # atno 14390 bound_to 6130
  139.3065  131.4501  102.3524 LP  0  0  0  0  0  0  0  0  0  0  0  0  # atno 14404 bound_to 6224
  139.4247  132.9103  103.0739 LP  0  0  0  0  0  0  0  0  0  0  0  0  # atno 14405 bound_to 6224
  138.6713  138.8025   95.7768 LP  0  0  0  0  0  0  0  0  0  0  0  0  # atno 14408 bound_to 7174
  139.0259  138.0947   97.2051 LP  0  0  0  0  0  0  0  0  0  0  0  0  # atno 14409 bound_to 7174

> <Gold.Score>
     Fitness  S(hb_ext) S(vdw_ext)  S(hb_int)    S(int)      intcor
     29.62       3.12      19.37       0.00      -0.14      -0.78

> <Gold.Goldscore.Fitness>
29.6213

> <Gold.Goldscore.Internal.Vdw>
-0.3737

> <Gold.Goldscore.Internal.Torsion>
-0.5492

> <Gold.Goldscore.External.Vdw>
19.3718

> <Gold.Goldscore.Internal.HBond>
0.0000

> <Gold.Goldscore.External.HBond>
3.1242

> <Gold.Goldscore.Internal.Correction>
-0.7838

> <Gold.Goldscore.Hbonds>
donor molecule, donor type, donor heavy atom, donor atom, acceptor molecule, acceptor atom, score
      P1  H  7439  7448       L1    11  0.56
      P1  H  4721  4726       L1     9  1.00

> <Gold.Goldscore.Internal.Vdw.Weighted>
-0.3737

> <Gold.Goldscore.Internal.Torsion.Weighted>
-0.5492

> <Gold.Goldscore.External.Vdw.Weighted>
26.6362

> <Gold.Goldscore.Internal.HBond.Weighted>
0.0000

> <Gold.Goldscore.External.HBond.Weighted>
3.1242

> <Gold.Goldscore.Internal.Correction.Weighted>
-0.7838

> <Gold.Rescore>
     Score     S(PLP)   S(hbond)     S(cho)   S(metal)  DE(clash)   DE(tors)     intcor
     33.91     -28.14       2.00       0.00       0.00       0.00       0.11       ----

> <Gold.PLP.Fitness>
33.9096

> <Gold.PLP.PLP>
-28.1386

> <Gold.PLP.part.hbond>
-2.0000

> <Gold.PLP.part.metal>
0.0000

> <Gold.PLP.part.buried>
-6.0768

> <Gold.PLP.part.nonpolar>
-21.1349

> <Gold.PLP.part.repulsive>
0.3326

> <Gold.PLP.ligand.clash>
0.0000

> <Gold.PLP.ligand.torsion>
0.1145

> <Gold.PLP.Chemscore.Hbond>
2.0000

> <Gold.PLP.Chemscore.CHOScore>
0.0000

> <Gold.PLP.Chemscore.Metal>
0.0000

> <Gold.Chemscore.Hbonds>
donor molecule, donor type, donor heavy atom, donor atom, acceptor molecule, acceptor atom, score
      P1  H  7439  7448       L1    11  0.55
      P1  H  4721  4726       L1     9  0.71

> <Gold.PLP.Chemscore.Internal.Correction>
   9.000000E+99

