#       Name:                CT1002167954
#       Creating user name   hitesit
#       Creation time:       Sun Apr 16 22:50:59 2023


#       File generated by GOLD software.
#

@<TRIPOS>MOLECULE
CT1002167954|ligand_prepared|mol2|1|dock3
    29    30     1
SMALL
NO_CHARGES


@<TRIPOS>ATOM
      1 C1         131.1029 140.6508 103.7180 C.3            1 RES1               0.0000
      2 C2         132.2745 139.6807 103.4632 C.ar           1 RES1               0.0000
      3 C3         131.3724 141.8830 102.8594 C.2            1 RES1               0.0000
      4 C4         129.8335 139.8952 103.3407 C.2            1 RES1               0.0000
      5 C5         130.9719 141.0986 105.1925 C.3            1 RES1               0.0000
      6 C6         132.9690 139.7097 102.2576 C.ar           1 RES1               0.0000
      7 C7         132.6733 138.7546 104.4233 C.ar           1 RES1               0.0000
      8 N8         130.6099 142.0534 101.7417 N.am           1 RES1               0.0000
      9 O9         132.2669 142.6723 103.1374 O.2            1 RES1               0.0000
     10 N10        129.1104 140.3495 102.2691 N.am           1 RES1               0.0000
     11 O11        129.4619 138.9006 103.9515 O.2            1 RES1               0.0000
     12 C12        130.0402 142.2834 105.3930 C.3            1 RES1               0.0000
     13 C13        134.0259 138.8463 102.0214 C.ar           1 RES1               0.0000
     14 C14        133.7304 137.8918 104.1851 C.ar           1 RES1               0.0000
     15 C15        129.4575 141.3760 101.4336 C.2            1 RES1               0.0000
     16 C16        134.4076 137.9372 102.9850 C.ar           1 RES1               0.0000
     17 O17        128.7827 141.6909 100.4576 O.2            1 RES1               0.0000
     18 H18        130.6018 140.2539 105.7865 H              1 RES1               0.0000
     19 H19        131.9669 141.3640 105.5706 H              1 RES1               0.0000
     20 H20        132.6815 140.4166 101.4865 H              1 RES1               0.0000
     21 H21        132.1543 138.7003 105.3743 H              1 RES1               0.0000
     22 H22        130.9257 142.7486 101.0730 H              1 RES1               0.0000
     23 H23        128.2318 139.8790 102.0764 H              1 RES1               0.0000
     24 H24        129.9844 142.5566 106.4446 H              1 RES1               0.0000
     25 H25        130.3921 143.1494 104.8361 H              1 RES1               0.0000
     26 H26        129.0351 142.0459 105.0507 H              1 RES1               0.0000
     27 H27        134.5548 138.8850 101.0748 H              1 RES1               0.0000
     28 H28        134.0269 137.1776 104.9460 H              1 RES1               0.0000
     29 H29        135.2358 137.2611 102.8000 H              1 RES1               0.0000
@<TRIPOS>BOND
    1    1    2 1     
    2    1    3 1     
    3    1    4 1     
    4    1    5 1     
    5    2    6 ar    
    6    2    7 ar    
    7    3    8 1     
    8    3    9 2     
    9    4   10 1     
   10    4   11 2     
   11    5   12 1     
   12    5   18 1     
   13    5   19 1     
   14    6   13 ar    
   15    6   20 1     
   16    7   14 ar    
   17    7   21 1     
   18    8   15 1     
   19    8   22 1     
   20   10   15 1     
   21   10   23 1     
   22   12   24 1     
   23   12   25 1     
   24   12   26 1     
   25   13   16 ar    
   26   13   27 1     
   27   14   16 ar    
   28   14   28 1     
   29   15   17 2     
   30   16   29 1     
@<TRIPOS>SUBSTRUCTURE
      1 RES1           1
@<TRIPOS>SET
DONOR_HYDROGENS      STATIC     ATOMS    <user>   **** ""
2 22 23
ATOM$RED        STATIC     ATOMS    COLORGROUP SYSTEM
2 22 23
@<TRIPOS>COMMENT
> <Gold.Version>
2022.3.0

> <Gold.Id.Protein>
unknown|7rmi_clean|pdb

> <Gold.Protein.RotatedTorsions>
[ 4419 4410 4409 4407 ] final  174.44 input   60.00 | X-H torsion
[ 7286 7277 7276 7274 ] final   47.47 input   59.98 | X-H torsion
[ 7448 7439 7438 7436 ] final  -78.91 input   59.99 | X-H torsion
[ 5718 5713 5712 5709 ] final  129.41 input   60.00 | X-H torsion
[ 4298 4286 4285 4282 ] final  -58.24 input   60.01 | X-H torsion
[ 6139 6130 6129 6127 ] final  -53.92 input   59.98 | X-H torsion
[ 6229 6224 6223 6220 ] final  140.08 input   60.02 | X-H torsion
[ 7183 7174 7173 7171 ] final -176.53 input   60.02 | X-H torsion

> <Gold.Protein.ActiveResidues>
 GLN24   PHE25   GLN27   MET81   PHE84   ASN85   THR86   VAL88   ASN89   PHE90  
 TYR92   ALA93   VAL94   HIS95   ASN96   GLU97   TRP98   TYR100  TYR104  CYS105 
 HIS108  ASN109  PRO112  ILE113  ALA114  ALA115  VAL116  PHE117  LEU161  ALA162 
 GLN165  SER169  THR170  GLU172  MET174  PRO175  ARG177  VAL178  VAL179  CYS180 
 MET181  ILE182  GLU183  TRP184  TYR196  HIS197  VAL200  THR201  ILE204  TRP261 
 PHE264  HIS265  PHE267  PHE268  LEU269  PRO271  TYR272  PRO275  LEU277  TYR278 
 LEU279  LYS280  LYS281  PHE282  ILE283  GLN284  GLN285  VAL286  TYR287  LEU288 
 ILE290  MET291  ALA294  MET295 

> <Gold.Protein.RotatedAtoms>
  123.6808  137.9574  109.9313 H   0  0  0  0  0  0  0  0  0  0  0  0  # atno 4298 bound_to 4286
  126.8689  145.1678   96.4118 H   0  0  0  0  0  0  0  0  0  0  0  0  # atno 4419 bound_to 4410
  132.2417  149.5894  101.0041 H   0  0  0  0  0  0  0  0  0  0  0  0  # atno 5718 bound_to 5713
  139.4899  141.2196  105.7961 H   0  0  0  0  0  0  0  0  0  0  0  0  # atno 6139 bound_to 6130
  139.6033  132.0348  102.2812 H   0  0  0  0  0  0  0  0  0  0  0  0  # atno 6229 bound_to 6224
  138.3501  137.7841   97.3087 H   0  0  0  0  0  0  0  0  0  0  0  0  # atno 7183 bound_to 7174
  132.7552  134.7684   93.5636 H   0  0  0  0  0  0  0  0  0  0  0  0  # atno 7286 bound_to 7277
  126.3076  138.9502  102.8323 H   0  0  0  0  0  0  0  0  0  0  0  0  # atno 7448 bound_to 7439
  126.2196  146.6494   96.2338 LP  0  0  0  0  0  0  0  0  0  0  0  0  # atno 14307 bound_to 4410
  125.5541  145.3665   95.4736 LP  0  0  0  0  0  0  0  0  0  0  0  0  # atno 14308 bound_to 4410
  131.5904  133.7518   94.0704 LP  0  0  0  0  0  0  0  0  0  0  0  0  # atno 14309 bound_to 7277
  131.5315  135.3326   94.4755 LP  0  0  0  0  0  0  0  0  0  0  0  0  # atno 14310 bound_to 7277
  125.6038  140.0271  101.8357 LP  0  0  0  0  0  0  0  0  0  0  0  0  # atno 14329 bound_to 7439
  127.1868  139.6651  101.6643 LP  0  0  0  0  0  0  0  0  0  0  0  0  # atno 14330 bound_to 7439
  132.6535  150.1500   99.5329 LP  0  0  0  0  0  0  0  0  0  0  0  0  # atno 14371 bound_to 5713
  132.3454  151.1936  100.7505 LP  0  0  0  0  0  0  0  0  0  0  0  0  # atno 14372 bound_to 5713
  122.8638  137.8158  111.3314 LP  0  0  0  0  0  0  0  0  0  0  0  0  # atno 14387 bound_to 4286
  123.9271  139.0376  111.1230 LP  0  0  0  0  0  0  0  0  0  0  0  0  # atno 14388 bound_to 4286
  138.3622  141.5600  104.6729 LP  0  0  0  0  0  0  0  0  0  0  0  0  # atno 14389 bound_to 6130
  139.3864  142.7244  105.1844 LP  0  0  0  0  0  0  0  0  0  0  0  0  # atno 14390 bound_to 6130
  139.0272  132.8077  103.5927 LP  0  0  0  0  0  0  0  0  0  0  0  0  # atno 14404 bound_to 6224
  138.5866  131.2643  103.2921 LP  0  0  0  0  0  0  0  0  0  0  0  0  # atno 14405 bound_to 6224
  137.6649  138.3388   95.9408 LP  0  0  0  0  0  0  0  0  0  0  0  0  # atno 14408 bound_to 7174
  139.2187  138.7043   96.2853 LP  0  0  0  0  0  0  0  0  0  0  0  0  # atno 14409 bound_to 7174

> <Gold.Score>
     Fitness  S(hb_ext) S(vdw_ext)  S(hb_int)    S(int)      intcor
     35.60       1.70      25.24       0.00      -0.81      -0.78

> <Gold.Goldscore.Fitness>
35.6050

> <Gold.Goldscore.Internal.Vdw>
-0.9454

> <Gold.Goldscore.Internal.Torsion>
-0.6478

> <Gold.Goldscore.External.Vdw>
25.2438

> <Gold.Goldscore.Internal.HBond>
0.0000

> <Gold.Goldscore.External.HBond>
1.7042

> <Gold.Goldscore.Internal.Correction>
-0.7838

> <Gold.Goldscore.Hbonds>
donor molecule, donor type, donor heavy atom, donor atom, acceptor molecule, acceptor atom, score
      L1  H    10    23       P1  7439  0.85

> <Gold.Goldscore.Internal.Vdw.Weighted>
-0.9454

> <Gold.Goldscore.Internal.Torsion.Weighted>
-0.6478

> <Gold.Goldscore.External.Vdw.Weighted>
34.7102

> <Gold.Goldscore.Internal.HBond.Weighted>
0.0000

> <Gold.Goldscore.External.HBond.Weighted>
1.7042

> <Gold.Goldscore.Internal.Correction.Weighted>
-0.7838

> <Gold.Rescore>
     Score     S(PLP)   S(hbond)     S(cho)   S(metal)  DE(clash)   DE(tors)     intcor
     38.42     -37.34       1.22       0.00       0.00       0.35       1.12       ----

> <Gold.PLP.Fitness>
38.4225

> <Gold.PLP.PLP>
-37.3358

> <Gold.PLP.part.hbond>
-2.2557

> <Gold.PLP.part.metal>
0.0000

> <Gold.PLP.part.buried>
-6.1422

> <Gold.PLP.part.nonpolar>
-30.0524

> <Gold.PLP.part.repulsive>
0.2370

> <Gold.PLP.ligand.clash>
0.3467

> <Gold.PLP.ligand.torsion>
1.1163

> <Gold.PLP.Chemscore.Hbond>
1.2220

> <Gold.PLP.Chemscore.CHOScore>
0.0000

> <Gold.PLP.Chemscore.Metal>
0.0000

> <Gold.Chemscore.Hbonds>
donor molecule, donor type, donor heavy atom, donor atom, acceptor molecule, acceptor atom, score
      L1  H    10    23       P1  7439  0.50
      P1  H  5650  5655       L1     9  0.25

> <Gold.PLP.Chemscore.Internal.Correction>
   9.000000E+99

