#       Name:                CT1002167954
#       Creating user name   hitesit
#       Creation time:       Sun Apr 16 22:51:01 2023


#       File generated by GOLD software.
#

@<TRIPOS>MOLECULE
CT1002167954|ligand_prepared|mol2|1|dock5
    29    30     1
SMALL
NO_CHARGES


@<TRIPOS>ATOM
      1 C1         128.8550 144.0850 101.1836 C.3            1 RES1               0.0000
      2 C2         128.6513 143.1304  99.9894 C.ar           1 RES1               0.0000
      3 C3         127.9475 143.5752 102.2993 C.2            1 RES1               0.0000
      4 C4         130.3414 144.0365 101.5197 C.2            1 RES1               0.0000
      5 C5         128.4817 145.5546 100.8795 C.3            1 RES1               0.0000
      6 C6         128.1271 141.8558 100.1825 C.ar           1 RES1               0.0000
      7 C7         128.9798 143.5105  98.6909 C.ar           1 RES1               0.0000
      8 N8         128.5368 142.9414 103.3532 N.am           1 RES1               0.0000
      9 O9         126.7299 143.6925 102.2363 O.2            1 RES1               0.0000
     10 N10        130.7093 143.5079 102.7293 N.am           1 RES1               0.0000
     11 O11        131.1984 144.4360 100.7411 O.2            1 RES1               0.0000
     12 C12        128.4445 146.4452 102.1114 C.3            1 RES1               0.0000
     13 C13        127.9353 140.9935  99.1158 C.ar           1 RES1               0.0000
     14 C14        128.7875 142.6465  97.6255 C.ar           1 RES1               0.0000
     15 C15        129.8764 142.9301 103.6483 C.2            1 RES1               0.0000
     16 C16        128.2649 141.3883  97.8367 C.ar           1 RES1               0.0000
     17 O17        130.2886 142.4270 104.6896 O.2            1 RES1               0.0000
     18 H18        129.2104 145.9644 100.1694 H              1 RES1               0.0000
     19 H19        127.4960 145.5762 100.3985 H              1 RES1               0.0000
     20 H20        127.8641 141.5267 101.1823 H              1 RES1               0.0000
     21 H21        129.3933 144.4952  98.5012 H              1 RES1               0.0000
     22 H22        127.9250 142.4284 103.9799 H              1 RES1               0.0000
     23 H23        131.6954 143.5492 102.9666 H              1 RES1               0.0000
     24 H24        128.1776 147.4650 101.8422 H              1 RES1               0.0000
     25 H25        127.7117 146.0812 102.8286 H              1 RES1               0.0000
     26 H26        129.4160 146.4671 102.6009 H              1 RES1               0.0000
     27 H27        127.5251 140.0038  99.2874 H              1 RES1               0.0000
     28 H28        129.0489 142.9612  96.6206 H              1 RES1               0.0000
     29 H29        128.1143 140.7127  97.0012 H              1 RES1               0.0000
@<TRIPOS>BOND
    1    1    2 1     
    2    1    3 1     
    3    1    4 1     
    4    1    5 1     
    5    2    6 ar    
    6    2    7 ar    
    7    3    8 1     
    8    3    9 2     
    9    4   10 1     
   10    4   11 2     
   11    5   12 1     
   12    5   18 1     
   13    5   19 1     
   14    6   13 ar    
   15    6   20 1     
   16    7   14 ar    
   17    7   21 1     
   18    8   15 1     
   19    8   22 1     
   20   10   15 1     
   21   10   23 1     
   22   12   24 1     
   23   12   25 1     
   24   12   26 1     
   25   13   16 ar    
   26   13   27 1     
   27   14   16 ar    
   28   14   28 1     
   29   15   17 2     
   30   16   29 1     
@<TRIPOS>SUBSTRUCTURE
      1 RES1           1
@<TRIPOS>SET
DONOR_HYDROGENS      STATIC     ATOMS    <user>   **** ""
2 22 23
ATOM$RED        STATIC     ATOMS    COLORGROUP SYSTEM
2 22 23
@<TRIPOS>COMMENT
> <Gold.Version>
2022.3.0

> <Gold.Id.Protein>
unknown|7rmi_clean|pdb

> <Gold.Protein.RotatedTorsions>
[ 4419 4410 4409 4407 ] final  120.44 input   60.00 | X-H torsion
[ 7286 7277 7276 7274 ] final   48.72 input   59.98 | X-H torsion
[ 7448 7439 7438 7436 ] final   -5.00 input   59.99 | X-H torsion
[ 5718 5713 5712 5709 ] final   69.53 input   60.00 | X-H torsion
[ 4298 4286 4285 4282 ] final   54.78 input   60.01 | X-H torsion
[ 6139 6130 6129 6127 ] final -121.47 input   59.98 | X-H torsion
[ 6229 6224 6223 6220 ] final -105.77 input   60.02 | X-H torsion
[ 7183 7174 7173 7171 ] final  -14.93 input   60.02 | X-H torsion

> <Gold.Protein.ActiveResidues>
 GLN24   PHE25   GLN27   MET81   PHE84   ASN85   THR86   VAL88   ASN89   PHE90  
 TYR92   ALA93   VAL94   HIS95   ASN96   GLU97   TRP98   TYR100  TYR104  CYS105 
 HIS108  ASN109  PRO112  ILE113  ALA114  ALA115  VAL116  PHE117  LEU161  ALA162 
 GLN165  SER169  THR170  GLU172  MET174  PRO175  ARG177  VAL178  VAL179  CYS180 
 MET181  ILE182  GLU183  TRP184  TYR196  HIS197  VAL200  THR201  ILE204  TRP261 
 PHE264  HIS265  PHE267  PHE268  LEU269  PRO271  TYR272  PRO275  LEU277  TYR278 
 LEU279  LYS280  LYS281  PHE282  ILE283  GLN284  GLN285  VAL286  TYR287  LEU288 
 ILE290  MET291  ALA294  MET295 

> <Gold.Protein.RotatedAtoms>
  123.9758  139.0379  111.0194 H   0  0  0  0  0  0  0  0  0  0  0  0  # atno 4298 bound_to 4286
  126.9080  145.9931   96.6117 H   0  0  0  0  0  0  0  0  0  0  0  0  # atno 4419 bound_to 4410
  132.4805  149.4305  100.1147 H   0  0  0  0  0  0  0  0  0  0  0  0  # atno 5718 bound_to 5713
  138.6944  140.9815  105.1676 H   0  0  0  0  0  0  0  0  0  0  0  0  # atno 6139 bound_to 6130
  138.6280  131.2274  103.2137 H   0  0  0  0  0  0  0  0  0  0  0  0  # atno 6229 bound_to 6224
  138.7512  138.8035   95.8196 H   0  0  0  0  0  0  0  0  0  0  0  0  # atno 7183 bound_to 7174
  132.7542  134.7880   93.5687 H   0  0  0  0  0  0  0  0  0  0  0  0  # atno 7286 bound_to 7277
  127.2217  139.1808  102.2170 H   0  0  0  0  0  0  0  0  0  0  0  0  # atno 7448 bound_to 7439
  125.6014  146.3633   95.7151 LP  0  0  0  0  0  0  0  0  0  0  0  0  # atno 14307 bound_to 4410
  126.1329  144.8211   95.7909 LP  0  0  0  0  0  0  0  0  0  0  0  0  # atno 14308 bound_to 4410
  131.6058  133.7449   94.0590 LP  0  0  0  0  0  0  0  0  0  0  0  0  # atno 14309 bound_to 7277
  131.5170  135.3197   94.4818 LP  0  0  0  0  0  0  0  0  0  0  0  0  # atno 14310 bound_to 7277
  125.6670  139.2817  102.6874 LP  0  0  0  0  0  0  0  0  0  0  0  0  # atno 14329 bound_to 7439
  126.2030  140.1783  101.4323 LP  0  0  0  0  0  0  0  0  0  0  0  0  # atno 14330 bound_to 7439
  132.5867  151.0329   99.8516 LP  0  0  0  0  0  0  0  0  0  0  0  0  # atno 14371 bound_to 5713
  132.1717  150.4707  101.3276 LP  0  0  0  0  0  0  0  0  0  0  0  0  # atno 14372 bound_to 5713
  123.6084  137.8701  109.9474 LP  0  0  0  0  0  0  0  0  0  0  0  0  # atno 14387 bound_to 4286
  122.8856  137.8953  111.4115 LP  0  0  0  0  0  0  0  0  0  0  0  0  # atno 14388 bound_to 4286
  138.7499  142.5338  104.6815 LP  0  0  0  0  0  0  0  0  0  0  0  0  # atno 14389 bound_to 6130
  139.7994  141.9903  105.8084 LP  0  0  0  0  0  0  0  0  0  0  0  0  # atno 14390 bound_to 6130
  139.6278  132.1264  102.2965 LP  0  0  0  0  0  0  0  0  0  0  0  0  # atno 14404 bound_to 6224
  138.9675  132.7583  103.6498 LP  0  0  0  0  0  0  0  0  0  0  0  0  # atno 14405 bound_to 6224
  138.9601  138.0471   97.2453 LP  0  0  0  0  0  0  0  0  0  0  0  0  # atno 14408 bound_to 7174
  137.5196  137.9696   96.4801 LP  0  0  0  0  0  0  0  0  0  0  0  0  # atno 14409 bound_to 7174

> <Gold.Score>
     Fitness  S(hb_ext) S(vdw_ext)  S(hb_int)    S(int)      intcor
     30.58       1.09      22.29       0.00      -1.16      -0.78

> <Gold.Goldscore.Fitness>
30.5779

> <Gold.Goldscore.Internal.Vdw>
-1.4068

> <Gold.Goldscore.Internal.Torsion>
-0.5372

> <Gold.Goldscore.External.Vdw>
22.2919

> <Gold.Goldscore.Internal.HBond>
0.0000

> <Gold.Goldscore.External.HBond>
1.0867

> <Gold.Goldscore.Internal.Correction>
-0.7838

> <Gold.Goldscore.Hbonds>
donor molecule, donor type, donor heavy atom, donor atom, acceptor molecule, acceptor atom, score
      P1  H  4721  4726       L1    11  0.31
      L1  H     8    22       P1  4347  0.23

> <Gold.Goldscore.Internal.Vdw.Weighted>
-1.4068

> <Gold.Goldscore.Internal.Torsion.Weighted>
-0.5372

> <Gold.Goldscore.External.Vdw.Weighted>
30.6513

> <Gold.Goldscore.Internal.HBond.Weighted>
0.0000

> <Gold.Goldscore.External.HBond.Weighted>
1.0867

> <Gold.Goldscore.Internal.Correction.Weighted>
-0.7838

> <Gold.Rescore>
     Score     S(PLP)   S(hbond)     S(cho)   S(metal)  DE(clash)   DE(tors)     intcor
     27.49     -23.86       1.93       0.00       0.00       0.01       1.07       ----

> <Gold.PLP.Fitness>
27.4875

> <Gold.PLP.PLP>
-23.8583

> <Gold.PLP.part.hbond>
-2.7442

> <Gold.PLP.part.metal>
0.0000

> <Gold.PLP.part.buried>
-1.3906

> <Gold.PLP.part.nonpolar>
-24.2494

> <Gold.PLP.part.repulsive>
3.3748

> <Gold.PLP.ligand.clash>
0.0068

> <Gold.PLP.ligand.torsion>
1.0710

> <Gold.PLP.Chemscore.Hbond>
1.9260

> <Gold.PLP.Chemscore.CHOScore>
0.0000

> <Gold.PLP.Chemscore.Metal>
0.0000

> <Gold.Chemscore.Hbonds>
donor molecule, donor type, donor heavy atom, donor atom, acceptor molecule, acceptor atom, score
      L1  H     8    22       P1  4347  0.68
      P1  H  4721  4726       L1    11  1.00

> <Gold.PLP.Chemscore.Internal.Correction>
   9.000000E+99

