#       Name:                CT1002167954
#       Creating user name   hitesit
#       Creation time:       Sun Apr 16 22:51:00 2023


#       File generated by GOLD software.
#

@<TRIPOS>MOLECULE
CT1002167954|ligand_prepared|mol2|1|dock4
    29    30     1
SMALL
NO_CHARGES


@<TRIPOS>ATOM
      1 C1         126.1089 139.2487  95.5869 C.3            1 RES1               0.0000
      2 C2         127.4474 138.8608  96.2478 C.ar           1 RES1               0.0000
      3 C3         125.0584 139.2117  96.6930 C.2            1 RES1               0.0000
      4 C4         126.3196 140.6292  94.9749 C.2            1 RES1               0.0000
      5 C5         125.6678 138.2880  94.4582 C.3            1 RES1               0.0000
      6 C6         127.7130 139.2100  97.5685 C.ar           1 RES1               0.0000
      7 C7         128.4233 138.1527  95.5516 C.ar           1 RES1               0.0000
      8 N8         124.5938 140.4045  97.1633 N.am           1 RES1               0.0000
      9 O9         124.6725 138.1527  97.1726 O.2            1 RES1               0.0000
     10 N10        125.6080 141.6779  95.4961 N.am           1 RES1               0.0000
     11 O11        127.1077 140.8211  94.0572 O.2            1 RES1               0.0000
     12 C12        124.2435 138.5186  93.9784 C.3            1 RES1               0.0000
     13 C13        128.9097 138.8614  98.1724 C.ar           1 RES1               0.0000
     14 C14        129.6196 137.8053  96.1574 C.ar           1 RES1               0.0000
     15 C15        124.7776 141.6337  96.5827 C.2            1 RES1               0.0000
     16 C16        129.8635 138.1586  97.4675 C.ar           1 RES1               0.0000
     17 O17        124.2149 142.6308  97.0256 O.2            1 RES1               0.0000
     18 H18        126.3504 138.4056  93.6075 H              1 RES1               0.0000
     19 H19        125.7561 137.2556  94.8186 H              1 RES1               0.0000
     20 H20        126.9754 139.7653  98.1382 H              1 RES1               0.0000
     21 H21        128.2536 137.8651  94.5196 H              1 RES1               0.0000
     22 H22        124.0604 140.3804  98.0265 H              1 RES1               0.0000
     23 H23        125.7064 142.5747  95.0308 H              1 RES1               0.0000
     24 H24        123.9850 137.8185  93.1868 H              1 RES1               0.0000
     25 H25        123.5354 138.3849  94.7936 H              1 RES1               0.0000
     26 H26        124.1261 139.5281  93.5897 H              1 RES1               0.0000
     27 H27        129.0974 139.1430  99.2032 H              1 RES1               0.0000
     28 H28        130.3676 137.2526  95.5986 H              1 RES1               0.0000
     29 H29        130.8008 137.8853  97.9409 H              1 RES1               0.0000
@<TRIPOS>BOND
    1    1    2 1     
    2    1    3 1     
    3    1    4 1     
    4    1    5 1     
    5    2    6 ar    
    6    2    7 ar    
    7    3    8 1     
    8    3    9 2     
    9    4   10 1     
   10    4   11 2     
   11    5   12 1     
   12    5   18 1     
   13    5   19 1     
   14    6   13 ar    
   15    6   20 1     
   16    7   14 ar    
   17    7   21 1     
   18    8   15 1     
   19    8   22 1     
   20   10   15 1     
   21   10   23 1     
   22   12   24 1     
   23   12   25 1     
   24   12   26 1     
   25   13   16 ar    
   26   13   27 1     
   27   14   16 ar    
   28   14   28 1     
   29   15   17 2     
   30   16   29 1     
@<TRIPOS>SUBSTRUCTURE
      1 RES1           1
@<TRIPOS>SET
DONOR_HYDROGENS      STATIC     ATOMS    <user>   **** ""
2 22 23
ATOM$RED        STATIC     ATOMS    COLORGROUP SYSTEM
2 22 23
@<TRIPOS>COMMENT
> <Gold.Version>
2022.3.0

> <Gold.Id.Protein>
unknown|7rmi_clean|pdb

> <Gold.Protein.RotatedTorsions>
[ 4419 4410 4409 4407 ] final  117.85 input   60.00 | X-H torsion
[ 7286 7277 7276 7274 ] final -107.16 input   59.98 | X-H torsion
[ 7448 7439 7438 7436 ] final   40.45 input   59.99 | X-H torsion
[ 5718 5713 5712 5709 ] final   54.00 input   60.00 | X-H torsion
[ 4298 4286 4285 4282 ] final   -9.30 input   60.01 | X-H torsion
[ 6139 6130 6129 6127 ] final  -80.02 input   59.98 | X-H torsion
[ 6229 6224 6223 6220 ] final   47.30 input   60.02 | X-H torsion
[ 7183 7174 7173 7171 ] final   62.77 input   60.02 | X-H torsion

> <Gold.Protein.ActiveResidues>
 GLN24   PHE25   GLN27   MET81   PHE84   ASN85   THR86   VAL88   ASN89   PHE90  
 TYR92   ALA93   VAL94   HIS95   ASN96   GLU97   TRP98   TYR100  TYR104  CYS105 
 HIS108  ASN109  PRO112  ILE113  ALA114  ALA115  VAL116  PHE117  LEU161  ALA162 
 GLN165  SER169  THR170  GLU172  MET174  PRO175  ARG177  VAL178  VAL179  CYS180 
 MET181  ILE182  GLU183  TRP184  TYR196  HIS197  VAL200  THR201  ILE204  TRP261 
 PHE264  HIS265  PHE267  PHE268  LEU269  PRO271  TYR272  PRO275  LEU277  TYR278 
 LEU279  LYS280  LYS281  PHE282  ILE283  GLN284  GLN285  VAL286  TYR287  LEU288 
 ILE290  MET291  ALA294  MET295 

> <Gold.Protein.RotatedAtoms>
  124.0748  138.5930  110.1367 H   0  0  0  0  0  0  0  0  0  0  0  0  # atno 4298 bound_to 4286
  126.8935  146.0328   96.6092 H   0  0  0  0  0  0  0  0  0  0  0  0  # atno 4419 bound_to 4410
  132.5418  149.5489   99.8997 H   0  0  0  0  0  0  0  0  0  0  0  0  # atno 5718 bound_to 5713
  139.1897  140.9883  105.6080 H   0  0  0  0  0  0  0  0  0  0  0  0  # atno 6139 bound_to 6130
  139.3017  132.9193  103.2643 H   0  0  0  0  0  0  0  0  0  0  0  0  # atno 6229 bound_to 6224
  137.6768  138.3428   95.9363 H   0  0  0  0  0  0  0  0  0  0  0  0  # atno 7183 bound_to 7174
  131.2558  134.0946   94.3593 H   0  0  0  0  0  0  0  0  0  0  0  0  # atno 7286 bound_to 7277
  127.1852  139.6559  101.6727 H   0  0  0  0  0  0  0  0  0  0  0  0  # atno 7448 bound_to 7439
  125.5817  146.3321   95.6940 LP  0  0  0  0  0  0  0  0  0  0  0  0  # atno 14307 bound_to 4410
  126.1671  144.8124   95.8146 LP  0  0  0  0  0  0  0  0  0  0  0  0  # atno 14308 bound_to 4410
  131.9923  135.5397   94.2310 LP  0  0  0  0  0  0  0  0  0  0  0  0  # atno 14309 bound_to 7277
  132.6398  134.2234   93.5135 LP  0  0  0  0  0  0  0  0  0  0  0  0  # atno 14310 bound_to 7277
  126.2974  138.9498  102.8396 LP  0  0  0  0  0  0  0  0  0  0  0  0  # atno 14329 bound_to 7439
  125.6094  140.0316  101.8282 LP  0  0  0  0  0  0  0  0  0  0  0  0  # atno 14330 bound_to 7439
  132.5328  151.1683  100.0607 LP  0  0  0  0  0  0  0  0  0  0  0  0  # atno 14371 bound_to 5713
  132.1639  150.2161  101.3351 LP  0  0  0  0  0  0  0  0  0  0  0  0  # atno 14372 bound_to 5713
  122.9737  137.4994  110.6259 LP  0  0  0  0  0  0  0  0  0  0  0  0  # atno 14387 bound_to 4286
  123.4205  138.7140  111.6217 LP  0  0  0  0  0  0  0  0  0  0  0  0  # atno 14388 bound_to 4286
  138.4088  141.9710  104.5718 LP  0  0  0  0  0  0  0  0  0  0  0  0  # atno 14389 bound_to 6130
  139.6420  142.5462  105.4747 LP  0  0  0  0  0  0  0  0  0  0  0  0  # atno 14390 bound_to 6130
  138.4879  131.5538  103.6138 LP  0  0  0  0  0  0  0  0  0  0  0  0  # atno 14404 bound_to 6224
  139.4294  131.6281  102.2816 LP  0  0  0  0  0  0  0  0  0  0  0  0  # atno 14405 bound_to 6224
  139.2234  138.7003   96.2950 LP  0  0  0  0  0  0  0  0  0  0  0  0  # atno 14408 bound_to 7174
  138.3380  137.7803   97.3129 LP  0  0  0  0  0  0  0  0  0  0  0  0  # atno 14409 bound_to 7174

> <Gold.Score>
     Fitness  S(hb_ext) S(vdw_ext)  S(hb_int)    S(int)      intcor
     34.00       0.33      24.81       0.00      -0.45      -0.78

> <Gold.Goldscore.Fitness>
33.9999

> <Gold.Goldscore.Internal.Vdw>
-0.6894

> <Gold.Goldscore.Internal.Torsion>
-0.5405

> <Gold.Goldscore.External.Vdw>
24.8119

> <Gold.Goldscore.Internal.HBond>
0.0000

> <Gold.Goldscore.External.HBond>
0.3297

> <Gold.Goldscore.Internal.Correction>
-0.7838

> <Gold.Goldscore.Hbonds>
donor molecule, donor type, donor heavy atom, donor atom, acceptor molecule, acceptor atom, score
      P1  H  4470  4475       L1    11  0.15
      L1  H    10    23       P1  4469  0.02

> <Gold.Goldscore.Internal.Vdw.Weighted>
-0.6894

> <Gold.Goldscore.Internal.Torsion.Weighted>
-0.5405

> <Gold.Goldscore.External.Vdw.Weighted>
34.1164

> <Gold.Goldscore.Internal.HBond.Weighted>
0.0000

> <Gold.Goldscore.External.HBond.Weighted>
0.3297

> <Gold.Goldscore.Internal.Correction.Weighted>
-0.7838

> <Gold.Rescore>
     Score     S(PLP)   S(hbond)     S(cho)   S(metal)  DE(clash)   DE(tors)     intcor
     31.67     -33.04       0.00       0.00       0.00       0.00       0.68       ----

> <Gold.PLP.Fitness>
31.6695

> <Gold.PLP.PLP>
-33.0354

> <Gold.PLP.part.hbond>
-0.6409

> <Gold.PLP.part.metal>
0.0000

> <Gold.PLP.part.buried>
-4.1908

> <Gold.PLP.part.nonpolar>
-29.3240

> <Gold.PLP.part.repulsive>
0.3645

> <Gold.PLP.ligand.clash>
0.0000

> <Gold.PLP.ligand.torsion>
0.6830

> <Gold.PLP.Chemscore.Hbond>
0.0000

> <Gold.PLP.Chemscore.CHOScore>
0.0000

> <Gold.PLP.Chemscore.Metal>
0.0000

> <Gold.Chemscore.Hbonds>
donor molecule, donor type, donor heavy atom, donor atom, acceptor molecule, acceptor atom, score
      L1  H    10    23       P1  4469  0.19

> <Gold.PLP.Chemscore.Internal.Correction>
   9.000000E+99

