#       Name:                CT1002167954
#       Creating user name   hitesit
#       Creation time:       Sun Apr 16 22:50:56 2023


#       File generated by GOLD software.
#

@<TRIPOS>MOLECULE
CT1002167954|ligand_prepared|mol2|1|dock1
    29    30     1
SMALL
NO_CHARGES


@<TRIPOS>ATOM
      1 C1         130.8894 140.5594 103.0478 C.3            1 RES1               0.0000
      2 C2         132.2081 139.7971 102.8054 C.ar           1 RES1               0.0000
      3 C3         131.2534 141.7967 103.8631 C.2            1 RES1               0.0000
      4 C4         130.3162 140.8691 101.6693 C.2            1 RES1               0.0000
      5 C5         129.8334 139.7470 103.8328 C.3            1 RES1               0.0000
      6 C6         133.0564 140.1620 101.7642 C.ar           1 RES1               0.0000
      7 C7         132.5905 138.7306 103.6147 C.ar           1 RES1               0.0000
      8 N8         131.2448 143.0006 103.2224 N.am           1 RES1               0.0000
      9 O9         131.5814 141.7126 105.0402 O.2            1 RES1               0.0000
     10 N10        130.2358 142.1828 101.2878 N.am           1 RES1               0.0000
     11 O11        129.9488 139.9866 100.9036 O.2            1 RES1               0.0000
     12 C12        128.4470 140.3715 103.8220 C.3            1 RES1               0.0000
     13 C13        134.2453 139.4871 101.5420 C.ar           1 RES1               0.0000
     14 C14        133.7797 138.0569 103.3905 C.ar           1 RES1               0.0000
     15 C15        130.7026 143.2607 101.9895 C.2            1 RES1               0.0000
     16 C16        134.6080 138.4345 102.3551 C.ar           1 RES1               0.0000
     17 O17        130.6434 144.4077 101.5559 O.2            1 RES1               0.0000
     18 H18        129.7705 138.7402 103.4019 H              1 RES1               0.0000
     19 H19        130.1671 139.6462 104.8730 H              1 RES1               0.0000
     20 H20        132.7866 140.9862 101.1124 H              1 RES1               0.0000
     21 H21        131.9540 138.4154 104.4346 H              1 RES1               0.0000
     22 H22        131.6820 143.7795 103.7046 H              1 RES1               0.0000
     23 H23        129.7863 142.3750 100.3982 H              1 RES1               0.0000
     24 H24        127.7449 139.7619 104.3868 H              1 RES1               0.0000
     25 H25        128.4677 141.3643 104.2666 H              1 RES1               0.0000
     26 H26        128.0735 140.4636 102.8042 H              1 RES1               0.0000
     27 H27        134.8930 139.7873 100.7249 H              1 RES1               0.0000
     28 H28        134.0608 137.2287 104.0326 H              1 RES1               0.0000
     29 H29        135.5395 137.9062 102.1810 H              1 RES1               0.0000
@<TRIPOS>BOND
    1    1    2 1     
    2    1    3 1     
    3    1    4 1     
    4    1    5 1     
    5    2    6 ar    
    6    2    7 ar    
    7    3    8 1     
    8    3    9 2     
    9    4   10 1     
   10    4   11 2     
   11    5   12 1     
   12    5   18 1     
   13    5   19 1     
   14    6   13 ar    
   15    6   20 1     
   16    7   14 ar    
   17    7   21 1     
   18    8   15 1     
   19    8   22 1     
   20   10   15 1     
   21   10   23 1     
   22   12   24 1     
   23   12   25 1     
   24   12   26 1     
   25   13   16 ar    
   26   13   27 1     
   27   14   16 ar    
   28   14   28 1     
   29   15   17 2     
   30   16   29 1     
@<TRIPOS>SUBSTRUCTURE
      1 RES1           1
@<TRIPOS>SET
DONOR_HYDROGENS      STATIC     ATOMS    <user>   **** ""
2 22 23
ATOM$RED        STATIC     ATOMS    COLORGROUP SYSTEM
2 22 23
@<TRIPOS>COMMENT
> <Gold.Version>
2022.3.0

> <Gold.Id.Protein>
unknown|7rmi_clean|pdb

> <Gold.Protein.RotatedTorsions>
[ 4419 4410 4409 4407 ] final  -85.07 input   60.00 | X-H torsion
[ 7286 7277 7276 7274 ] final  125.56 input   59.98 | X-H torsion
[ 7448 7439 7438 7436 ] final -140.93 input   59.99 | X-H torsion
[ 5718 5713 5712 5709 ] final    8.34 input   60.00 | X-H torsion
[ 4298 4286 4285 4282 ] final   53.96 input   60.01 | X-H torsion
[ 6139 6130 6129 6127 ] final  -91.01 input   59.98 | X-H torsion
[ 6229 6224 6223 6220 ] final  -57.52 input   60.02 | X-H torsion
[ 7183 7174 7173 7171 ] final   86.98 input   60.02 | X-H torsion

> <Gold.Protein.ActiveResidues>
 GLN24   PHE25   GLN27   MET81   PHE84   ASN85   THR86   VAL88   ASN89   PHE90  
 TYR92   ALA93   VAL94   HIS95   ASN96   GLU97   TRP98   TYR100  TYR104  CYS105 
 HIS108  ASN109  PRO112  ILE113  ALA114  ALA115  VAL116  PHE117  LEU161  ALA162 
 GLN165  SER169  THR170  GLU172  MET174  PRO175  ARG177  VAL178  VAL179  CYS180 
 MET181  ILE182  GLU183  TRP184  TYR196  HIS197  VAL200  THR201  ILE204  TRP261 
 PHE264  HIS265  PHE267  PHE268  LEU269  PRO271  TYR272  PRO275  LEU277  TYR278 
 LEU279  LYS280  LYS281  PHE282  ILE283  GLN284  GLN285  VAL286  TYR287  LEU288 
 ILE290  MET291  ALA294  MET295 

> <Gold.Protein.RotatedAtoms>
  123.9817  139.0376  111.0074 H   0  0  0  0  0  0  0  0  0  0  0  0  # atno 4298 bound_to 4286
  125.7211  145.1048   95.5455 H   0  0  0  0  0  0  0  0  0  0  0  0  # atno 4419 bound_to 4410
  132.6547  150.1682   99.5371 H   0  0  0  0  0  0  0  0  0  0  0  0  # atno 5718 bound_to 5713
  139.0529  140.9409  105.5021 H   0  0  0  0  0  0  0  0  0  0  0  0  # atno 6139 bound_to 6130
  138.4948  131.7676  103.7396 H   0  0  0  0  0  0  0  0  0  0  0  0  # atno 6229 bound_to 6224
  137.5332  138.1203   96.2264 H   0  0  0  0  0  0  0  0  0  0  0  0  # atno 7183 bound_to 7174
  132.0911  135.5359   94.1639 H   0  0  0  0  0  0  0  0  0  0  0  0  # atno 7286 bound_to 7277
  125.5369  139.4492  102.5366 H   0  0  0  0  0  0  0  0  0  0  0  0  # atno 7448 bound_to 7439
  126.9650  145.4440   96.5384 LP  0  0  0  0  0  0  0  0  0  0  0  0  # atno 14307 bound_to 4410
  125.9649  146.6354   96.0416 LP  0  0  0  0  0  0  0  0  0  0  0  0  # atno 14308 bound_to 4410
  132.5802  134.1206   93.5274 LP  0  0  0  0  0  0  0  0  0  0  0  0  # atno 14309 bound_to 7277
  131.2105  134.1908   94.4138 LP  0  0  0  0  0  0  0  0  0  0  0  0  # atno 14310 bound_to 7277
  126.4567  140.1379  101.3841 LP  0  0  0  0  0  0  0  0  0  0  0  0  # atno 14329 bound_to 7439
  127.1102  139.0517  102.4136 LP  0  0  0  0  0  0  0  0  0  0  0  0  # atno 14330 bound_to 7439
  132.3409  151.1873  100.7665 LP  0  0  0  0  0  0  0  0  0  0  0  0  # atno 14371 bound_to 5713
  132.2421  149.5733  100.9945 LP  0  0  0  0  0  0  0  0  0  0  0  0  # atno 14372 bound_to 5713
  123.5993  137.8607  109.9507 LP  0  0  0  0  0  0  0  0  0  0  0  0  # atno 14387 bound_to 4286
  122.8887  137.9050  111.4203 LP  0  0  0  0  0  0  0  0  0  0  0  0  # atno 14388 bound_to 4286
  138.4709  142.1405  104.5686 LP  0  0  0  0  0  0  0  0  0  0  0  0  # atno 14389 bound_to 6130
  139.7175  142.4244  105.5845 LP  0  0  0  0  0  0  0  0  0  0  0  0  # atno 14390 bound_to 6130
  139.2940  131.4349  102.3613 LP  0  0  0  0  0  0  0  0  0  0  0  0  # atno 14404 bound_to 6224
  139.4355  132.9062  103.0556 LP  0  0  0  0  0  0  0  0  0  0  0  0  # atno 14405 bound_to 6224
  138.9940  138.7967   95.9876 LP  0  0  0  0  0  0  0  0  0  0  0  0  # atno 14408 bound_to 7174
  138.7120  137.9079   97.3282 LP  0  0  0  0  0  0  0  0  0  0  0  0  # atno 14409 bound_to 7174

> <Gold.Score>
     Fitness  S(hb_ext) S(vdw_ext)  S(hb_int)    S(int)      intcor
     31.97       0.09      23.30       0.00      -0.15      -0.78

> <Gold.Goldscore.Fitness>
31.9657

> <Gold.Goldscore.Internal.Vdw>
-0.3459

> <Gold.Goldscore.Internal.Torsion>
-0.5921

> <Gold.Goldscore.External.Vdw>
23.2975

> <Gold.Goldscore.Internal.HBond>
0.0000

> <Gold.Goldscore.External.HBond>
0.0858

> <Gold.Goldscore.Internal.Correction>
-0.7838

> <Gold.Goldscore.Hbonds>
donor molecule, donor type, donor heavy atom, donor atom, acceptor molecule, acceptor atom, score
      P1  H  4721  4726       L1    17  0.04

> <Gold.Goldscore.Internal.Vdw.Weighted>
-0.3459

> <Gold.Goldscore.Internal.Torsion.Weighted>
-0.5921

> <Gold.Goldscore.External.Vdw.Weighted>
32.0341

> <Gold.Goldscore.Internal.HBond.Weighted>
0.0000

> <Gold.Goldscore.External.HBond.Weighted>
0.0858

> <Gold.Goldscore.Internal.Correction.Weighted>
-0.7838

> <Gold.Rescore>
     Score     S(PLP)   S(hbond)     S(cho)   S(metal)  DE(clash)   DE(tors)     intcor
     20.67     -20.43       1.00       0.00       0.00       1.64       0.56       ----

> <Gold.PLP.Fitness>
20.6705

> <Gold.PLP.PLP>
-20.4268

> <Gold.PLP.part.hbond>
-0.8232

> <Gold.PLP.part.metal>
0.0000

> <Gold.PLP.part.buried>
6.3729

> <Gold.PLP.part.nonpolar>
-30.2192

> <Gold.PLP.part.repulsive>
3.4445

> <Gold.PLP.ligand.clash>
1.6394

> <Gold.PLP.ligand.torsion>
0.5584

> <Gold.PLP.Chemscore.Hbond>
1.0000

> <Gold.PLP.Chemscore.CHOScore>
0.0000

> <Gold.PLP.Chemscore.Metal>
0.0000

> <Gold.Chemscore.Hbonds>
donor molecule, donor type, donor heavy atom, donor atom, acceptor molecule, acceptor atom, score
      P1  H  4721  4726       L1    17  0.53

> <Gold.PLP.Chemscore.Internal.Correction>
   9.000000E+99

