#       Name:                CT1002167954
#       Creating user name   hitesit
#       Creation time:       Sun Apr 16 22:52:55 2023


#       File generated by GOLD software.
#

@<TRIPOS>MOLECULE
CT1002167954|ligand_prepared|mol2|1|dock6
    29    30     1
SMALL
NO_CHARGES


@<TRIPOS>ATOM
      1 C1         207.6655  32.6731  70.8394 C.3            1 RES1               0.0000
      2 C2         206.9242  33.9303  70.3406 C.ar           1 RES1               0.0000
      3 C3         208.3669  33.0746  72.1336 C.2            1 RES1               0.0000
      4 C4         206.6035  31.5936  71.0163 C.2            1 RES1               0.0000
      5 C5         208.7279  32.1405  69.8498 C.3            1 RES1               0.0000
      6 C6         205.9325  34.5227  71.1166 C.ar           1 RES1               0.0000
      7 C7         207.2222  34.5095  69.1100 C.ar           1 RES1               0.0000
      8 N8         207.8423  32.6147  73.3055 N.am           1 RES1               0.0000
      9 O9         209.3420  33.8158  72.1287 O.2            1 RES1               0.0000
     10 N10        206.3524  31.1418  72.2854 N.am           1 RES1               0.0000
     11 O11        205.9701  31.1421  70.0701 O.2            1 RES1               0.0000
     12 C12        209.4125  30.8643  70.3134 C.3            1 RES1               0.0000
     13 C13        205.2649  35.6549  70.6798 C.ar           1 RES1               0.0000
     14 C14        206.5533  35.6416  68.6749 C.ar           1 RES1               0.0000
     15 C15        206.9019  31.6253  73.4414 C.2            1 RES1               0.0000
     16 C16        205.5751  36.2153  69.4590 C.ar           1 RES1               0.0000
     17 O17        206.5851  31.2045  74.5503 O.2            1 RES1               0.0000
     18 H18        208.2462  31.9515  68.8826 H              1 RES1               0.0000
     19 H19        209.4900  32.9151  69.6992 H              1 RES1               0.0000
     20 H20        205.6730  34.0944  72.0791 H              1 RES1               0.0000
     21 H21        207.9874  34.0746  68.4760 H              1 RES1               0.0000
     22 H22        208.1804  33.0463  74.1597 H              1 RES1               0.0000
     23 H23        205.6950  30.3738  72.3767 H              1 RES1               0.0000
     24 H24        210.1480  30.5339  69.5830 H              1 RES1               0.0000
     25 H25        209.9233  31.0229  71.2609 H              1 RES1               0.0000
     26 H26        208.6869  30.0649  70.4492 H              1 RES1               0.0000
     27 H27        204.4949  36.1018  71.3000 H              1 RES1               0.0000
     28 H28        206.8003  36.0790  67.7132 H              1 RES1               0.0000
     29 H29        205.0523  37.1025  69.1172 H              1 RES1               0.0000
@<TRIPOS>BOND
    1    1    2 1     
    2    1    3 1     
    3    1    4 1     
    4    1    5 1     
    5    2    6 ar    
    6    2    7 ar    
    7    3    8 1     
    8    3    9 2     
    9    4   10 1     
   10    4   11 2     
   11    5   12 1     
   12    5   18 1     
   13    5   19 1     
   14    6   13 ar    
   15    6   20 1     
   16    7   14 ar    
   17    7   21 1     
   18    8   15 1     
   19    8   22 1     
   20   10   15 1     
   21   10   23 1     
   22   12   24 1     
   23   12   25 1     
   24   12   26 1     
   25   13   16 ar    
   26   13   27 1     
   27   14   16 ar    
   28   14   28 1     
   29   15   17 2     
   30   16   29 1     
@<TRIPOS>SUBSTRUCTURE
      1 RES1           1
@<TRIPOS>SET
DONOR_HYDROGENS      STATIC     ATOMS    <user>   **** ""
2 22 23
ATOM$RED        STATIC     ATOMS    COLORGROUP SYSTEM
2 22 23
@<TRIPOS>COMMENT
> <Gold.Version>
2022.3.0

> <Gold.Id.Protein>
unknown|4d1n_clean|pdb

> <Gold.Protein.RotatedTorsions>
[ 16986 16932 16931 16929 ] final   30.52 input   60.00 | X-H torsion
[ 18485 18440 18439 18437 ] final -104.64 input   60.00 | X-H torsion
[ 10113 10082 10081 10078 ] final -142.32 input   59.99 | X-H torsion
[ 18288 18266 18265 18262 ] final  -50.39 input   60.03 | X-H torsion
[ 18643 18615 18613 18610 ] final  -40.11 input   59.98 | X-H torsion
[ 11435 11402 11401 11398 ] final  -54.23 input   60.03 | X-H torsion

> <Gold.Protein.ActiveResidues>
 TRP414  CYS420  VAL421  GLY422  LEU460  SER462  SER482  GLN483  ILE485  ARG486 
 TYR487  ASP500  ASN503  TRP566  TYR567  LEU569  PRO570  ALA571  VAL572  SER573 
 ASN574  PHE589  SER590  GLY591  TRP592  TYR593  MET594  GLY595  THR596  GLU597 
 ILE598  GLY599  VAL600  ARG601  ASP602  TYR603  ARG608  ILE653  VAL654  TRP683 
 PRO687  HEM750  H4B760 

> <Gold.Protein.RotatedAtoms>
  205.7832   44.2781   68.6597 H   0  0  0  0  0  0  0  0  0  0  0  0  # atno 10113 bound_to 10082
  215.8358   29.0028   75.5909 H   0  0  0  0  0  0  0  0  0  0  0  0  # atno 11435 bound_to 11402
  209.1317   32.0862   76.9094 H   0  0  0  0  0  0  0  0  0  0  0  0  # atno 16986 bound_to 16932
  211.0760   42.6108   73.3227 H   0  0  0  0  0  0  0  0  0  0  0  0  # atno 18288 bound_to 18266
  205.6730   32.1354   76.8842 H   0  0  0  0  0  0  0  0  0  0  0  0  # atno 18485 bound_to 18440
  197.8501   30.9996   69.5020 H   0  0  0  0  0  0  0  0  0  0  0  0  # atno 18643 bound_to 18615
  207.8246   31.1249   77.0338 LP  0  0  0  0  0  0  0  0  0  0  0  0  # atno 27195 bound_to 16932
  209.1867   30.7668   77.8602 LP  0  0  0  0  0  0  0  0  0  0  0  0  # atno 27196 bound_to 16932
  206.6241   33.4069   76.5273 LP  0  0  0  0  0  0  0  0  0  0  0  0  # atno 27197 bound_to 18440
  206.3749   32.2335   75.4192 LP  0  0  0  0  0  0  0  0  0  0  0  0  # atno 27198 bound_to 18440
  205.1165   45.6173   69.3005 LP  0  0  0  0  0  0  0  0  0  0  0  0  # atno 27253 bound_to 10082
  205.6263   44.4095   70.2742 LP  0  0  0  0  0  0  0  0  0  0  0  0  # atno 27254 bound_to 10082
  210.5073   42.4193   74.8354 LP  0  0  0  0  0  0  0  0  0  0  0  0  # atno 27255 bound_to 18266
  209.5243   42.9722   73.6544 LP  0  0  0  0  0  0  0  0  0  0  0  0  # atno 27256 bound_to 18266

> <Gold.Score>
     Fitness  S(hb_ext) S(vdw_ext)  S(hb_int)    S(int)      intcor
     41.14       0.93      29.35       0.00      -0.15      -0.76

> <Gold.Goldscore.Fitness>
41.1424

> <Gold.Goldscore.Internal.Vdw>
-0.5298

> <Gold.Goldscore.Internal.Torsion>
-0.3778

> <Gold.Goldscore.External.Vdw>
29.3533

> <Gold.Goldscore.Internal.HBond>
0.0000

> <Gold.Goldscore.External.HBond>
0.9339

> <Gold.Goldscore.Internal.Correction>
-0.7553

> <Gold.Goldscore.Hbonds>
donor molecule, donor type, donor heavy atom, donor atom, acceptor molecule, acceptor atom, score
      P1  H 11448 11499       L1    17  0.38
      P1  H 16835 16897       L1    17  0.02
      L1  H     8    22       P1 11449  0.07

> <Gold.Goldscore.Internal.Vdw.Weighted>
-0.5298

> <Gold.Goldscore.Internal.Torsion.Weighted>
-0.3778

> <Gold.Goldscore.External.Vdw.Weighted>
40.3608

> <Gold.Goldscore.Internal.HBond.Weighted>
0.0000

> <Gold.Goldscore.External.HBond.Weighted>
0.9339

> <Gold.Goldscore.Internal.Correction.Weighted>
-0.7553

> <Gold.Rescore>
     Score     S(PLP)   S(hbond)     S(cho)   S(metal)  DE(clash)   DE(tors)     intcor
     21.84     -21.85       0.61       0.00       0.00       0.00       0.91       ----

> <Gold.PLP.Fitness>
21.8429

> <Gold.PLP.PLP>
-21.8473

> <Gold.PLP.part.hbond>
-3.2526

> <Gold.PLP.part.metal>
0.0000

> <Gold.PLP.part.buried>
11.0945

> <Gold.PLP.part.nonpolar>
-33.6969

> <Gold.PLP.part.repulsive>
3.7262

> <Gold.PLP.ligand.clash>
0.0000

> <Gold.PLP.ligand.torsion>
0.9119

> <Gold.PLP.Chemscore.Hbond>
0.6065

> <Gold.PLP.Chemscore.CHOScore>
0.0000

> <Gold.PLP.Chemscore.Metal>
0.0000

> <Gold.Chemscore.Hbonds>
donor molecule, donor type, donor heavy atom, donor atom, acceptor molecule, acceptor atom, score
      L1  H     8    22       P1 11449  0.39

> <Gold.PLP.Chemscore.Internal.Correction>
   9.000000E+99

#       Name:                CT1002167954
#       Creating user name   hitesit
#       Creation time:       Sun Apr 16 22:52:56 2023


#       File generated by GOLD software.
#

@<TRIPOS>MOLECULE
CT1002167954|ligand_prepared|mol2|1|dock8
    29    30     1
SMALL
NO_CHARGES


@<TRIPOS>ATOM
      1 C1         207.5661  32.7716  70.9312 C.3            1 RES1               0.0000
      2 C2         206.7336  33.9856  70.4709 C.ar           1 RES1               0.0000
      3 C3         208.2031  33.1680  72.2599 C.2            1 RES1               0.0000
      4 C4         206.5940  31.6013  71.0320 C.2            1 RES1               0.0000
      5 C5         208.6905  32.3753  69.9462 C.3            1 RES1               0.0000
      6 C6         206.9331  34.5455  69.2125 C.ar           1 RES1               0.0000
      7 C7         205.7624  34.5539  71.2909 C.ar           1 RES1               0.0000
      8 N8         207.6933  32.6118  73.3959 N.am           1 RES1               0.0000
      9 O9         209.1130  33.9863  72.3133 O.2            1 RES1               0.0000
     10 N10        206.3539  31.0711  72.2725 N.am           1 RES1               0.0000
     11 O11        206.0213  31.1443  70.0505 O.2            1 RES1               0.0000
     12 C12        209.5061  31.1742  70.3979 C.3            1 RES1               0.0000
     13 C13        206.1867  35.6323  68.7880 C.ar           1 RES1               0.0000
     14 C14        205.0173  35.6409  70.8645 C.ar           1 RES1               0.0000
     15 C15        206.8359  31.5432  73.4629 C.2            1 RES1               0.0000
     16 C16        205.2281  36.1804  69.6134 C.ar           1 RES1               0.0000
     17 O17        206.5311  31.0460  74.5433 O.2            1 RES1               0.0000
     18 H18        208.2422  32.1510  68.9704 H              1 RES1               0.0000
     19 H19        209.3644  33.2312  69.8168 H              1 RES1               0.0000
     20 H20        207.6847  34.1292  68.5501 H              1 RES1               0.0000
     21 H21        205.5800  34.1467  72.2796 H              1 RES1               0.0000
     22 H22        207.9755  33.0291  74.2771 H              1 RES1               0.0000
     23 H23        205.7609  30.2482  72.3123 H              1 RES1               0.0000
     24 H24        210.2809  30.9387  69.6713 H              1 RES1               0.0000
     25 H25        209.9868  31.3717  71.3538 H              1 RES1               0.0000
     26 H26        208.8713  30.2979  70.5125 H              1 RES1               0.0000
     27 H27        206.3575  36.0540  67.8030 H              1 RES1               0.0000
     28 H28        204.2643  36.0694  71.5176 H              1 RES1               0.0000
     29 H29        204.6433  37.0315  69.2805 H              1 RES1               0.0000
@<TRIPOS>BOND
    1    1    2 1     
    2    1    3 1     
    3    1    4 1     
    4    1    5 1     
    5    2    6 ar    
    6    2    7 ar    
    7    3    8 1     
    8    3    9 2     
    9    4   10 1     
   10    4   11 2     
   11    5   12 1     
   12    5   18 1     
   13    5   19 1     
   14    6   13 ar    
   15    6   20 1     
   16    7   14 ar    
   17    7   21 1     
   18    8   15 1     
   19    8   22 1     
   20   10   15 1     
   21   10   23 1     
   22   12   24 1     
   23   12   25 1     
   24   12   26 1     
   25   13   16 ar    
   26   13   27 1     
   27   14   16 ar    
   28   14   28 1     
   29   15   17 2     
   30   16   29 1     
@<TRIPOS>SUBSTRUCTURE
      1 RES1           1
@<TRIPOS>SET
DONOR_HYDROGENS      STATIC     ATOMS    <user>   **** ""
2 22 23
ATOM$RED        STATIC     ATOMS    COLORGROUP SYSTEM
2 22 23
@<TRIPOS>COMMENT
> <Gold.Version>
2022.3.0

> <Gold.Id.Protein>
unknown|4d1n_clean|pdb

> <Gold.Protein.RotatedTorsions>
[ 16986 16932 16931 16929 ] final  -95.28 input   60.00 | X-H torsion
[ 18485 18440 18439 18437 ] final -133.18 input   60.00 | X-H torsion
[ 10113 10082 10081 10078 ] final   69.62 input   59.99 | X-H torsion
[ 18288 18266 18265 18262 ] final  174.24 input   60.03 | X-H torsion
[ 18643 18615 18613 18610 ] final   68.07 input   59.98 | X-H torsion
[ 11435 11402 11401 11398 ] final  -77.49 input   60.03 | X-H torsion

> <Gold.Protein.ActiveResidues>
 TRP414  CYS420  VAL421  GLY422  LEU460  SER462  SER482  GLN483  ILE485  ARG486 
 TYR487  ASP500  ASN503  TRP566  TYR567  LEU569  PRO570  ALA571  VAL572  SER573 
 ASN574  PHE589  SER590  GLY591  TRP592  TYR593  MET594  GLY595  THR596  GLU597 
 ILE598  GLY599  VAL600  ARG601  ASP602  TYR603  ARG608  ILE653  VAL654  TRP683 
 PRO687  HEM750  H4B760 

> <Gold.Protein.RotatedAtoms>
  205.1252   45.5500   69.7511 H   0  0  0  0  0  0  0  0  0  0  0  0  # atno 10113 bound_to 10082
  215.8771   28.6463   75.4739 H   0  0  0  0  0  0  0  0  0  0  0  0  # atno 11435 bound_to 11402
  207.8380   31.0518   77.0931 H   0  0  0  0  0  0  0  0  0  0  0  0  # atno 16986 bound_to 16932
  210.2641   42.4821   74.8477 H   0  0  0  0  0  0  0  0  0  0  0  0  # atno 18288 bound_to 18266
  205.8080   32.5124   77.1141 H   0  0  0  0  0  0  0  0  0  0  0  0  # atno 18485 bound_to 18440
  198.8654   29.9663   69.0524 H   0  0  0  0  0  0  0  0  0  0  0  0  # atno 18643 bound_to 18615
  209.2609   30.8261   77.8497 LP  0  0  0  0  0  0  0  0  0  0  0  0  # atno 27195 bound_to 16932
  209.0537   32.1078   76.8593 LP  0  0  0  0  0  0  0  0  0  0  0  0  # atno 27196 bound_to 16932
  206.7696   33.3358   76.0915 LP  0  0  0  0  0  0  0  0  0  0  0  0  # atno 27197 bound_to 18440
  206.0934   31.9250   75.6235 LP  0  0  0  0  0  0  0  0  0  0  0  0  # atno 27198 bound_to 18440
  205.7933   44.0866   69.9972 LP  0  0  0  0  0  0  0  0  0  0  0  0  # atno 27253 bound_to 10082
  205.6119   44.6596   68.4788 LP  0  0  0  0  0  0  0  0  0  0  0  0  # atno 27254 bound_to 10082
  209.6425   42.9909   73.4324 LP  0  0  0  0  0  0  0  0  0  0  0  0  # atno 27255 bound_to 18266
  211.2066   42.5301   73.5219 LP  0  0  0  0  0  0  0  0  0  0  0  0  # atno 27256 bound_to 18266

> <Gold.Score>
     Fitness  S(hb_ext) S(vdw_ext)  S(hb_int)    S(int)      intcor
     40.89       0.73      30.06       0.00      -1.17      -0.76

> <Gold.Goldscore.Fitness>
40.8871

> <Gold.Goldscore.Internal.Vdw>
-1.5540

> <Gold.Goldscore.Internal.Torsion>
-0.3676

> <Gold.Goldscore.External.Vdw>
30.0556

> <Gold.Goldscore.Internal.HBond>
0.0000

> <Gold.Goldscore.External.HBond>
0.7269

> <Gold.Goldscore.Internal.Correction>
-0.7553

> <Gold.Goldscore.Hbonds>
donor molecule, donor type, donor heavy atom, donor atom, acceptor molecule, acceptor atom, score
      P1  H 11448 11499       L1    17  0.35
      L1  H     8    22       P1 11449  0.01

> <Gold.Goldscore.Internal.Vdw.Weighted>
-1.5540

> <Gold.Goldscore.Internal.Torsion.Weighted>
-0.3676

> <Gold.Goldscore.External.Vdw.Weighted>
41.3265

> <Gold.Goldscore.Internal.HBond.Weighted>
0.0000

> <Gold.Goldscore.External.HBond.Weighted>
0.7269

> <Gold.Goldscore.Internal.Correction.Weighted>
-0.7553

> <Gold.Rescore>
     Score     S(PLP)   S(hbond)     S(cho)   S(metal)  DE(clash)   DE(tors)     intcor
     25.73     -29.00       0.64       0.00       0.00       1.99       1.60       ----

> <Gold.PLP.Fitness>
25.7343

> <Gold.PLP.PLP>
-29.0014

> <Gold.PLP.part.hbond>
-3.5215

> <Gold.PLP.part.metal>
0.0000

> <Gold.PLP.part.buried>
15.1426

> <Gold.PLP.part.nonpolar>
-44.4532

> <Gold.PLP.part.repulsive>
3.3345

> <Gold.PLP.ligand.clash>
1.9887

> <Gold.PLP.ligand.torsion>
1.5967

> <Gold.PLP.Chemscore.Hbond>
0.6383

> <Gold.PLP.Chemscore.CHOScore>
0.0000

> <Gold.PLP.Chemscore.Metal>
0.0000

> <Gold.Chemscore.Hbonds>
donor molecule, donor type, donor heavy atom, donor atom, acceptor molecule, acceptor atom, score
      L1  H     8    22       P1 11449  0.31

> <Gold.PLP.Chemscore.Internal.Correction>
   9.000000E+99

#       Name:                CT1002167954
#       Creating user name   hitesit
#       Creation time:       Sun Apr 16 22:52:56 2023


#       File generated by GOLD software.
#

@<TRIPOS>MOLECULE
CT1002167954|ligand_prepared|mol2|1|dock7
    29    30     1
SMALL
NO_CHARGES


@<TRIPOS>ATOM
      1 C1         206.7248  29.2420  71.8960 C.3            1 RES1               0.0000
      2 C2         206.0304  28.5652  70.6967 C.ar           1 RES1               0.0000
      3 C3         207.5522  28.1576  72.5799 C.2            1 RES1               0.0000
      4 C4         207.5524  30.3856  71.3200 C.2            1 RES1               0.0000
      5 C5         205.7430  29.8374  72.9320 C.3            1 RES1               0.0000
      6 C6         204.8151  29.0455  70.2180 C.ar           1 RES1               0.0000
      7 C7         206.5931  27.4632  70.0582 C.ar           1 RES1               0.0000
      8 N8         208.9057  28.1992  72.4180 N.am           1 RES1               0.0000
      9 O9         207.0222  27.2570  73.2189 O.2            1 RES1               0.0000
     10 N10        208.9166  30.3055  71.4215 N.am           1 RES1               0.0000
     11 O11        207.0362  31.3474  70.7644 O.2            1 RES1               0.0000
     12 C12        206.4177  30.3359  74.2002 C.3            1 RES1               0.0000
     13 C13        204.1865  28.4478  69.1382 C.ar           1 RES1               0.0000
     14 C14        205.9627  26.8668  68.9786 C.ar           1 RES1               0.0000
     15 C15        209.6319  29.2496  71.9170 C.2            1 RES1               0.0000
     16 C16        204.7600  27.3585  68.5176 C.ar           1 RES1               0.0000
     17 O17        210.8594  29.2282  71.9247 O.2            1 RES1               0.0000
     18 H18        205.2032  30.6720  72.4678 H              1 RES1               0.0000
     19 H19        205.0066  29.0705  73.2020 H              1 RES1               0.0000
     20 H20        204.3475  29.9003  70.6952 H              1 RES1               0.0000
     21 H21        207.5381  27.0587  70.4044 H              1 RES1               0.0000
     22 H22        209.4260  27.3728  72.6949 H              1 RES1               0.0000
     23 H23        209.4482  31.1074  71.0978 H              1 RES1               0.0000
     24 H24        205.6842  30.7434  74.8927 H              1 RES1               0.0000
     25 H25        206.9435  29.5259  74.7014 H              1 RES1               0.0000
     26 H26        207.1389  31.1179  73.9716 H              1 RES1               0.0000
     27 H27        203.2395  28.8377  68.7801 H              1 RES1               0.0000
     28 H28        206.4173  26.0094  68.4936 H              1 RES1               0.0000
     29 H29        204.2676  26.8907  67.6715 H              1 RES1               0.0000
@<TRIPOS>BOND
    1    1    2 1     
    2    1    3 1     
    3    1    4 1     
    4    1    5 1     
    5    2    6 ar    
    6    2    7 ar    
    7    3    8 1     
    8    3    9 2     
    9    4   10 1     
   10    4   11 2     
   11    5   12 1     
   12    5   18 1     
   13    5   19 1     
   14    6   13 ar    
   15    6   20 1     
   16    7   14 ar    
   17    7   21 1     
   18    8   15 1     
   19    8   22 1     
   20   10   15 1     
   21   10   23 1     
   22   12   24 1     
   23   12   25 1     
   24   12   26 1     
   25   13   16 ar    
   26   13   27 1     
   27   14   16 ar    
   28   14   28 1     
   29   15   17 2     
   30   16   29 1     
@<TRIPOS>SUBSTRUCTURE
      1 RES1           1
@<TRIPOS>SET
DONOR_HYDROGENS      STATIC     ATOMS    <user>   **** ""
2 22 23
ATOM$RED        STATIC     ATOMS    COLORGROUP SYSTEM
2 22 23
@<TRIPOS>COMMENT
> <Gold.Version>
2022.3.0

> <Gold.Id.Protein>
unknown|4d1n_clean|pdb

> <Gold.Protein.RotatedTorsions>
[ 16986 16932 16931 16929 ] final    5.15 input   60.00 | X-H torsion
[ 18485 18440 18439 18437 ] final  127.57 input   60.00 | X-H torsion
[ 10113 10082 10081 10078 ] final   99.89 input   59.99 | X-H torsion
[ 18288 18266 18265 18262 ] final  -24.40 input   60.03 | X-H torsion
[ 18643 18615 18613 18610 ] final  120.65 input   59.98 | X-H torsion
[ 11435 11402 11401 11398 ] final  110.88 input   60.03 | X-H torsion

> <Gold.Protein.ActiveResidues>
 TRP414  CYS420  VAL421  GLY422  LEU460  SER462  SER482  GLN483  ILE485  ARG486 
 TYR487  ASP500  ASN503  TRP566  TYR567  LEU569  PRO570  ALA571  VAL572  SER573 
 ASN574  PHE589  SER590  GLY591  TRP592  TYR593  MET594  GLY595  THR596  GLU597 
 ILE598  GLY599  VAL600  ARG601  ASP602  TYR603  ARG608  ILE653  VAL654  TRP683 
 PRO687  HEM750  H4B760 

> <Gold.Protein.RotatedAtoms>
  205.1253   45.6090   69.2658 H   0  0  0  0  0  0  0  0  0  0  0  0  # atno 10113 bound_to 10082
  214.2584   28.9976   74.6121 H   0  0  0  0  0  0  0  0  0  0  0  0  # atno 11435 bound_to 11402
  208.7570   32.1011   76.7410 H   0  0  0  0  0  0  0  0  0  0  0  0  # atno 16986 bound_to 16932
  210.7577   42.7553   73.0880 H   0  0  0  0  0  0  0  0  0  0  0  0  # atno 18288 bound_to 18266
  206.6709   33.4026   76.4084 H   0  0  0  0  0  0  0  0  0  0  0  0  # atno 18485 bound_to 18440
  198.4547   29.6385   68.4107 H   0  0  0  0  0  0  0  0  0  0  0  0  # atno 18643 bound_to 18615
  207.9233   30.8170   77.2923 LP  0  0  0  0  0  0  0  0  0  0  0  0  # atno 27195 bound_to 16932
  209.4655   31.0597   77.7713 LP  0  0  0  0  0  0  0  0  0  0  0  0  # atno 27196 bound_to 16932
  206.2988   32.1369   75.4555 LP  0  0  0  0  0  0  0  0  0  0  0  0  # atno 27197 bound_to 18440
  205.6952   32.2274   76.9702 LP  0  0  0  0  0  0  0  0  0  0  0  0  # atno 27198 bound_to 18440
  205.6114   44.4396   70.2879 LP  0  0  0  0  0  0  0  0  0  0  0  0  # atno 27253 bound_to 10082
  205.7937   44.2472   68.6766 LP  0  0  0  0  0  0  0  0  0  0  0  0  # atno 27254 bound_to 10082
  210.8874   42.3535   74.6597 LP  0  0  0  0  0  0  0  0  0  0  0  0  # atno 27255 bound_to 18266
  209.4647   42.8925   74.0665 LP  0  0  0  0  0  0  0  0  0  0  0  0  # atno 27256 bound_to 18266

> <Gold.Score>
     Fitness  S(hb_ext) S(vdw_ext)  S(hb_int)    S(int)      intcor
     36.69       5.42      23.52       0.00      -1.07      -0.76

> <Gold.Goldscore.Fitness>
36.6864

> <Gold.Goldscore.Internal.Vdw>
-1.3597

> <Gold.Goldscore.Internal.Torsion>
-0.4691

> <Gold.Goldscore.External.Vdw>
23.5233

> <Gold.Goldscore.Internal.HBond>
0.0000

> <Gold.Goldscore.External.HBond>
5.4152

> <Gold.Goldscore.Internal.Correction>
-0.7553

> <Gold.Goldscore.Hbonds>
donor molecule, donor type, donor heavy atom, donor atom, acceptor molecule, acceptor atom, score
      P1  H 11448 11500       L1    17  0.17
      P1  H 19322 19357       L1     9  0.85

> <Gold.Goldscore.Internal.Vdw.Weighted>
-1.3597

> <Gold.Goldscore.Internal.Torsion.Weighted>
-0.4691

> <Gold.Goldscore.External.Vdw.Weighted>
32.3446

> <Gold.Goldscore.Internal.HBond.Weighted>
0.0000

> <Gold.Goldscore.External.HBond.Weighted>
5.4152

> <Gold.Goldscore.Internal.Correction.Weighted>
-0.7553

> <Gold.Rescore>
     Score     S(PLP)   S(hbond)     S(cho)   S(metal)  DE(clash)   DE(tors)     intcor
     19.84     -21.08       0.52       0.00       0.00       0.66       1.07       ----

> <Gold.PLP.Fitness>
19.8431

> <Gold.PLP.PLP>
-21.0835

> <Gold.PLP.part.hbond>
-2.9207

> <Gold.PLP.part.metal>
0.0000

> <Gold.PLP.part.buried>
2.9784

> <Gold.PLP.part.nonpolar>
-24.3789

> <Gold.PLP.part.repulsive>
2.9474

> <Gold.PLP.ligand.clash>
0.6597

> <Gold.PLP.ligand.torsion>
1.0728

> <Gold.PLP.Chemscore.Hbond>
0.5216

> <Gold.PLP.Chemscore.CHOScore>
0.0000

> <Gold.PLP.Chemscore.Metal>
0.0000

> <Gold.Chemscore.Hbonds>
donor molecule, donor type, donor heavy atom, donor atom, acceptor molecule, acceptor atom, score
      P1  H 19322 19357       L1     9  0.54

> <Gold.PLP.Chemscore.Internal.Correction>
   9.000000E+99

#       Name:                CT1002167954
#       Creating user name   hitesit
#       Creation time:       Sun Apr 16 22:52:58 2023


#       File generated by GOLD software.
#

@<TRIPOS>MOLECULE
CT1002167954|ligand_prepared|mol2|1|dock10
    29    30     1
SMALL
NO_CHARGES


@<TRIPOS>ATOM
      1 C1         206.8608  29.9102  72.1373 C.3            1 RES1               0.0000
      2 C2         206.1951  28.8923  71.1889 C.ar           1 RES1               0.0000
      3 C3         206.0401  29.8977  73.4236 C.2            1 RES1               0.0000
      4 C4         208.3029  29.4479  72.3150 C.2            1 RES1               0.0000
      5 C5         206.8868  31.3545  71.5851 C.3            1 RES1               0.0000
      6 C6         205.1936  29.2929  70.3096 C.ar           1 RES1               0.0000
      7 C7         206.5730  27.5522  71.1800 C.ar           1 RES1               0.0000
      8 N8         206.5840  29.2859  74.5143 N.am           1 RES1               0.0000
      9 O9         204.9162  30.3826  73.4691 O.2            1 RES1               0.0000
     10 N10        208.6942  29.0292  73.5597 N.am           1 RES1               0.0000
     11 O11        209.0992  29.4267  71.3846 O.2            1 RES1               0.0000
     12 C12        207.9057  32.2536  72.2675 C.3            1 RES1               0.0000
     13 C13        204.5937  28.3874  69.4503 C.ar           1 RES1               0.0000
     14 C14        205.9715  26.6483  70.3200 C.ar           1 RES1               0.0000
     15 C15        207.8917  28.8982  74.6602 C.2            1 RES1               0.0000
     16 C16        204.9824  27.0647  69.4546 C.ar           1 RES1               0.0000
     17 O17        208.3045  28.4627  75.7312 O.2            1 RES1               0.0000
     18 H18        207.1106  31.3182  70.5118 H              1 RES1               0.0000
     19 H19        205.8898  31.7963  71.7050 H              1 RES1               0.0000
     20 H20        204.8729  30.3292  70.2936 H              1 RES1               0.0000
     21 H21        207.3482  27.2019  71.8529 H              1 RES1               0.0000
     22 H22        205.9608  29.0992  75.2934 H              1 RES1               0.0000
     23 H23        209.6745  28.7934  73.6768 H              1 RES1               0.0000
     24 H24        207.8824  33.2548  71.8425 H              1 RES1               0.0000
     25 H25        207.6983  32.3327  73.3326 H              1 RES1               0.0000
     26 H26        208.9118  31.8574  72.1466 H              1 RES1               0.0000
     27 H27        203.8148  28.7199  68.7721 H              1 RES1               0.0000
     28 H28        206.2802  25.6081  70.3272 H              1 RES1               0.0000
     29 H29        204.5125  26.3556  68.7810 H              1 RES1               0.0000
@<TRIPOS>BOND
    1    1    2 1     
    2    1    3 1     
    3    1    4 1     
    4    1    5 1     
    5    2    6 ar    
    6    2    7 ar    
    7    3    8 1     
    8    3    9 2     
    9    4   10 1     
   10    4   11 2     
   11    5   12 1     
   12    5   18 1     
   13    5   19 1     
   14    6   13 ar    
   15    6   20 1     
   16    7   14 ar    
   17    7   21 1     
   18    8   15 1     
   19    8   22 1     
   20   10   15 1     
   21   10   23 1     
   22   12   24 1     
   23   12   25 1     
   24   12   26 1     
   25   13   16 ar    
   26   13   27 1     
   27   14   16 ar    
   28   14   28 1     
   29   15   17 2     
   30   16   29 1     
@<TRIPOS>SUBSTRUCTURE
      1 RES1           1
@<TRIPOS>SET
DONOR_HYDROGENS      STATIC     ATOMS    <user>   **** ""
2 22 23
ATOM$RED        STATIC     ATOMS    COLORGROUP SYSTEM
2 22 23
@<TRIPOS>COMMENT
> <Gold.Version>
2022.3.0

> <Gold.Id.Protein>
unknown|4d1n_clean|pdb

> <Gold.Protein.RotatedTorsions>
[ 16986 16932 16931 16929 ] final  174.83 input   60.00 | X-H torsion
[ 18485 18440 18439 18437 ] final  -61.97 input   60.00 | X-H torsion
[ 10113 10082 10081 10078 ] final   38.99 input   59.99 | X-H torsion
[ 18288 18266 18265 18262 ] final  -54.50 input   60.03 | X-H torsion
[ 18643 18615 18613 18610 ] final  176.95 input   59.98 | X-H torsion
[ 11435 11402 11401 11398 ] final   36.14 input   60.03 | X-H torsion

> <Gold.Protein.ActiveResidues>
 TRP414  CYS420  VAL421  GLY422  LEU460  SER462  SER482  GLN483  ILE485  ARG486 
 TYR487  ASP500  ASN503  TRP566  TYR567  LEU569  PRO570  ALA571  VAL572  SER573 
 ASN574  PHE589  SER590  GLY591  TRP592  TYR593  MET594  GLY595  THR596  GLU597 
 ILE598  GLY599  VAL600  ARG601  ASP602  TYR603  ARG608  ILE653  VAL654  TRP683 
 PRO687  HEM750  H4B760 

> <Gold.Protein.RotatedAtoms>
  205.2320   45.2734   70.1471 H   0  0  0  0  0  0  0  0  0  0  0  0  # atno 10113 bound_to 10082
  214.8003   29.7630   75.2539 H   0  0  0  0  0  0  0  0  0  0  0  0  # atno 11435 bound_to 11402
  208.8320   30.5932   77.8351 H   0  0  0  0  0  0  0  0  0  0  0  0  # atno 16986 bound_to 16932
  211.1146   42.5882   73.3728 H   0  0  0  0  0  0  0  0  0  0  0  0  # atno 18288 bound_to 18266
  205.7215   31.8002   76.2931 H   0  0  0  0  0  0  0  0  0  0  0  0  # atno 18485 bound_to 18440
  197.6520   29.8840   68.1350 H   0  0  0  0  0  0  0  0  0  0  0  0  # atno 18643 bound_to 18615
  209.4218   31.9380   77.1340 LP  0  0  0  0  0  0  0  0  0  0  0  0  # atno 27195 bound_to 16932
  207.8914   31.4578   76.8273 LP  0  0  0  0  0  0  0  0  0  0  0  0  # atno 27196 bound_to 16932
  206.2424   33.1509   77.0366 LP  0  0  0  0  0  0  0  0  0  0  0  0  # atno 27197 bound_to 18440
  206.7078   32.8272   75.5052 LP  0  0  0  0  0  0  0  0  0  0  0  0  # atno 27198 bound_to 18440
  205.8982   43.9184   69.5402 LP  0  0  0  0  0  0  0  0  0  0  0  0  # atno 27253 bound_to 10082
  205.3994   45.1064   68.5370 LP  0  0  0  0  0  0  0  0  0  0  0  0  # atno 27254 bound_to 10082
  210.4425   42.4348   74.8470 LP  0  0  0  0  0  0  0  0  0  0  0  0  # atno 27255 bound_to 18266
  209.5503   42.9794   73.5924 LP  0  0  0  0  0  0  0  0  0  0  0  0  # atno 27256 bound_to 18266

> <Gold.Score>
     Fitness  S(hb_ext) S(vdw_ext)  S(hb_int)    S(int)      intcor
     35.92       4.97      23.25       0.00      -1.02      -0.76

> <Gold.Goldscore.Fitness>
35.9250

> <Gold.Goldscore.Internal.Vdw>
-0.8897

> <Gold.Goldscore.Internal.Torsion>
-0.8848

> <Gold.Goldscore.External.Vdw>
23.2520

> <Gold.Goldscore.Internal.HBond>
0.0000

> <Gold.Goldscore.External.HBond>
4.9727

> <Gold.Goldscore.Internal.Correction>
-0.7553

> <Gold.Goldscore.Hbonds>
donor molecule, donor type, donor heavy atom, donor atom, acceptor molecule, acceptor atom, score
      P1  H 11671 11743       L1    17  0.49
      P1  H 19323 19359       L1    17  0.11
      L1  H     8    22       P1 18996  0.23

> <Gold.Goldscore.Internal.Vdw.Weighted>
-0.8897

> <Gold.Goldscore.Internal.Torsion.Weighted>
-0.8848

> <Gold.Goldscore.External.Vdw.Weighted>
31.9714

> <Gold.Goldscore.Internal.HBond.Weighted>
0.0000

> <Gold.Goldscore.External.HBond.Weighted>
4.9727

> <Gold.Goldscore.Internal.Correction.Weighted>
-0.7553

> <Gold.Rescore>
     Score     S(PLP)   S(hbond)     S(cho)   S(metal)  DE(clash)   DE(tors)     intcor
     16.82     -12.07       2.31       0.00       0.00       1.35       0.41       ----

> <Gold.PLP.Fitness>
16.8197

> <Gold.PLP.PLP>
-12.0746

> <Gold.PLP.part.hbond>
-5.2028

> <Gold.PLP.part.metal>
0.0000

> <Gold.PLP.part.buried>
7.1329

> <Gold.PLP.part.nonpolar>
-23.5133

> <Gold.PLP.part.repulsive>
7.0851

> <Gold.PLP.ligand.clash>
1.3544

> <Gold.PLP.ligand.torsion>
0.4095

> <Gold.PLP.Chemscore.Hbond>
2.3062

> <Gold.PLP.Chemscore.CHOScore>
0.0000

> <Gold.PLP.Chemscore.Metal>
0.0000

> <Gold.Chemscore.Hbonds>
donor molecule, donor type, donor heavy atom, donor atom, acceptor molecule, acceptor atom, score
      L1  H     8    22       P1 18996  0.56
      P1  H 11671 11743       L1    17  1.00
      P1  H 19323 19359       L1    17  0.83

> <Gold.PLP.Chemscore.Internal.Correction>
   9.000000E+99

#       Name:                CT1002167954
#       Creating user name   hitesit
#       Creation time:       Sun Apr 16 22:52:53 2023


#       File generated by GOLD software.
#

@<TRIPOS>MOLECULE
CT1002167954|ligand_prepared|mol2|1|dock3
    29    30     1
SMALL
NO_CHARGES


@<TRIPOS>ATOM
      1 C1         206.8430  29.8277  72.1998 C.3            1 RES1               0.0000
      2 C2         206.1922  28.7711  71.2840 C.ar           1 RES1               0.0000
      3 C3         206.0328  29.8316  73.4927 C.2            1 RES1               0.0000
      4 C4         208.2961  29.4015  72.3774 C.2            1 RES1               0.0000
      5 C5         206.8332  31.2572  71.6097 C.3            1 RES1               0.0000
      6 C6         205.1758  29.1268  70.4024 C.ar           1 RES1               0.0000
      7 C7         206.5986  27.4396  71.3075 C.ar           1 RES1               0.0000
      8 N8         206.5984  29.2606  74.5945 N.am           1 RES1               0.0000
      9 O9         204.8990  30.2932  73.5350 O.2            1 RES1               0.0000
     10 N10        208.7061  29.0243  73.6294 N.am           1 RES1               0.0000
     11 O11        209.0853  29.3729  71.4412 O.2            1 RES1               0.0000
     12 C12        207.7797  32.2173  72.3129 C.3            1 RES1               0.0000
     13 C13        204.5890  28.1862  69.5722 C.ar           1 RES1               0.0000
     14 C14        206.0102  26.5005  70.4766 C.ar           1 RES1               0.0000
     15 C15        207.9153  28.9052  74.7396 C.2            1 RES1               0.0000
     16 C16        205.0060  26.8727  69.6084 C.ar           1 RES1               0.0000
     17 O17        208.3459  28.5070  75.8182 O.2            1 RES1               0.0000
     18 H18        207.1085  31.2033  70.5492 H              1 RES1               0.0000
     19 H19        205.8138  31.6577  71.6715 H              1 RES1               0.0000
     20 H20        204.8328  30.1553  70.3617 H              1 RES1               0.0000
     21 H21        207.3861  27.1238  71.9832 H              1 RES1               0.0000
     22 H22        205.9855  29.0812  75.3835 H              1 RES1               0.0000
     23 H23        209.6922  28.8129  73.7443 H              1 RES1               0.0000
     24 H24        207.7337  33.2053  71.8598 H              1 RES1               0.0000
     25 H25        207.5194  32.3144  73.3648 H              1 RES1               0.0000
     26 H26        208.8064  31.8627  72.2491 H              1 RES1               0.0000
     27 H27        203.7981  28.4840  68.8918 H              1 RES1               0.0000
     28 H28        206.3411  25.4677  70.5088 H              1 RES1               0.0000
     29 H29        204.5464  26.1361  68.9577 H              1 RES1               0.0000
@<TRIPOS>BOND
    1    1    2 1     
    2    1    3 1     
    3    1    4 1     
    4    1    5 1     
    5    2    6 ar    
    6    2    7 ar    
    7    3    8 1     
    8    3    9 2     
    9    4   10 1     
   10    4   11 2     
   11    5   12 1     
   12    5   18 1     
   13    5   19 1     
   14    6   13 ar    
   15    6   20 1     
   16    7   14 ar    
   17    7   21 1     
   18    8   15 1     
   19    8   22 1     
   20   10   15 1     
   21   10   23 1     
   22   12   24 1     
   23   12   25 1     
   24   12   26 1     
   25   13   16 ar    
   26   13   27 1     
   27   14   16 ar    
   28   14   28 1     
   29   15   17 2     
   30   16   29 1     
@<TRIPOS>SUBSTRUCTURE
      1 RES1           1
@<TRIPOS>SET
DONOR_HYDROGENS      STATIC     ATOMS    <user>   **** ""
2 22 23
ATOM$RED        STATIC     ATOMS    COLORGROUP SYSTEM
2 22 23
@<TRIPOS>COMMENT
> <Gold.Version>
2022.3.0

> <Gold.Id.Protein>
unknown|4d1n_clean|pdb

> <Gold.Protein.RotatedTorsions>
[ 16986 16932 16931 16929 ] final   -9.89 input   60.00 | X-H torsion
[ 18485 18440 18439 18437 ] final   87.58 input   60.00 | X-H torsion
[ 10113 10082 10081 10078 ] final  -15.98 input   59.99 | X-H torsion
[ 18288 18266 18265 18262 ] final -135.36 input   60.03 | X-H torsion
[ 18643 18615 18613 18610 ] final   76.37 input   59.98 | X-H torsion
[ 11435 11402 11401 11398 ] final -114.66 input   60.03 | X-H torsion

> <Gold.Protein.ActiveResidues>
 TRP414  CYS420  VAL421  GLY422  LEU460  SER462  SER482  GLN483  ILE485  ARG486 
 TYR487  ASP500  ASN503  TRP566  TYR567  LEU569  PRO570  ALA571  VAL572  SER573 
 ASN574  PHE589  SER590  GLY591  TRP592  TYR593  MET594  GLY595  THR596  GLU597 
 ILE598  GLY599  VAL600  ARG601  ASP602  TYR603  ARG608  ILE653  VAL654  TRP683 
 PRO687  HEM750  H4B760 

> <Gold.Protein.RotatedAtoms>
  205.5850   44.5003   70.3042 H   0  0  0  0  0  0  0  0  0  0  0  0  # atno 10113 bound_to 10082
  215.6754   28.1793   75.1621 H   0  0  0  0  0  0  0  0  0  0  0  0  # atno 11435 bound_to 11402
  208.5262   32.0385   76.6878 H   0  0  0  0  0  0  0  0  0  0  0  0  # atno 16986 bound_to 16932
  210.9937   42.3451   74.5565 H   0  0  0  0  0  0  0  0  0  0  0  0  # atno 18288 bound_to 18266
  206.7882   33.1796   75.8198 H   0  0  0  0  0  0  0  0  0  0  0  0  # atno 18485 bound_to 18440
  198.8422   29.8848   68.9467 H   0  0  0  0  0  0  0  0  0  0  0  0  # atno 18643 bound_to 18615
  208.0564   30.6778   77.4465 LP  0  0  0  0  0  0  0  0  0  0  0  0  # atno 27195 bound_to 16932
  209.5648   31.2619   77.6707 LP  0  0  0  0  0  0  0  0  0  0  0  0  # atno 27196 bound_to 16932
  205.9174   31.8052   75.8559 LP  0  0  0  0  0  0  0  0  0  0  0  0  # atno 27197 bound_to 18440
  205.9584   32.7837   77.1626 LP  0  0  0  0  0  0  0  0  0  0  0  0  # atno 27198 bound_to 18440
  205.8134   44.1996   68.7212 LP  0  0  0  0  0  0  0  0  0  0  0  0  # atno 27253 bound_to 10082
  205.1288   45.6034   69.1980 LP  0  0  0  0  0  0  0  0  0  0  0  0  # atno 27254 bound_to 10082
  209.4874   42.8530   74.2080 LP  0  0  0  0  0  0  0  0  0  0  0  0  # atno 27255 bound_to 18266
  210.6271   42.8060   73.0395 LP  0  0  0  0  0  0  0  0  0  0  0  0  # atno 27256 bound_to 18266

> <Gold.Score>
     Fitness  S(hb_ext) S(vdw_ext)  S(hb_int)    S(int)      intcor
     35.40       4.44      23.02       0.00      -0.69      -0.76

> <Gold.Goldscore.Fitness>
35.4019

> <Gold.Goldscore.Internal.Vdw>
-0.7213

> <Gold.Goldscore.Internal.Torsion>
-0.7240

> <Gold.Goldscore.External.Vdw>
23.0177

> <Gold.Goldscore.Internal.HBond>
0.0000

> <Gold.Goldscore.External.HBond>
4.4394

> <Gold.Goldscore.Internal.Correction>
-0.7585

> <Gold.Goldscore.Hbonds>
donor molecule, donor type, donor heavy atom, donor atom, acceptor molecule, acceptor atom, score
      P1  H 11668 11739       L1    17  0.02
      P1  H 11671 11743       L1    17  0.47
      P1  H 19323 19359       L1    17  0.09
      L1  H     8    22       P1 18996  0.17

> <Gold.Goldscore.Internal.Vdw.Weighted>
-0.7213

> <Gold.Goldscore.Internal.Torsion.Weighted>
-0.7240

> <Gold.Goldscore.External.Vdw.Weighted>
31.6494

> <Gold.Goldscore.Internal.HBond.Weighted>
0.0000

> <Gold.Goldscore.External.HBond.Weighted>
4.4394

> <Gold.Goldscore.Internal.Correction.Weighted>
-0.7585

> <Gold.Rescore>
     Score     S(PLP)   S(hbond)     S(cho)   S(metal)  DE(clash)   DE(tors)     intcor
     16.02     -12.00       2.03       0.00       0.00       1.00       0.54       ----

> <Gold.PLP.Fitness>
16.0159

> <Gold.PLP.PLP>
-11.9979

> <Gold.PLP.part.hbond>
-5.8939

> <Gold.PLP.part.metal>
0.0000

> <Gold.PLP.part.buried>
8.2057

> <Gold.PLP.part.nonpolar>
-23.9008

> <Gold.PLP.part.repulsive>
8.0500

> <Gold.PLP.ligand.clash>
0.9959

> <Gold.PLP.ligand.torsion>
0.5403

> <Gold.PLP.Chemscore.Hbond>
2.0315

> <Gold.PLP.Chemscore.CHOScore>
0.0000

> <Gold.PLP.Chemscore.Metal>
0.0000

> <Gold.Chemscore.Hbonds>
donor molecule, donor type, donor heavy atom, donor atom, acceptor molecule, acceptor atom, score
      L1  H     8    22       P1 18996  0.50
      P1  H 11671 11743       L1    17  1.00
      P1  H 19323 19359       L1    17  0.80

> <Gold.PLP.Chemscore.Internal.Correction>
   9.000000E+99

#       Name:                CT1002167954
#       Creating user name   hitesit
#       Creation time:       Sun Apr 16 22:52:53 2023


#       File generated by GOLD software.
#

@<TRIPOS>MOLECULE
CT1002167954|ligand_prepared|mol2|1|dock2
    29    30     1
SMALL
NO_CHARGES


@<TRIPOS>ATOM
      1 C1         207.4070  29.3832  71.7113 C.3            1 RES1               0.0000
      2 C2         207.6210  30.8193  71.1911 C.ar           1 RES1               0.0000
      3 C3         208.7480  28.9295  72.2807 C.2            1 RES1               0.0000
      4 C4         206.2885  29.4658  72.7442 C.2            1 RES1               0.0000
      5 C5         206.9735  28.3804  70.6168 C.3            1 RES1               0.0000
      6 C6         208.2633  31.0450  69.9774 C.ar           1 RES1               0.0000
      7 C7         207.1802  31.9264  71.9113 C.ar           1 RES1               0.0000
      8 N8         208.8687  28.8641  73.6375 N.am           1 RES1               0.0000
      9 O9         209.6974  28.6710  71.5512 O.2            1 RES1               0.0000
     10 N10        206.5979  29.1858  74.0494 N.am           1 RES1               0.0000
     11 O11        205.1458  29.7871  72.4421 O.2            1 RES1               0.0000
     12 C12        206.4607  27.0581  71.1652 C.3            1 RES1               0.0000
     13 C13        208.4553  32.3306  69.4993 C.ar           1 RES1               0.0000
     14 C14        207.3734  33.2113  71.4315 C.ar           1 RES1               0.0000
     15 C15        207.8439  28.9187  74.5477 C.2            1 RES1               0.0000
     16 C16        208.0102  33.4145  70.2257 C.ar           1 RES1               0.0000
     17 O17        208.0514  28.7308  75.7430 O.2            1 RES1               0.0000
     18 H18        206.1846  28.8403  70.0090 H              1 RES1               0.0000
     19 H19        207.8298  28.1820  69.9604 H              1 RES1               0.0000
     20 H20        208.6227  30.2045  69.3930 H              1 RES1               0.0000
     21 H21        206.6776  31.7905  72.8629 H              1 RES1               0.0000
     22 H22        209.8079  28.7657  74.0099 H              1 RES1               0.0000
     23 H23        205.8280  29.1755  74.7108 H              1 RES1               0.0000
     24 H24        206.1702  26.3915  70.3558 H              1 RES1               0.0000
     25 H25        207.2286  26.5610  71.7544 H              1 RES1               0.0000
     26 H26        205.5931  27.2154  71.8027 H              1 RES1               0.0000
     27 H27        208.9583  32.4853  68.5504 H              1 RES1               0.0000
     28 H28        207.0220  34.0614  72.0069 H              1 RES1               0.0000
     29 H29        208.1604  34.4216  69.8508 H              1 RES1               0.0000
@<TRIPOS>BOND
    1    1    2 1     
    2    1    3 1     
    3    1    4 1     
    4    1    5 1     
    5    2    6 ar    
    6    2    7 ar    
    7    3    8 1     
    8    3    9 2     
    9    4   10 1     
   10    4   11 2     
   11    5   12 1     
   12    5   18 1     
   13    5   19 1     
   14    6   13 ar    
   15    6   20 1     
   16    7   14 ar    
   17    7   21 1     
   18    8   15 1     
   19    8   22 1     
   20   10   15 1     
   21   10   23 1     
   22   12   24 1     
   23   12   25 1     
   24   12   26 1     
   25   13   16 ar    
   26   13   27 1     
   27   14   16 ar    
   28   14   28 1     
   29   15   17 2     
   30   16   29 1     
@<TRIPOS>SUBSTRUCTURE
      1 RES1           1
@<TRIPOS>SET
DONOR_HYDROGENS      STATIC     ATOMS    <user>   **** ""
2 22 23
ATOM$RED        STATIC     ATOMS    COLORGROUP SYSTEM
2 22 23
@<TRIPOS>COMMENT
> <Gold.Version>
2022.3.0

> <Gold.Id.Protein>
unknown|4d1n_clean|pdb

> <Gold.Protein.RotatedTorsions>
[ 16986 16932 16931 16929 ] final -103.46 input   60.00 | X-H torsion
[ 18485 18440 18439 18437 ] final    0.45 input   60.00 | X-H torsion
[ 10113 10082 10081 10078 ] final  138.27 input   59.99 | X-H torsion
[ 18288 18266 18265 18262 ] final  -72.02 input   60.03 | X-H torsion
[ 18643 18615 18613 18610 ] final    6.50 input   59.98 | X-H torsion
[ 11435 11402 11401 11398 ] final   54.73 input   60.03 | X-H torsion

> <Gold.Protein.ActiveResidues>
 TRP414  CYS420  VAL421  GLY422  LEU460  SER462  SER482  GLN483  ILE485  ARG486 
 TYR487  ASP500  ASN503  TRP566  TYR567  LEU569  PRO570  ALA571  VAL572  SER573 
 ASN574  PHE589  SER590  GLY591  TRP592  TYR593  MET594  GLY595  THR596  GLU597 
 ILE598  GLY599  VAL600  ARG601  ASP602  TYR603  ARG608  ILE653  VAL654  TRP683 
 PRO687  HEM750  H4B760 

> <Gold.Protein.RotatedAtoms>
  205.2736   45.3587   68.7232 H   0  0  0  0  0  0  0  0  0  0  0  0  # atno 10113 bound_to 10082
  214.5700   29.6780   75.0773 H   0  0  0  0  0  0  0  0  0  0  0  0  # atno 11435 bound_to 11402
  207.8638   30.9500   77.1757 H   0  0  0  0  0  0  0  0  0  0  0  0  # atno 16986 bound_to 16932
  211.2341   42.4978   73.6155 H   0  0  0  0  0  0  0  0  0  0  0  0  # atno 18288 bound_to 18266
  206.2266   32.0605   75.5067 H   0  0  0  0  0  0  0  0  0  0  0  0  # atno 18485 bound_to 18440
  198.5097   30.6742   69.5919 H   0  0  0  0  0  0  0  0  0  0  0  0  # atno 18643 bound_to 18615
  209.3557   30.9182   77.8247 LP  0  0  0  0  0  0  0  0  0  0  0  0  # atno 27195 bound_to 16932
  208.9329   32.1182   76.8010 LP  0  0  0  0  0  0  0  0  0  0  0  0  # atno 27196 bound_to 16932
  205.7263   32.3213   77.0332 LP  0  0  0  0  0  0  0  0  0  0  0  0  # atno 27197 bound_to 18440
  206.7152   33.3945   76.3006 LP  0  0  0  0  0  0  0  0  0  0  0  0  # atno 27198 bound_to 18440
  205.3477   45.0002   70.3089 LP  0  0  0  0  0  0  0  0  0  0  0  0  # atno 27253 bound_to 10082
  205.9081   43.9386   69.2019 LP  0  0  0  0  0  0  0  0  0  0  0  0  # atno 27254 bound_to 10082
  210.1663   42.5133   74.8435 LP  0  0  0  0  0  0  0  0  0  0  0  0  # atno 27255 bound_to 18266
  209.7062   42.9919   73.3516 LP  0  0  0  0  0  0  0  0  0  0  0  0  # atno 27256 bound_to 18266

> <Gold.Score>
     Fitness  S(hb_ext) S(vdw_ext)  S(hb_int)    S(int)      intcor
     34.50       6.28      21.37       0.00      -1.16      -0.76

> <Gold.Goldscore.Fitness>
34.5033

> <Gold.Goldscore.Internal.Vdw>
-1.2890

> <Gold.Goldscore.Internal.Torsion>
-0.6284

> <Gold.Goldscore.External.Vdw>
21.3699

> <Gold.Goldscore.Internal.HBond>
0.0000

> <Gold.Goldscore.External.HBond>
6.2786

> <Gold.Goldscore.Internal.Correction>
-0.7585

> <Gold.Goldscore.Hbonds>
donor molecule, donor type, donor heavy atom, donor atom, acceptor molecule, acceptor atom, score
      P1  H 11671 11743       L1    17  0.31
      P1  H 19323 19359       L1    17  0.10
      L1  H    10    23       P1 18996  0.63

> <Gold.Goldscore.Internal.Vdw.Weighted>
-1.2890

> <Gold.Goldscore.Internal.Torsion.Weighted>
-0.6284

> <Gold.Goldscore.External.Vdw.Weighted>
29.3836

> <Gold.Goldscore.Internal.HBond.Weighted>
0.0000

> <Gold.Goldscore.External.HBond.Weighted>
6.2786

> <Gold.Goldscore.Internal.Correction.Weighted>
-0.7585

> <Gold.Rescore>
     Score     S(PLP)   S(hbond)     S(cho)   S(metal)  DE(clash)   DE(tors)     intcor
     20.37     -14.84       2.46       0.00       0.00       0.62       0.62       ----

> <Gold.PLP.Fitness>
20.3665

> <Gold.PLP.PLP>
-14.8413

> <Gold.PLP.part.hbond>
-4.0000

> <Gold.PLP.part.metal>
0.0000

> <Gold.PLP.part.buried>
11.0659

> <Gold.PLP.part.nonpolar>
-27.6066

> <Gold.PLP.part.repulsive>
4.7309

> <Gold.PLP.ligand.clash>
0.6225

> <Gold.PLP.ligand.torsion>
0.6221

> <Gold.PLP.Chemscore.Hbond>
2.4640

> <Gold.PLP.Chemscore.CHOScore>
0.0000

> <Gold.PLP.Chemscore.Metal>
0.0000

> <Gold.Chemscore.Hbonds>
donor molecule, donor type, donor heavy atom, donor atom, acceptor molecule, acceptor atom, score
      L1  H    10    23       P1 18996  0.70
      P1  H 11671 11743       L1    17  0.35
      P1  H 19323 19359       L1    17  1.00

> <Gold.PLP.Chemscore.Internal.Correction>
   9.000000E+99

#       Name:                CT1002167954
#       Creating user name   hitesit
#       Creation time:       Sun Apr 16 22:52:54 2023


#       File generated by GOLD software.
#

@<TRIPOS>MOLECULE
CT1002167954|ligand_prepared|mol2|1|dock4
    29    30     1
SMALL
NO_CHARGES


@<TRIPOS>ATOM
      1 C1         207.4267  29.3757  71.6898 C.3            1 RES1               0.0000
      2 C2         207.6501  30.8088  71.1654 C.ar           1 RES1               0.0000
      3 C3         208.7623  28.9181  72.2687 C.2            1 RES1               0.0000
      4 C4         206.3026  29.4673  72.7158 C.2            1 RES1               0.0000
      5 C5         206.9950  28.3706  70.5966 C.3            1 RES1               0.0000
      6 C6         208.2852  31.0263  69.9463 C.ar           1 RES1               0.0000
      7 C7         207.2252  31.9212  71.8869 C.ar           1 RES1               0.0000
      8 N8         208.8748  28.8575  73.6264 N.am           1 RES1               0.0000
      9 O9         209.7147  28.6526  71.5457 O.2            1 RES1               0.0000
     10 N10        206.6031  29.1909  74.0239 N.am           1 RES1               0.0000
     11 O11        205.1631  29.7924  72.4059 O.2            1 RES1               0.0000
     12 C12        206.4845  27.0481  71.1467 C.3            1 RES1               0.0000
     13 C13        208.4856  32.3093  69.4645 C.ar           1 RES1               0.0000
     14 C14        207.4268  33.2034  71.4033 C.ar           1 RES1               0.0000
     15 C15        207.8450  28.9201  74.5304 C.2            1 RES1               0.0000
     16 C16        208.0562  33.3986  70.1923 C.ar           1 RES1               0.0000
     17 O17        208.0447  28.7359  75.7277 O.2            1 RES1               0.0000
     18 H18        206.2053  28.8283  69.9881 H              1 RES1               0.0000
     19 H19        207.8517  28.1729  69.9405 H              1 RES1               0.0000
     20 H20        208.6322  30.1815  69.3608 H              1 RES1               0.0000
     21 H21        206.7287  31.7917  72.8426 H              1 RES1               0.0000
     22 H22        209.8113  28.7563  74.0046 H              1 RES1               0.0000
     23 H23        205.8293  29.1865  74.6808 H              1 RES1               0.0000
     24 H24        206.1952  26.3800  70.3383 H              1 RES1               0.0000
     25 H25        207.2533  26.5532  71.7367 H              1 RES1               0.0000
     26 H26        205.6166  27.2047  71.7840 H              1 RES1               0.0000
     27 H27        208.9827  32.4575  68.5115 H              1 RES1               0.0000
     28 H28        207.0877  34.0578  71.9798 H              1 RES1               0.0000
     29 H29        208.2129  34.4035  69.8145 H              1 RES1               0.0000
@<TRIPOS>BOND
    1    1    2 1     
    2    1    3 1     
    3    1    4 1     
    4    1    5 1     
    5    2    6 ar    
    6    2    7 ar    
    7    3    8 1     
    8    3    9 2     
    9    4   10 1     
   10    4   11 2     
   11    5   12 1     
   12    5   18 1     
   13    5   19 1     
   14    6   13 ar    
   15    6   20 1     
   16    7   14 ar    
   17    7   21 1     
   18    8   15 1     
   19    8   22 1     
   20   10   15 1     
   21   10   23 1     
   22   12   24 1     
   23   12   25 1     
   24   12   26 1     
   25   13   16 ar    
   26   13   27 1     
   27   14   16 ar    
   28   14   28 1     
   29   15   17 2     
   30   16   29 1     
@<TRIPOS>SUBSTRUCTURE
      1 RES1           1
@<TRIPOS>SET
DONOR_HYDROGENS      STATIC     ATOMS    <user>   **** ""
2 22 23
ATOM$RED        STATIC     ATOMS    COLORGROUP SYSTEM
2 22 23
@<TRIPOS>COMMENT
> <Gold.Version>
2022.3.0

> <Gold.Id.Protein>
unknown|4d1n_clean|pdb

> <Gold.Protein.RotatedTorsions>
[ 16986 16932 16931 16929 ] final   94.96 input   60.00 | X-H torsion
[ 18485 18440 18439 18437 ] final    8.20 input   60.00 | X-H torsion
[ 10113 10082 10081 10078 ] final -139.05 input   59.99 | X-H torsion
[ 18288 18266 18265 18262 ] final  -61.13 input   60.03 | X-H torsion
[ 18643 18615 18613 18610 ] final   61.13 input   59.98 | X-H torsion
[ 11435 11402 11401 11398 ] final   95.65 input   60.03 | X-H torsion

> <Gold.Protein.ActiveResidues>
 TRP414  CYS420  VAL421  GLY422  LEU460  SER462  SER482  GLN483  ILE485  ARG486 
 TYR487  ASP500  ASN503  TRP566  TYR567  LEU569  PRO570  ALA571  VAL572  SER573 
 ASN574  PHE589  SER590  GLY591  TRP592  TYR593  MET594  GLY595  THR596  GLU597 
 ILE598  GLY599  VAL600  ARG601  ASP602  TYR603  ARG608  ILE653  VAL654  TRP683 
 PRO687  HEM750  H4B760 

> <Gold.Protein.RotatedAtoms>
  205.7994   44.2394   68.6928 H   0  0  0  0  0  0  0  0  0  0  0  0  # atno 10113 bound_to 10082
  214.2720   29.2246   74.7113 H   0  0  0  0  0  0  0  0  0  0  0  0  # atno 11435 bound_to 11402
  209.5991   31.4701   77.5406 H   0  0  0  0  0  0  0  0  0  0  0  0  # atno 16986 bound_to 16932
  211.1687   42.5526   73.4597 H   0  0  0  0  0  0  0  0  0  0  0  0  # atno 18288 bound_to 18266
  206.3031   32.1485   75.4571 H   0  0  0  0  0  0  0  0  0  0  0  0  # atno 18485 bound_to 18440
  198.8712   30.0403   69.1381 H   0  0  0  0  0  0  0  0  0  0  0  0  # atno 18643 bound_to 18615
  208.3043   31.9298   76.6688 LP  0  0  0  0  0  0  0  0  0  0  0  0  # atno 27195 bound_to 16932
  208.2361   30.5826   77.5893 LP  0  0  0  0  0  0  0  0  0  0  0  0  # atno 27196 bound_to 16932
  205.6929   32.2194   76.9641 LP  0  0  0  0  0  0  0  0  0  0  0  0  # atno 27197 bound_to 18440
  206.6716   33.4079   76.4197 LP  0  0  0  0  0  0  0  0  0  0  0  0  # atno 27198 bound_to 18440
  205.1223   45.6114   69.2473 LP  0  0  0  0  0  0  0  0  0  0  0  0  # atno 27253 bound_to 10082
  205.6041   44.4543   70.2941 LP  0  0  0  0  0  0  0  0  0  0  0  0  # atno 27254 bound_to 10082
  210.3373   42.4623   74.8557 LP  0  0  0  0  0  0  0  0  0  0  0  0  # atno 27255 bound_to 18266
  209.6010   42.9877   73.4961 LP  0  0  0  0  0  0  0  0  0  0  0  0  # atno 27256 bound_to 18266

> <Gold.Score>
     Fitness  S(hb_ext) S(vdw_ext)  S(hb_int)    S(int)      intcor
     34.06       6.23      21.01       0.00      -1.06      -0.76

> <Gold.Goldscore.Fitness>
34.0558

> <Gold.Goldscore.Internal.Vdw>
-1.2101

> <Gold.Goldscore.Internal.Torsion>
-0.6090

> <Gold.Goldscore.External.Vdw>
21.0057

> <Gold.Goldscore.Internal.HBond>
0.0000

> <Gold.Goldscore.External.HBond>
6.2335

> <Gold.Goldscore.Internal.Correction>
-0.7585

> <Gold.Goldscore.Hbonds>
donor molecule, donor type, donor heavy atom, donor atom, acceptor molecule, acceptor atom, score
      P1  H 11671 11743       L1    17  0.31
      P1  H 19323 19359       L1    17  0.11
      L1  H    10    23       P1 18996  0.62

> <Gold.Goldscore.Internal.Vdw.Weighted>
-1.2101

> <Gold.Goldscore.Internal.Torsion.Weighted>
-0.6090

> <Gold.Goldscore.External.Vdw.Weighted>
28.8828

> <Gold.Goldscore.Internal.HBond.Weighted>
0.0000

> <Gold.Goldscore.External.HBond.Weighted>
6.2335

> <Gold.Goldscore.Internal.Correction.Weighted>
-0.7585

> <Gold.Rescore>
     Score     S(PLP)   S(hbond)     S(cho)   S(metal)  DE(clash)   DE(tors)     intcor
     20.45     -14.80       2.48       0.00       0.00       0.60       0.60       ----

> <Gold.PLP.Fitness>
20.4465

> <Gold.PLP.PLP>
-14.8034

> <Gold.PLP.part.hbond>
-4.0000

> <Gold.PLP.part.metal>
0.0000

> <Gold.PLP.part.buried>
11.0095

> <Gold.PLP.part.nonpolar>
-27.3176

> <Gold.PLP.part.repulsive>
4.5867

> <Gold.PLP.ligand.clash>
0.6000

> <Gold.PLP.ligand.torsion>
0.5985

> <Gold.PLP.Chemscore.Hbond>
2.4800

> <Gold.PLP.Chemscore.CHOScore>
0.0000

> <Gold.PLP.Chemscore.Metal>
0.0000

> <Gold.Chemscore.Hbonds>
donor molecule, donor type, donor heavy atom, donor atom, acceptor molecule, acceptor atom, score
      L1  H    10    23       P1 18996  0.70
      P1  H 11671 11743       L1    17  0.34
      P1  H 19323 19359       L1    17  1.00

> <Gold.PLP.Chemscore.Internal.Correction>
   9.000000E+99

#       Name:                CT1002167954
#       Creating user name   hitesit
#       Creation time:       Sun Apr 16 22:52:57 2023


#       File generated by GOLD software.
#

@<TRIPOS>MOLECULE
CT1002167954|ligand_prepared|mol2|1|dock9
    29    30     1
SMALL
NO_CHARGES


@<TRIPOS>ATOM
      1 C1         208.5902  28.0958  70.8767 C.3            1 RES1               0.0000
      2 C2         208.4116  29.6258  70.7991 C.ar           1 RES1               0.0000
      3 C3         207.6396  27.6082  71.9661 C.2            1 RES1               0.0000
      4 C4         208.2710  27.5580  69.4861 C.2            1 RES1               0.0000
      5 C5         210.0257  27.6521  71.2426 C.3            1 RES1               0.0000
      6 C6         209.2861  30.4041  70.0466 C.ar           1 RES1               0.0000
      7 C7         207.3774  30.2718  71.4713 C.ar           1 RES1               0.0000
      8 N8         206.5114  26.9508  71.5725 N.am           1 RES1               0.0000
      9 O9         207.8568  27.8317  73.1507 O.2            1 RES1               0.0000
     10 N10        207.1670  26.7587  69.3447 N.am           1 RES1               0.0000
     11 O11        208.9561  27.8328  68.5087 O.2            1 RES1               0.0000
     12 C12        210.1720  26.1515  71.4401 C.3            1 RES1               0.0000
     13 C13        209.1306  31.7780  69.9664 C.ar           1 RES1               0.0000
     14 C14        207.2239  31.6459  71.3899 C.ar           1 RES1               0.0000
     15 C15        206.2554  26.4558  70.3191 C.2            1 RES1               0.0000
     16 C16        208.0993  32.3998  70.6376 C.ar           1 RES1               0.0000
     17 O17        205.2575  25.7745  70.1018 O.2            1 RES1               0.0000
     18 H18        210.7081  27.9715  70.4453 H              1 RES1               0.0000
     19 H19        210.3279  28.1608  72.1663 H              1 RES1               0.0000
     20 H20        210.1050  29.9327  69.5136 H              1 RES1               0.0000
     21 H21        206.6773  29.6990  72.0700 H              1 RES1               0.0000
     22 H22        205.7915  26.8147  72.2750 H              1 RES1               0.0000
     23 H23        207.0103  26.3517  68.4281 H              1 RES1               0.0000
     24 H24        211.1980  25.8942  71.6951 H              1 RES1               0.0000
     25 H25        209.5258  25.8033  72.2432 H              1 RES1               0.0000
     26 H26        209.9037  25.6150  70.5323 H              1 RES1               0.0000
     27 H27        209.8231  32.3669  69.3741 H              1 RES1               0.0000
     28 H28        206.4112  32.1311  71.9203 H              1 RES1               0.0000
     29 H29        207.9776  33.4761  70.5743 H              1 RES1               0.0000
@<TRIPOS>BOND
    1    1    2 1     
    2    1    3 1     
    3    1    4 1     
    4    1    5 1     
    5    2    6 ar    
    6    2    7 ar    
    7    3    8 1     
    8    3    9 2     
    9    4   10 1     
   10    4   11 2     
   11    5   12 1     
   12    5   18 1     
   13    5   19 1     
   14    6   13 ar    
   15    6   20 1     
   16    7   14 ar    
   17    7   21 1     
   18    8   15 1     
   19    8   22 1     
   20   10   15 1     
   21   10   23 1     
   22   12   24 1     
   23   12   25 1     
   24   12   26 1     
   25   13   16 ar    
   26   13   27 1     
   27   14   16 ar    
   28   14   28 1     
   29   15   17 2     
   30   16   29 1     
@<TRIPOS>SUBSTRUCTURE
      1 RES1           1
@<TRIPOS>SET
DONOR_HYDROGENS      STATIC     ATOMS    <user>   **** ""
2 22 23
ATOM$RED        STATIC     ATOMS    COLORGROUP SYSTEM
2 22 23
@<TRIPOS>COMMENT
> <Gold.Version>
2022.3.0

> <Gold.Id.Protein>
unknown|4d1n_clean|pdb

> <Gold.Protein.RotatedTorsions>
[ 16986 16932 16931 16929 ] final   40.00 input   60.00 | X-H torsion
[ 18485 18440 18439 18437 ] final  -24.29 input   60.00 | X-H torsion
[ 10113 10082 10081 10078 ] final  138.81 input   59.99 | X-H torsion
[ 18288 18266 18265 18262 ] final -167.05 input   60.03 | X-H torsion
[ 18643 18615 18613 18610 ] final  143.74 input   59.98 | X-H torsion
[ 11435 11402 11401 11398 ] final -171.00 input   60.03 | X-H torsion

> <Gold.Protein.ActiveResidues>
 TRP414  CYS420  VAL421  GLY422  LEU460  SER462  SER482  GLN483  ILE485  ARG486 
 TYR487  ASP500  ASN503  TRP566  TYR567  LEU569  PRO570  ALA571  VAL572  SER573 
 ASN574  PHE589  SER590  GLY591  TRP592  TYR593  MET594  GLY595  THR596  GLU597 
 ILE598  GLY599  VAL600  ARG601  ASP602  TYR603  ARG608  ILE653  VAL654  TRP683 
 PRO687  HEM750  H4B760 

> <Gold.Protein.RotatedAtoms>
  205.2766   45.3530   68.7172 H   0  0  0  0  0  0  0  0  0  0  0  0  # atno 10113 bound_to 10082
  214.9567   28.0482   74.6646 H   0  0  0  0  0  0  0  0  0  0  0  0  # atno 11435 bound_to 11402
  209.2546   32.0420   76.9923 H   0  0  0  0  0  0  0  0  0  0  0  0  # atno 16986 bound_to 16932
  210.5574   42.4071   74.8160 H   0  0  0  0  0  0  0  0  0  0  0  0  # atno 18288 bound_to 18266
  205.9889   31.8517   75.7533 H   0  0  0  0  0  0  0  0  0  0  0  0  # atno 18485 bound_to 18440
  198.1327   29.6650   68.2206 H   0  0  0  0  0  0  0  0  0  0  0  0  # atno 18643 bound_to 18615
  207.8318   31.2536   76.9461 LP  0  0  0  0  0  0  0  0  0  0  0  0  # atno 27195 bound_to 16932
  209.0556   30.6826   77.8643 LP  0  0  0  0  0  0  0  0  0  0  0  0  # atno 27196 bound_to 16932
  205.8896   32.6694   77.1569 LP  0  0  0  0  0  0  0  0  0  0  0  0  # atno 27197 bound_to 18440
  206.7913   33.2567   75.9286 LP  0  0  0  0  0  0  0  0  0  0  0  0  # atno 27198 bound_to 18440
  205.3442   45.0080   70.3062 LP  0  0  0  0  0  0  0  0  0  0  0  0  # atno 27253 bound_to 10082
  205.9085   43.9367   69.2105 LP  0  0  0  0  0  0  0  0  0  0  0  0  # atno 27254 bound_to 10082
  209.5065   42.9652   73.7058 LP  0  0  0  0  0  0  0  0  0  0  0  0  # atno 27255 bound_to 18266
  211.0473   42.6314   73.2804 LP  0  0  0  0  0  0  0  0  0  0  0  0  # atno 27256 bound_to 18266

> <Gold.Score>
     Fitness  S(hb_ext) S(vdw_ext)  S(hb_int)    S(int)      intcor
     33.43       7.15      20.26       0.00      -1.58      -0.76

> <Gold.Goldscore.Fitness>
33.4257

> <Gold.Goldscore.Internal.Vdw>
-1.9237

> <Gold.Goldscore.Internal.Torsion>
-0.4125

> <Gold.Goldscore.External.Vdw>
20.2585

> <Gold.Goldscore.Internal.HBond>
0.0000

> <Gold.Goldscore.External.HBond>
7.1511

> <Gold.Goldscore.Internal.Correction>
-0.7553

> <Gold.Goldscore.Hbonds>
donor molecule, donor type, donor heavy atom, donor atom, acceptor molecule, acceptor atom, score
      P1  H 19322 19357       L1     9  0.02
      L1  H     8    22       P1 18995  0.18
      L1  H    10    23       P1 27071  0.99

> <Gold.Goldscore.Internal.Vdw.Weighted>
-1.9237

> <Gold.Goldscore.Internal.Torsion.Weighted>
-0.4125

> <Gold.Goldscore.External.Vdw.Weighted>
27.8555

> <Gold.Goldscore.Internal.HBond.Weighted>
0.0000

> <Gold.Goldscore.External.HBond.Weighted>
7.1511

> <Gold.Goldscore.Internal.Correction.Weighted>
-0.7553

> <Gold.Rescore>
     Score     S(PLP)   S(hbond)     S(cho)   S(metal)  DE(clash)   DE(tors)     intcor
     16.41     -15.39       0.84       0.00       0.00       1.19       0.15       ----

> <Gold.PLP.Fitness>
16.4130

> <Gold.PLP.PLP>
-15.3917

> <Gold.PLP.part.hbond>
-4.6251

> <Gold.PLP.part.metal>
0.0000

> <Gold.PLP.part.buried>
-0.7173

> <Gold.PLP.part.nonpolar>
-12.2304

> <Gold.PLP.part.repulsive>
0.5930

> <Gold.PLP.ligand.clash>
1.1947

> <Gold.PLP.ligand.torsion>
0.1460

> <Gold.PLP.Chemscore.Hbond>
0.8360

> <Gold.PLP.Chemscore.CHOScore>
0.0000

> <Gold.PLP.Chemscore.Metal>
0.0000

> <Gold.Chemscore.Hbonds>
donor molecule, donor type, donor heavy atom, donor atom, acceptor molecule, acceptor atom, score
      L1  H     8    22       P1 18995  0.45
      L1  H    10    23       P1 27071  0.39
      P1  H 19322 19357       L1     9  0.56

> <Gold.PLP.Chemscore.Internal.Correction>
   9.000000E+99

#       Name:                CT1002167954
#       Creating user name   hitesit
#       Creation time:       Sun Apr 16 22:52:52 2023


#       File generated by GOLD software.
#

@<TRIPOS>MOLECULE
CT1002167954|ligand_prepared|mol2|1|dock1
    29    30     1
SMALL
NO_CHARGES


@<TRIPOS>ATOM
      1 C1         209.1033  28.3175  70.2551 C.3            1 RES1               0.0000
      2 C2         208.9347  29.8311  70.0113 C.ar           1 RES1               0.0000
      3 C3         208.4176  28.0188  71.5851 C.2            1 RES1               0.0000
      4 C4         208.4687  27.6192  69.0575 C.2            1 RES1               0.0000
      5 C5         210.5775  27.8601  70.3489 C.3            1 RES1               0.0000
      6 C6         208.0744  30.5850  70.8039 C.ar           1 RES1               0.0000
      7 C7         209.6335  30.4868  69.0012 C.ar           1 RES1               0.0000
      8 N8         207.2198  27.3680  71.5464 N.am           1 RES1               0.0000
      9 O9         208.9014  28.3838  72.6496 O.2            1 RES1               0.0000
     10 N10        207.3495  26.8593  69.2761 N.am           1 RES1               0.0000
     11 O11        208.9181  27.7336  67.9238 O.2            1 RES1               0.0000
     12 C12        211.4501  28.7731  71.1958 C.3            1 RES1               0.0000
     13 C13        207.9205  31.9457  70.5962 C.ar           1 RES1               0.0000
     14 C14        209.4780  31.8476  68.7950 C.ar           1 RES1               0.0000
     15 C15        206.6785  26.7270  70.4611 C.2            1 RES1               0.0000
     16 C16        208.6224  32.5779  69.5920 C.ar           1 RES1               0.0000
     17 O17        205.6471  26.0694  70.5669 O.2            1 RES1               0.0000
     18 H18        210.6073  26.8493  70.7741 H              1 RES1               0.0000
     19 H19        210.9969  27.8104  69.3364 H              1 RES1               0.0000
     20 H20        207.5119  30.1044  71.5973 H              1 RES1               0.0000
     21 H21        210.3114  29.9321  68.3612 H              1 RES1               0.0000
     22 H22        206.6762  27.3570  72.4035 H              1 RES1               0.0000
     23 H23        206.9828  26.3446  68.4818 H              1 RES1               0.0000
     24 H24        212.4740  28.4068  71.2283 H              1 RES1               0.0000
     25 H25        211.4638  29.7814  70.7872 H              1 RES1               0.0000
     26 H26        211.0764  28.8260  72.2163 H              1 RES1               0.0000
     27 H27        207.2448  32.5158  71.2253 H              1 RES1               0.0000
     28 H28        210.0319  32.3409  68.0032 H              1 RES1               0.0000
     29 H29        208.5019  33.6440  69.4298 H              1 RES1               0.0000
@<TRIPOS>BOND
    1    1    2 1     
    2    1    3 1     
    3    1    4 1     
    4    1    5 1     
    5    2    6 ar    
    6    2    7 ar    
    7    3    8 1     
    8    3    9 2     
    9    4   10 1     
   10    4   11 2     
   11    5   12 1     
   12    5   18 1     
   13    5   19 1     
   14    6   13 ar    
   15    6   20 1     
   16    7   14 ar    
   17    7   21 1     
   18    8   15 1     
   19    8   22 1     
   20   10   15 1     
   21   10   23 1     
   22   12   24 1     
   23   12   25 1     
   24   12   26 1     
   25   13   16 ar    
   26   13   27 1     
   27   14   16 ar    
   28   14   28 1     
   29   15   17 2     
   30   16   29 1     
@<TRIPOS>SUBSTRUCTURE
      1 RES1           1
@<TRIPOS>SET
DONOR_HYDROGENS      STATIC     ATOMS    <user>   **** ""
2 22 23
ATOM$RED        STATIC     ATOMS    COLORGROUP SYSTEM
2 22 23
@<TRIPOS>COMMENT
> <Gold.Version>
2022.3.0

> <Gold.Id.Protein>
unknown|4d1n_clean|pdb

> <Gold.Protein.RotatedTorsions>
[ 16986 16932 16931 16929 ] final  -92.88 input   60.00 | X-H torsion
[ 18485 18440 18439 18437 ] final  -23.03 input   60.00 | X-H torsion
[ 10113 10082 10081 10078 ] final  -55.22 input   59.99 | X-H torsion
[ 18288 18266 18265 18262 ] final   15.10 input   60.03 | X-H torsion
[ 18643 18615 18613 18610 ] final   59.48 input   59.98 | X-H torsion
[ 11435 11402 11401 11398 ] final  120.84 input   60.03 | X-H torsion

> <Gold.Protein.ActiveResidues>
 TRP414  CYS420  VAL421  GLY422  LEU460  SER462  SER482  GLN483  ILE485  ARG486 
 TYR487  ASP500  ASN503  TRP566  TYR567  LEU569  PRO570  ALA571  VAL572  SER573 
 ASN574  PHE589  SER590  GLY591  TRP592  TYR593  MET594  GLY595  THR596  GLU597 
 ILE598  GLY599  VAL600  ARG601  ASP602  TYR603  ARG608  ILE653  VAL654  TRP683 
 PRO687  HEM750  H4B760 

> <Gold.Protein.RotatedAtoms>
  205.8166   44.0515   69.9295 H   0  0  0  0  0  0  0  0  0  0  0  0  # atno 10113 bound_to 10082
  214.2804   28.8439   74.5642 H   0  0  0  0  0  0  0  0  0  0  0  0  # atno 11435 bound_to 11402
  207.8338   31.0828   77.0695 H   0  0  0  0  0  0  0  0  0  0  0  0  # atno 16986 bound_to 16932
  210.1503   42.9314   73.0653 H   0  0  0  0  0  0  0  0  0  0  0  0  # atno 18288 bound_to 18266
  206.0003   31.8594   75.7379 H   0  0  0  0  0  0  0  0  0  0  0  0  # atno 18485 bound_to 18440
  198.8708   30.0585   69.1579 H   0  0  0  0  0  0  0  0  0  0  0  0  # atno 18643 bound_to 18615
  209.2309   30.8009   77.8547 LP  0  0  0  0  0  0  0  0  0  0  0  0  # atno 27195 bound_to 16932
  209.0880   32.1017   76.8780 LP  0  0  0  0  0  0  0  0  0  0  0  0  # atno 27196 bound_to 16932
  205.8795   32.6514   77.1544 LP  0  0  0  0  0  0  0  0  0  0  0  0  # atno 27197 bound_to 18440
  206.7899   33.2670   75.9466 LP  0  0  0  0  0  0  0  0  0  0  0  0  # atno 27198 bound_to 18440
  205.5788   44.7315   68.4702 LP  0  0  0  0  0  0  0  0  0  0  0  0  # atno 27253 bound_to 10082
  205.1303   45.5234   69.8261 LP  0  0  0  0  0  0  0  0  0  0  0  0  # atno 27254 bound_to 10082
  211.2456   42.3761   74.1331 LP  0  0  0  0  0  0  0  0  0  0  0  0  # atno 27255 bound_to 18266
  209.7181   42.6926   74.6159 LP  0  0  0  0  0  0  0  0  0  0  0  0  # atno 27256 bound_to 18266

> <Gold.Score>
     Fitness  S(hb_ext) S(vdw_ext)  S(hb_int)    S(int)      intcor
     31.93       8.19      20.06       0.00      -3.84      -0.76

> <Gold.Goldscore.Fitness>
31.9290

> <Gold.Goldscore.Internal.Vdw>
-3.8349

> <Gold.Goldscore.Internal.Torsion>
-0.7595

> <Gold.Goldscore.External.Vdw>
20.0569

> <Gold.Goldscore.Internal.HBond>
0.0000

> <Gold.Goldscore.External.HBond>
8.1867

> <Gold.Goldscore.Internal.Correction>
-0.7585

> <Gold.Goldscore.Hbonds>
donor molecule, donor type, donor heavy atom, donor atom, acceptor molecule, acceptor atom, score
      L1  H     8    22       P1 18995  0.36
      L1  H    10    23       P1 27071  1.00

> <Gold.Goldscore.Internal.Vdw.Weighted>
-3.8349

> <Gold.Goldscore.Internal.Torsion.Weighted>
-0.7595

> <Gold.Goldscore.External.Vdw.Weighted>
27.5782

> <Gold.Goldscore.Internal.HBond.Weighted>
0.0000

> <Gold.Goldscore.External.HBond.Weighted>
8.1867

> <Gold.Goldscore.Internal.Correction.Weighted>
-0.7585

> <Gold.Rescore>
     Score     S(PLP)   S(hbond)     S(cho)   S(metal)  DE(clash)   DE(tors)     intcor
     19.95     -20.31       0.69       0.00       0.00       2.03       0.20       ----

> <Gold.PLP.Fitness>
19.9480

> <Gold.PLP.PLP>
-20.3106

> <Gold.PLP.part.hbond>
-1.4431

> <Gold.PLP.part.metal>
0.0000

> <Gold.PLP.part.buried>
-0.6864

> <Gold.PLP.part.nonpolar>
-19.5204

> <Gold.PLP.part.repulsive>
1.3051

> <Gold.PLP.ligand.clash>
2.0281

> <Gold.PLP.ligand.torsion>
0.1993

> <Gold.PLP.Chemscore.Hbond>
0.6880

> <Gold.PLP.Chemscore.CHOScore>
0.0000

> <Gold.PLP.Chemscore.Metal>
0.0000

> <Gold.Chemscore.Hbonds>
donor molecule, donor type, donor heavy atom, donor atom, acceptor molecule, acceptor atom, score
      L1  H    10    23       P1 27071  0.28

> <Gold.PLP.Chemscore.Internal.Correction>
   9.000000E+99

#       Name:                CT1002167954
#       Creating user name   hitesit
#       Creation time:       Sun Apr 16 22:52:54 2023


#       File generated by GOLD software.
#

@<TRIPOS>MOLECULE
CT1002167954|ligand_prepared|mol2|1|dock5
    29    30     1
SMALL
NO_CHARGES


@<TRIPOS>ATOM
      1 C1         207.4294  28.1729  70.6579 C.3            1 RES1               0.0000
      2 C2         207.8740  29.6460  70.5527 C.ar           1 RES1               0.0000
      3 C3         205.9738  28.1963  71.1147 C.2            1 RES1               0.0000
      4 C4         207.6380  27.5646  69.2755 C.2            1 RES1               0.0000
      5 C5         208.2497  27.3437  71.6734 C.3            1 RES1               0.0000
      6 C6         209.1923  29.9681  70.2444 C.ar           1 RES1               0.0000
      7 C7         206.9783  30.6920  70.7584 C.ar           1 RES1               0.0000
      8 N8         205.0168  27.8939  70.1913 N.am           1 RES1               0.0000
      9 O9         205.6676  28.5137  72.2575 O.2            1 RES1               0.0000
     10 N10        206.5298  27.1604  68.5781 N.am           1 RES1               0.0000
     11 O11        208.7506  27.4471  68.7769 O.2            1 RES1               0.0000
     12 C12        208.1120  25.8404  71.4909 C.3            1 RES1               0.0000
     13 C13        209.5998  31.2879  70.1423 C.ar           1 RES1               0.0000
     14 C14        207.3879  32.0111  70.6561 C.ar           1 RES1               0.0000
     15 C15        205.2265  27.3256  68.9605 C.2            1 RES1               0.0000
     16 C16        208.6980  32.3102  70.3477 C.ar           1 RES1               0.0000
     17 O17        204.2821  26.9851  68.2540 O.2            1 RES1               0.0000
     18 H18        209.3082  27.6155  71.5780 H              1 RES1               0.0000
     19 H19        207.9259  27.6073  72.6879 H              1 RES1               0.0000
     20 H20        209.9168  29.1770  70.0819 H              1 RES1               0.0000
     21 H21        205.9429  30.4804  71.0032 H              1 RES1               0.0000
     22 H22        204.0565  28.1103  70.4387 H              1 RES1               0.0000
     23 H23        206.6915  26.6928  67.6917 H              1 RES1               0.0000
     24 H24        208.7073  25.3062  72.2284 H              1 RES1               0.0000
     25 H25        207.0749  25.5315  71.6043 H              1 RES1               0.0000
     26 H26        208.4489  25.5396  70.5010 H              1 RES1               0.0000
     27 H27        210.6322  31.5179  69.9007 H              1 RES1               0.0000
     28 H28        206.6749  32.8125  70.8191 H              1 RES1               0.0000
     29 H29        209.0173  33.3440  70.2673 H              1 RES1               0.0000
@<TRIPOS>BOND
    1    1    2 1     
    2    1    3 1     
    3    1    4 1     
    4    1    5 1     
    5    2    6 ar    
    6    2    7 ar    
    7    3    8 1     
    8    3    9 2     
    9    4   10 1     
   10    4   11 2     
   11    5   12 1     
   12    5   18 1     
   13    5   19 1     
   14    6   13 ar    
   15    6   20 1     
   16    7   14 ar    
   17    7   21 1     
   18    8   15 1     
   19    8   22 1     
   20   10   15 1     
   21   10   23 1     
   22   12   24 1     
   23   12   25 1     
   24   12   26 1     
   25   13   16 ar    
   26   13   27 1     
   27   14   16 ar    
   28   14   28 1     
   29   15   17 2     
   30   16   29 1     
@<TRIPOS>SUBSTRUCTURE
      1 RES1           1
@<TRIPOS>SET
DONOR_HYDROGENS      STATIC     ATOMS    <user>   **** ""
2 22 23
ATOM$RED        STATIC     ATOMS    COLORGROUP SYSTEM
2 22 23
@<TRIPOS>COMMENT
> <Gold.Version>
2022.3.0

> <Gold.Id.Protein>
unknown|4d1n_clean|pdb

> <Gold.Protein.RotatedTorsions>
[ 16986 16932 16931 16929 ] final  -96.95 input   60.00 | X-H torsion
[ 18485 18440 18439 18437 ] final   67.35 input   60.00 | X-H torsion
[ 10113 10082 10081 10078 ] final   53.92 input   59.99 | X-H torsion
[ 18288 18266 18265 18262 ] final  -29.58 input   60.03 | X-H torsion
[ 18643 18615 18613 18610 ] final  156.95 input   59.98 | X-H torsion
[ 11435 11402 11401 11398 ] final  -97.21 input   60.03 | X-H torsion

> <Gold.Protein.ActiveResidues>
 TRP414  CYS420  VAL421  GLY422  LEU460  SER462  SER482  GLN483  ILE485  ARG486 
 TYR487  ASP500  ASN503  TRP566  TYR567  LEU569  PRO570  ALA571  VAL572  SER573 
 ASN574  PHE589  SER590  GLY591  TRP592  TYR593  MET594  GLY595  THR596  GLU597 
 ILE598  GLY599  VAL600  ARG601  ASP602  TYR603  ARG608  ILE653  VAL654  TRP683 
 PRO687  HEM750  H4B760 

> <Gold.Protein.RotatedAtoms>
  205.1677   45.4319   69.9740 H   0  0  0  0  0  0  0  0  0  0  0  0  # atno 10113 bound_to 10082
  215.8088   28.3724   75.3220 H   0  0  0  0  0  0  0  0  0  0  0  0  # atno 11435 bound_to 11402
  207.8418   31.0305   77.1097 H   0  0  0  0  0  0  0  0  0  0  0  0  # atno 16986 bound_to 16932
  210.8297   42.7270   73.1221 H   0  0  0  0  0  0  0  0  0  0  0  0  # atno 18288 bound_to 18266
  206.7452   32.9492   75.5890 H   0  0  0  0  0  0  0  0  0  0  0  0  # atno 18485 bound_to 18440
  197.9370   29.7288   68.1577 H   0  0  0  0  0  0  0  0  0  0  0  0  # atno 18643 bound_to 18615
  209.2811   30.8440   77.8455 LP  0  0  0  0  0  0  0  0  0  0  0  0  # atno 27195 bound_to 16932
  209.0296   32.1112   76.8467 LP  0  0  0  0  0  0  0  0  0  0  0  0  # atno 27196 bound_to 16932
  205.7695   31.7740   76.1506 LP  0  0  0  0  0  0  0  0  0  0  0  0  # atno 27197 bound_to 18440
  206.1497   33.0468   77.1004 LP  0  0  0  0  0  0  0  0  0  0  0  0  # atno 27198 bound_to 18440
  205.8595   43.9722   69.7761 LP  0  0  0  0  0  0  0  0  0  0  0  0  # atno 27253 bound_to 10082
  205.5029   44.8929   68.4754 LP  0  0  0  0  0  0  0  0  0  0  0  0  # atno 27254 bound_to 10082
  210.8178   42.3618   74.7079 LP  0  0  0  0  0  0  0  0  0  0  0  0  # atno 27255 bound_to 18266
  209.4618   42.9127   73.9838 LP  0  0  0  0  0  0  0  0  0  0  0  0  # atno 27256 bound_to 18266

> <Gold.Score>
     Fitness  S(hb_ext) S(vdw_ext)  S(hb_int)    S(int)      intcor
     30.06       6.00      20.54       0.00      -4.18      -0.76

> <Gold.Goldscore.Fitness>
30.0635

> <Gold.Goldscore.Internal.Vdw>
-4.1273

> <Gold.Goldscore.Internal.Torsion>
-0.8117

> <Gold.Goldscore.External.Vdw>
20.5410

> <Gold.Goldscore.Internal.HBond>
0.0000

> <Gold.Goldscore.External.HBond>
6.0000

> <Gold.Goldscore.Internal.Correction>
-0.7585

> <Gold.Goldscore.Hbonds>
donor molecule, donor type, donor heavy atom, donor atom, acceptor molecule, acceptor atom, score
      L1  H    10    23       P1 27071  1.00

> <Gold.Goldscore.Internal.Vdw.Weighted>
-4.1273

> <Gold.Goldscore.Internal.Torsion.Weighted>
-0.8117

> <Gold.Goldscore.External.Vdw.Weighted>
28.2439

> <Gold.Goldscore.Internal.HBond.Weighted>
0.0000

> <Gold.Goldscore.External.HBond.Weighted>
6.0000

> <Gold.Goldscore.Internal.Correction.Weighted>
-0.7585

> <Gold.Rescore>
     Score     S(PLP)   S(hbond)     S(cho)   S(metal)  DE(clash)   DE(tors)     intcor
     21.23     -18.79       1.37       0.00       0.00       1.25       0.22       ----

> <Gold.PLP.Fitness>
21.2293

> <Gold.PLP.PLP>
-18.7873

> <Gold.PLP.part.hbond>
-3.6951

> <Gold.PLP.part.metal>
0.0000

> <Gold.PLP.part.buried>
-5.6348

> <Gold.PLP.part.nonpolar>
-10.9559

> <Gold.PLP.part.repulsive>
0.6243

> <Gold.PLP.ligand.clash>
1.2481

> <Gold.PLP.ligand.torsion>
0.2152

> <Gold.PLP.Chemscore.Hbond>
1.3735

> <Gold.PLP.Chemscore.CHOScore>
0.0000

> <Gold.PLP.Chemscore.Metal>
0.0000

> <Gold.Chemscore.Hbonds>
donor molecule, donor type, donor heavy atom, donor atom, acceptor molecule, acceptor atom, score
      L1  H    10    23       P1 27071  1.00
      P1  H 18902 18947       L1    17  0.08

> <Gold.PLP.Chemscore.Internal.Correction>
   9.000000E+99

