#       Name:                GA Fitting Points
#       Creating user name   hitesit
#       Creation time:       Sun Apr 16 22:52:46 2023


#       Fitting Points Used by GA Software.
#

@<TRIPOS>MOLECULE
GA Fitting Points
  5070    0    0
SMALL
NO_CHARGES


@<TRIPOS>ATOM
      1 ****       200.7500  30.0000  64.7500 Du        
      2 ****       200.7500  30.0000  65.0000 Du        
      3 ****       200.7500  30.0000  65.2500 Du        
      4 ****       200.7500  30.0000  65.5000 Du        
      5 ****       200.7500  30.2500  64.5000 Du        
      6 ****       200.7500  30.2500  64.7500 Du        
      7 ****       200.7500  30.2500  65.0000 Du        
      8 ****       200.7500  30.5000  64.5000 Du        
      9 ****       200.7500  30.5000  64.7500 Du        
     10 ****       200.7500  30.7500  64.2500 Du        
     11 ****       200.7500  30.7500  64.5000 Du        
     12 ****       200.7500  31.0000  64.2500 Du        
     13 ****       200.7500  31.2500  64.0000 Du        
     14 ****       200.7500  31.2500  64.2500 Du        
     15 ****       200.7500  31.5000  64.0000 Du        
     16 ****       200.7500  31.7500  64.0000 Du        
     17 ****       201.0000  29.2500  67.7500 Du        
     18 ****       201.0000  29.2500  68.0000 Du        
     19 ****       201.0000  29.5000  67.0000 Du        
     20 ****       201.0000  29.5000  67.2500 Du        
     21 ****       201.0000  29.5000  67.5000 Du        
     22 ****       201.0000  29.5000  67.7500 Du        
     23 ****       201.0000  29.7500  65.2500 Du        
     24 ****       201.0000  29.7500  65.5000 Du        
     25 ****       201.0000  29.7500  65.7500 Du        
     26 ****       201.0000  29.7500  66.0000 Du        
     27 ****       201.0000  29.7500  66.2500 Du        
     28 ****       201.0000  29.7500  66.5000 Du        
     29 ****       201.0000  29.7500  66.7500 Du        
     30 ****       201.0000  29.7500  67.0000 Du        
     31 ****       201.0000  29.7500  67.2500 Du        
     32 ****       201.0000  29.7500  67.5000 Du        
     33 ****       201.0000  29.7500  67.7500 Du        
     34 ****       201.0000  30.0000  65.0000 Du        
     35 ****       201.0000  30.0000  65.2500 Du        
     36 ****       201.0000  30.0000  65.5000 Du        
     37 ****       201.0000  30.0000  65.7500 Du        
     38 ****       201.0000  30.0000  66.0000 Du        
     39 ****       201.0000  30.0000  66.2500 Du        
     40 ****       201.0000  30.0000  66.5000 Du        
     41 ****       201.0000  30.0000  66.7500 Du        
     42 ****       201.0000  30.0000  67.0000 Du        
     43 ****       201.0000  30.0000  67.2500 Du        
     44 ****       201.0000  30.2500  64.7500 Du        
     45 ****       201.0000  30.2500  65.0000 Du        
     46 ****       201.0000  30.2500  65.2500 Du        
     47 ****       201.0000  30.2500  65.5000 Du        
     48 ****       201.0000  30.2500  65.7500 Du        
     49 ****       201.0000  30.5000  64.5000 Du        
     50 ****       201.0000  30.5000  64.7500 Du        
     51 ****       201.0000  30.5000  65.0000 Du        
     52 ****       201.0000  30.7500  64.2500 Du        
     53 ****       201.0000  30.7500  64.5000 Du        
     54 ****       201.0000  30.7500  64.7500 Du        
     55 ****       201.0000  31.0000  64.2500 Du        
     56 ****       201.0000  31.0000  64.5000 Du        
     57 ****       201.0000  31.2500  64.0000 Du        
     58 ****       201.0000  31.2500  64.2500 Du        
     59 ****       201.0000  31.2500  64.5000 Du        
     60 ****       201.0000  31.5000  64.0000 Du        
     61 ****       201.0000  31.5000  64.2500 Du        
     62 ****       201.0000  31.7500  63.7500 Du        
     63 ****       201.0000  31.7500  64.0000 Du        
     64 ****       201.0000  31.7500  64.2500 Du        
     65 ****       201.0000  32.0000  63.7500 Du        
     66 ****       201.0000  32.0000  64.0000 Du        
     67 ****       201.2500  28.7500  68.0000 Du        
     68 ****       201.2500  28.7500  68.2500 Du        
     69 ****       201.2500  29.0000  67.5000 Du        
     70 ****       201.2500  29.0000  67.7500 Du        
     71 ****       201.2500  29.0000  68.0000 Du        
     72 ****       201.2500  29.0000  68.2500 Du        
     73 ****       201.2500  29.2500  66.7500 Du        
     74 ****       201.2500  29.2500  67.0000 Du        
     75 ****       201.2500  29.2500  67.2500 Du        
     76 ****       201.2500  29.2500  67.5000 Du        
     77 ****       201.2500  29.2500  67.7500 Du        
     78 ****       201.2500  29.2500  68.0000 Du        
     79 ****       201.2500  29.2500  68.2500 Du        
     80 ****       201.2500  29.5000  66.0000 Du        
     81 ****       201.2500  29.5000  66.2500 Du        
     82 ****       201.2500  29.5000  66.5000 Du        
     83 ****       201.2500  29.5000  66.7500 Du        
     84 ****       201.2500  29.5000  67.0000 Du        
     85 ****       201.2500  29.5000  67.2500 Du        
     86 ****       201.2500  29.5000  67.5000 Du        
     87 ****       201.2500  29.5000  67.7500 Du        
     88 ****       201.2500  29.5000  68.0000 Du        
     89 ****       201.2500  29.7500  65.5000 Du        
     90 ****       201.2500  29.7500  65.7500 Du        
     91 ****       201.2500  29.7500  66.0000 Du        
     92 ****       201.2500  29.7500  66.2500 Du        
     93 ****       201.2500  29.7500  66.5000 Du        
     94 ****       201.2500  29.7500  66.7500 Du        
     95 ****       201.2500  29.7500  67.0000 Du        
     96 ****       201.2500  29.7500  67.2500 Du        
     97 ****       201.2500  29.7500  67.5000 Du        
     98 ****       201.2500  29.7500  67.7500 Du        
     99 ****       201.2500  29.7500  68.0000 Du        
    100 ****       201.2500  30.0000  65.2500 Du        
    101 ****       201.2500  30.0000  65.5000 Du        
    102 ****       201.2500  30.0000  65.7500 Du        
    103 ****       201.2500  30.0000  66.0000 Du        
    104 ****       201.2500  30.0000  66.2500 Du        
    105 ****       201.2500  30.0000  66.5000 Du        
    106 ****       201.2500  30.0000  66.7500 Du        
    107 ****       201.2500  30.0000  67.0000 Du        
    108 ****       201.2500  30.0000  67.2500 Du        
    109 ****       201.2500  30.0000  67.5000 Du        
    110 ****       201.2500  30.0000  67.7500 Du        
    111 ****       201.2500  30.2500  65.0000 Du        
    112 ****       201.2500  30.2500  65.2500 Du        
    113 ****       201.2500  30.2500  65.5000 Du        
    114 ****       201.2500  30.2500  65.7500 Du        
    115 ****       201.2500  30.2500  66.0000 Du        
    116 ****       201.2500  30.2500  66.2500 Du        
    117 ****       201.2500  30.5000  64.7500 Du        
    118 ****       201.2500  30.5000  65.0000 Du        
    119 ****       201.2500  30.5000  65.2500 Du        
    120 ****       201.2500  30.7500  64.5000 Du        
    121 ****       201.2500  30.7500  64.7500 Du        
    122 ****       201.2500  30.7500  65.0000 Du        
    123 ****       201.2500  31.0000  64.2500 Du        
    124 ****       201.2500  31.0000  64.5000 Du        
    125 ****       201.2500  31.0000  64.7500 Du        
    126 ****       201.2500  31.2500  64.2500 Du        
    127 ****       201.2500  31.2500  64.5000 Du        
    128 ****       201.2500  31.5000  64.0000 Du        
    129 ****       201.2500  31.5000  64.2500 Du        
    130 ****       201.2500  31.7500  63.7500 Du        
    131 ****       201.2500  31.7500  64.0000 Du        
    132 ****       201.2500  31.7500  64.2500 Du        
    133 ****       201.2500  32.0000  63.7500 Du        
    134 ****       201.2500  32.0000  64.0000 Du        
    135 ****       201.5000  28.5000  67.7500 Du        
    136 ****       201.5000  28.5000  68.0000 Du        
    137 ****       201.5000  28.7500  67.2500 Du        
    138 ****       201.5000  28.7500  67.5000 Du        
    139 ****       201.5000  28.7500  67.7500 Du        
    140 ****       201.5000  28.7500  68.0000 Du        
    141 ****       201.5000  28.7500  68.2500 Du        
    142 ****       201.5000  28.7500  68.5000 Du        
    143 ****       201.5000  29.0000  66.7500 Du        
    144 ****       201.5000  29.0000  67.0000 Du        
    145 ****       201.5000  29.0000  67.2500 Du        
    146 ****       201.5000  29.0000  67.5000 Du        
    147 ****       201.5000  29.0000  67.7500 Du        
    148 ****       201.5000  29.0000  68.0000 Du        
    149 ****       201.5000  29.0000  68.2500 Du        
    150 ****       201.5000  29.2500  66.2500 Du        
    151 ****       201.5000  29.2500  66.5000 Du        
    152 ****       201.5000  29.2500  66.7500 Du        
    153 ****       201.5000  29.2500  67.0000 Du        
    154 ****       201.5000  29.2500  67.2500 Du        
    155 ****       201.5000  29.2500  67.5000 Du        
    156 ****       201.5000  29.2500  67.7500 Du        
    157 ****       201.5000  29.2500  68.0000 Du        
    158 ****       201.5000  29.2500  68.2500 Du        
    159 ****       201.5000  29.5000  66.2500 Du        
    160 ****       201.5000  29.5000  66.5000 Du        
    161 ****       201.5000  29.5000  66.7500 Du        
    162 ****       201.5000  29.5000  67.0000 Du        
    163 ****       201.5000  29.5000  67.2500 Du        
    164 ****       201.5000  29.5000  67.5000 Du        
    165 ****       201.5000  29.5000  67.7500 Du        
    166 ****       201.5000  29.5000  68.0000 Du        
    167 ****       201.5000  29.7500  66.0000 Du        
    168 ****       201.5000  29.7500  66.2500 Du        
    169 ****       201.5000  29.7500  66.5000 Du        
    170 ****       201.5000  29.7500  66.7500 Du        
    171 ****       201.5000  29.7500  67.0000 Du        
    172 ****       201.5000  29.7500  67.2500 Du        
    173 ****       201.5000  29.7500  67.5000 Du        
    174 ****       201.5000  29.7500  67.7500 Du        
    175 ****       201.5000  30.0000  65.7500 Du        
    176 ****       201.5000  30.0000  66.0000 Du        
    177 ****       201.5000  30.0000  66.2500 Du        
    178 ****       201.5000  30.0000  66.5000 Du        
    179 ****       201.5000  30.0000  66.7500 Du        
    180 ****       201.5000  30.0000  67.0000 Du        
    181 ****       201.5000  30.0000  67.2500 Du        
    182 ****       201.5000  30.0000  67.5000 Du        
    183 ****       201.5000  30.0000  67.7500 Du        
    184 ****       201.5000  30.2500  65.7500 Du        
    185 ****       201.5000  30.2500  66.0000 Du        
    186 ****       201.5000  30.2500  66.2500 Du        
    187 ****       201.5000  30.2500  66.5000 Du        
    188 ****       201.5000  30.2500  66.7500 Du        
    189 ****       201.5000  30.2500  67.0000 Du        
    190 ****       201.5000  30.2500  67.2500 Du        
    191 ****       201.5000  31.2500  64.2500 Du        
    192 ****       201.5000  31.2500  64.5000 Du        
    193 ****       201.5000  31.5000  64.0000 Du        
    194 ****       201.5000  31.5000  64.2500 Du        
    195 ****       201.5000  31.7500  63.7500 Du        
    196 ****       201.5000  31.7500  64.0000 Du        
    197 ****       201.5000  31.7500  64.2500 Du        
    198 ****       201.5000  32.0000  63.7500 Du        
    199 ****       201.5000  32.0000  64.0000 Du        
    200 ****       201.7500  28.2500  67.2500 Du        
    201 ****       201.7500  28.2500  67.5000 Du        
    202 ****       201.7500  28.2500  67.7500 Du        
    203 ****       201.7500  28.2500  68.0000 Du        
    204 ****       201.7500  28.5000  67.0000 Du        
    205 ****       201.7500  28.5000  67.2500 Du        
    206 ****       201.7500  28.5000  67.5000 Du        
    207 ****       201.7500  28.5000  67.7500 Du        
    208 ****       201.7500  28.5000  68.0000 Du        
    209 ****       201.7500  28.5000  68.2500 Du        
    210 ****       201.7500  28.5000  68.5000 Du        
    211 ****       201.7500  28.7500  66.7500 Du        
    212 ****       201.7500  28.7500  67.0000 Du        
    213 ****       201.7500  28.7500  67.2500 Du        
    214 ****       201.7500  28.7500  67.5000 Du        
    215 ****       201.7500  28.7500  67.7500 Du        
    216 ****       201.7500  28.7500  68.0000 Du        
    217 ****       201.7500  28.7500  68.2500 Du        
    218 ****       201.7500  28.7500  68.5000 Du        
    219 ****       201.7500  29.0000  66.5000 Du        
    220 ****       201.7500  29.0000  66.7500 Du        
    221 ****       201.7500  29.0000  67.0000 Du        
    222 ****       201.7500  29.0000  67.2500 Du        
    223 ****       201.7500  29.0000  67.5000 Du        
    224 ****       201.7500  29.0000  67.7500 Du        
    225 ****       201.7500  29.0000  68.0000 Du        
    226 ****       201.7500  29.0000  68.2500 Du        
    227 ****       201.7500  29.2500  66.5000 Du        
    228 ****       201.7500  29.2500  66.7500 Du        
    229 ****       201.7500  29.2500  67.0000 Du        
    230 ****       201.7500  29.2500  67.2500 Du        
    231 ****       201.7500  29.2500  67.5000 Du        
    232 ****       201.7500  29.2500  67.7500 Du        
    233 ****       201.7500  29.2500  68.0000 Du        
    234 ****       201.7500  29.2500  68.2500 Du        
    235 ****       201.7500  29.5000  66.5000 Du        
    236 ****       201.7500  29.5000  66.7500 Du        
    237 ****       201.7500  29.5000  67.0000 Du        
    238 ****       201.7500  29.5000  67.2500 Du        
    239 ****       201.7500  29.5000  67.5000 Du        
    240 ****       201.7500  29.5000  67.7500 Du        
    241 ****       201.7500  29.5000  68.0000 Du        
    242 ****       201.7500  29.7500  66.2500 Du        
    243 ****       201.7500  29.7500  66.5000 Du        
    244 ****       201.7500  29.7500  66.7500 Du        
    245 ****       201.7500  29.7500  67.0000 Du        
    246 ****       201.7500  29.7500  67.2500 Du        
    247 ****       201.7500  29.7500  67.5000 Du        
    248 ****       201.7500  29.7500  67.7500 Du        
    249 ****       201.7500  30.0000  66.2500 Du        
    250 ****       201.7500  30.0000  66.5000 Du        
    251 ****       201.7500  30.0000  66.7500 Du        
    252 ****       201.7500  30.0000  67.0000 Du        
    253 ****       201.7500  30.0000  67.2500 Du        
    254 ****       201.7500  30.0000  67.5000 Du        
    255 ****       201.7500  30.2500  66.7500 Du        
    256 ****       201.7500  30.2500  67.0000 Du        
    257 ****       201.7500  30.2500  67.2500 Du        
    258 ****       201.7500  31.7500  64.0000 Du        
    259 ****       201.7500  32.0000  63.7500 Du        
    260 ****       201.7500  32.0000  64.0000 Du        
    261 ****       202.0000  27.7500  67.0000 Du        
    262 ****       202.0000  27.7500  67.2500 Du        
    263 ****       202.0000  28.0000  66.7500 Du        
    264 ****       202.0000  28.0000  67.0000 Du        
    265 ****       202.0000  28.0000  67.2500 Du        
    266 ****       202.0000  28.0000  67.5000 Du        
    267 ****       202.0000  28.0000  67.7500 Du        
    268 ****       202.0000  28.0000  68.0000 Du        
    269 ****       202.0000  28.2500  66.7500 Du        
    270 ****       202.0000  28.2500  67.0000 Du        
    271 ****       202.0000  28.2500  67.2500 Du        
    272 ****       202.0000  28.2500  67.5000 Du        
    273 ****       202.0000  28.2500  67.7500 Du        
    274 ****       202.0000  28.2500  68.0000 Du        
    275 ****       202.0000  28.2500  68.2500 Du        
    276 ****       202.0000  28.5000  66.7500 Du        
    277 ****       202.0000  28.5000  67.0000 Du        
    278 ****       202.0000  28.5000  67.2500 Du        
    279 ****       202.0000  28.5000  67.5000 Du        
    280 ****       202.0000  28.5000  67.7500 Du        
    281 ****       202.0000  28.5000  68.0000 Du        
    282 ****       202.0000  28.5000  68.2500 Du        
    283 ****       202.0000  28.5000  68.5000 Du        
    284 ****       202.0000  28.7500  66.7500 Du        
    285 ****       202.0000  28.7500  67.0000 Du        
    286 ****       202.0000  28.7500  67.2500 Du        
    287 ****       202.0000  28.7500  67.5000 Du        
    288 ****       202.0000  28.7500  67.7500 Du        
    289 ****       202.0000  28.7500  68.0000 Du        
    290 ****       202.0000  28.7500  68.2500 Du        
    291 ****       202.0000  28.7500  68.5000 Du        
    292 ****       202.0000  29.0000  66.7500 Du        
    293 ****       202.0000  29.0000  67.0000 Du        
    294 ****       202.0000  29.0000  67.2500 Du        
    295 ****       202.0000  29.0000  67.5000 Du        
    296 ****       202.0000  29.0000  67.7500 Du        
    297 ****       202.0000  29.0000  68.0000 Du        
    298 ****       202.0000  29.0000  68.2500 Du        
    299 ****       202.0000  29.2500  66.7500 Du        
    300 ****       202.0000  29.2500  67.0000 Du        
    301 ****       202.0000  29.2500  67.2500 Du        
    302 ****       202.0000  29.2500  67.5000 Du        
    303 ****       202.0000  29.2500  67.7500 Du        
    304 ****       202.0000  29.2500  68.0000 Du        
    305 ****       202.0000  29.5000  66.7500 Du        
    306 ****       202.0000  29.5000  67.0000 Du        
    307 ****       202.0000  29.5000  67.2500 Du        
    308 ****       202.0000  29.5000  67.5000 Du        
    309 ****       202.0000  29.5000  67.7500 Du        
    310 ****       202.0000  29.7500  66.7500 Du        
    311 ****       202.0000  29.7500  67.0000 Du        
    312 ****       202.0000  29.7500  67.2500 Du        
    313 ****       202.0000  29.7500  67.5000 Du        
    314 ****       202.0000  30.0000  66.7500 Du        
    315 ****       202.0000  30.0000  67.0000 Du        
    316 ****       202.0000  30.0000  67.2500 Du        
    317 ****       202.0000  30.0000  67.5000 Du        
    318 ****       202.0000  31.7500  64.0000 Du        
    319 ****       202.0000  32.0000  63.7500 Du        
    320 ****       202.0000  32.0000  64.0000 Du        
    321 ****       202.0000  32.2500  63.7500 Du        
    322 ****       202.2500  27.5000  67.0000 Du        
    323 ****       202.2500  27.5000  67.2500 Du        
    324 ****       202.2500  27.7500  67.0000 Du        
    325 ****       202.2500  27.7500  67.2500 Du        
    326 ****       202.2500  27.7500  67.5000 Du        
    327 ****       202.2500  28.0000  67.0000 Du        
    328 ****       202.2500  28.0000  67.2500 Du        
    329 ****       202.2500  28.0000  67.5000 Du        
    330 ****       202.2500  28.0000  67.7500 Du        
    331 ****       202.2500  28.0000  68.0000 Du        
    332 ****       202.2500  28.2500  67.0000 Du        
    333 ****       202.2500  28.2500  67.2500 Du        
    334 ****       202.2500  28.2500  67.5000 Du        
    335 ****       202.2500  28.2500  67.7500 Du        
    336 ****       202.2500  28.2500  68.0000 Du        
    337 ****       202.2500  28.2500  68.2500 Du        
    338 ****       202.2500  28.5000  67.0000 Du        
    339 ****       202.2500  28.5000  67.2500 Du        
    340 ****       202.2500  28.5000  67.5000 Du        
    341 ****       202.2500  28.5000  67.7500 Du        
    342 ****       202.2500  28.5000  68.0000 Du        
    343 ****       202.2500  28.5000  68.2500 Du        
    344 ****       202.2500  28.5000  68.5000 Du        
    345 ****       202.2500  28.7500  67.0000 Du        
    346 ****       202.2500  28.7500  67.2500 Du        
    347 ****       202.2500  28.7500  67.5000 Du        
    348 ****       202.2500  28.7500  67.7500 Du        
    349 ****       202.2500  28.7500  68.0000 Du        
    350 ****       202.2500  28.7500  68.2500 Du        
    351 ****       202.2500  29.0000  67.0000 Du        
    352 ****       202.2500  29.0000  67.2500 Du        
    353 ****       202.2500  29.0000  67.5000 Du        
    354 ****       202.2500  29.0000  67.7500 Du        
    355 ****       202.2500  29.0000  68.0000 Du        
    356 ****       202.2500  29.0000  68.2500 Du        
    357 ****       202.2500  29.2500  67.0000 Du        
    358 ****       202.2500  29.2500  67.2500 Du        
    359 ****       202.2500  29.2500  67.5000 Du        
    360 ****       202.2500  29.2500  67.7500 Du        
    361 ****       202.2500  29.2500  68.0000 Du        
    362 ****       202.2500  29.5000  67.0000 Du        
    363 ****       202.2500  29.5000  67.2500 Du        
    364 ****       202.2500  29.5000  67.5000 Du        
    365 ****       202.2500  29.5000  67.7500 Du        
    366 ****       202.2500  29.7500  67.2500 Du        
    367 ****       202.2500  29.7500  67.5000 Du        
    368 ****       202.2500  32.0000  63.7500 Du        
    369 ****       202.2500  32.0000  64.0000 Du        
    370 ****       202.2500  32.2500  63.5000 Du        
    371 ****       202.2500  32.2500  63.7500 Du        
    372 ****       202.5000  27.7500  67.0000 Du        
    373 ****       202.5000  27.7500  67.2500 Du        
    374 ****       202.5000  27.7500  67.5000 Du        
    375 ****       202.5000  28.0000  67.0000 Du        
    376 ****       202.5000  28.0000  67.2500 Du        
    377 ****       202.5000  28.0000  67.5000 Du        
    378 ****       202.5000  28.0000  67.7500 Du        
    379 ****       202.5000  28.0000  68.0000 Du        
    380 ****       202.5000  28.2500  67.2500 Du        
    381 ****       202.5000  28.2500  67.5000 Du        
    382 ****       202.5000  28.2500  67.7500 Du        
    383 ****       202.5000  28.2500  68.0000 Du        
    384 ****       202.5000  28.2500  68.2500 Du        
    385 ****       202.5000  28.5000  67.2500 Du        
    386 ****       202.5000  28.5000  67.5000 Du        
    387 ****       202.5000  28.5000  67.7500 Du        
    388 ****       202.5000  28.5000  68.0000 Du        
    389 ****       202.5000  28.5000  68.2500 Du        
    390 ****       202.5000  28.5000  68.5000 Du        
    391 ****       202.5000  28.7500  67.2500 Du        
    392 ****       202.5000  28.7500  67.5000 Du        
    393 ****       202.5000  28.7500  67.7500 Du        
    394 ****       202.5000  28.7500  68.0000 Du        
    395 ****       202.5000  28.7500  68.2500 Du        
    396 ****       202.5000  29.0000  67.2500 Du        
    397 ****       202.5000  29.0000  67.5000 Du        
    398 ****       202.5000  29.0000  67.7500 Du        
    399 ****       202.5000  29.0000  68.0000 Du        
    400 ****       202.5000  29.2500  67.5000 Du        
    401 ****       202.5000  29.2500  67.7500 Du        
    402 ****       202.5000  32.0000  63.5000 Du        
    403 ****       202.5000  32.0000  63.7500 Du        
    404 ****       202.5000  32.2500  63.5000 Du        
    405 ****       202.5000  32.2500  63.7500 Du        
    406 ****       202.5000  32.5000  63.5000 Du        
    407 ****       202.5000  32.5000  63.7500 Du        
    408 ****       202.7500  27.7500  67.5000 Du        
    409 ****       202.7500  28.0000  67.5000 Du        
    410 ****       202.7500  28.0000  67.7500 Du        
    411 ****       202.7500  28.0000  68.0000 Du        
    412 ****       202.7500  28.2500  67.5000 Du        
    413 ****       202.7500  28.2500  67.7500 Du        
    414 ****       202.7500  28.2500  68.0000 Du        
    415 ****       202.7500  28.2500  68.2500 Du        
    416 ****       202.7500  28.5000  67.5000 Du        
    417 ****       202.7500  28.5000  67.7500 Du        
    418 ****       202.7500  28.5000  68.0000 Du        
    419 ****       202.7500  28.5000  68.2500 Du        
    420 ****       202.7500  28.5000  68.5000 Du        
    421 ****       202.7500  28.7500  67.7500 Du        
    422 ****       202.7500  28.7500  68.0000 Du        
    423 ****       202.7500  28.7500  68.2500 Du        
    424 ****       202.7500  29.0000  67.7500 Du        
    425 ****       202.7500  29.0000  68.0000 Du        
    426 ****       202.7500  32.0000  63.5000 Du        
    427 ****       202.7500  32.0000  63.7500 Du        
    428 ****       202.7500  32.2500  63.2500 Du        
    429 ****       202.7500  32.2500  63.5000 Du        
    430 ****       202.7500  32.2500  63.7500 Du        
    431 ****       202.7500  32.5000  63.2500 Du        
    432 ****       202.7500  32.5000  63.5000 Du        
    433 ****       202.7500  32.5000  63.7500 Du        
    434 ****       203.0000  28.2500  68.0000 Du        
    435 ****       203.0000  28.2500  68.2500 Du        
    436 ****       203.0000  28.5000  68.0000 Du        
    437 ****       203.0000  28.5000  68.2500 Du        
    438 ****       203.0000  32.0000  63.5000 Du        
    439 ****       203.0000  32.0000  63.7500 Du        
    440 ****       203.0000  32.2500  63.2500 Du        
    441 ****       203.0000  32.2500  63.5000 Du        
    442 ****       203.0000  32.2500  63.7500 Du        
    443 ****       203.0000  32.5000  63.2500 Du        
    444 ****       203.0000  32.5000  63.5000 Du        
    445 ****       203.0000  32.5000  63.7500 Du        
    446 ****       203.2500  32.2500  63.2500 Du        
    447 ****       203.2500  32.2500  63.5000 Du        
    448 ****       203.2500  32.5000  63.5000 Du        
    449 ****       204.2500  36.0000  70.0000 Du        
    450 ****       204.2500  36.2500  69.7500 Du        
    451 ****       204.2500  36.2500  70.0000 Du        
    452 ****       204.2500  36.2500  70.2500 Du        
    453 ****       204.2500  36.5000  70.0000 Du        
    454 ****       204.5000  28.0000  69.7500 Du        
    455 ****       204.5000  28.0000  70.0000 Du        
    456 ****       204.5000  28.0000  70.2500 Du        
    457 ****       204.5000  28.0000  70.5000 Du        
    458 ****       204.5000  28.0000  70.7500 Du        
    459 ****       204.5000  28.2500  69.7500 Du        
    460 ****       204.5000  28.2500  70.0000 Du        
    461 ****       204.5000  28.2500  70.2500 Du        
    462 ****       204.5000  28.2500  70.5000 Du        
    463 ****       204.5000  28.2500  70.7500 Du        
    464 ****       204.5000  28.5000  70.0000 Du        
    465 ****       204.5000  28.5000  70.2500 Du        
    466 ****       204.5000  28.5000  70.5000 Du        
    467 ****       204.5000  36.0000  69.5000 Du        
    468 ****       204.5000  36.0000  69.7500 Du        
    469 ****       204.5000  36.0000  70.0000 Du        
    470 ****       204.5000  36.0000  70.2500 Du        
    471 ****       204.5000  36.0000  70.5000 Du        
    472 ****       204.5000  36.2500  69.7500 Du        
    473 ****       204.5000  36.2500  70.0000 Du        
    474 ****       204.5000  36.2500  70.2500 Du        
    475 ****       204.5000  36.2500  70.5000 Du        
    476 ****       204.5000  36.5000  69.7500 Du        
    477 ****       204.5000  36.5000  70.0000 Du        
    478 ****       204.5000  36.5000  70.2500 Du        
    479 ****       204.5000  36.5000  70.5000 Du        
    480 ****       204.5000  36.7500  70.0000 Du        
    481 ****       204.7500  27.7500  69.7500 Du        
    482 ****       204.7500  27.7500  70.0000 Du        
    483 ****       204.7500  27.7500  70.2500 Du        
    484 ****       204.7500  27.7500  70.5000 Du        
    485 ****       204.7500  27.7500  70.7500 Du        
    486 ****       204.7500  27.7500  71.0000 Du        
    487 ****       204.7500  28.0000  69.7500 Du        
    488 ****       204.7500  28.0000  70.0000 Du        
    489 ****       204.7500  28.0000  70.2500 Du        
    490 ****       204.7500  28.0000  70.5000 Du        
    491 ****       204.7500  28.0000  70.7500 Du        
    492 ****       204.7500  28.0000  71.0000 Du        
    493 ****       204.7500  28.0000  71.2500 Du        
    494 ****       204.7500  28.2500  69.7500 Du        
    495 ****       204.7500  28.2500  70.0000 Du        
    496 ****       204.7500  28.2500  70.2500 Du        
    497 ****       204.7500  28.2500  70.5000 Du        
    498 ****       204.7500  28.2500  70.7500 Du        
    499 ****       204.7500  28.2500  71.0000 Du        
    500 ****       204.7500  28.2500  71.2500 Du        
    501 ****       204.7500  28.5000  70.0000 Du        
    502 ****       204.7500  28.5000  70.2500 Du        
    503 ****       204.7500  28.5000  70.5000 Du        
    504 ****       204.7500  28.5000  70.7500 Du        
    505 ****       204.7500  28.5000  71.0000 Du        
    506 ****       204.7500  28.5000  71.2500 Du        
    507 ****       204.7500  28.7500  70.2500 Du        
    508 ****       204.7500  28.7500  70.5000 Du        
    509 ****       204.7500  28.7500  70.7500 Du        
    510 ****       204.7500  35.7500  69.5000 Du        
    511 ****       204.7500  35.7500  69.7500 Du        
    512 ****       204.7500  35.7500  70.0000 Du        
    513 ****       204.7500  35.7500  70.2500 Du        
    514 ****       204.7500  35.7500  70.5000 Du        
    515 ****       204.7500  35.7500  70.7500 Du        
    516 ****       204.7500  36.0000  69.5000 Du        
    517 ****       204.7500  36.0000  69.7500 Du        
    518 ****       204.7500  36.0000  70.0000 Du        
    519 ****       204.7500  36.0000  70.2500 Du        
    520 ****       204.7500  36.0000  70.5000 Du        
    521 ****       204.7500  36.0000  70.7500 Du        
    522 ****       204.7500  36.2500  69.5000 Du        
    523 ****       204.7500  36.2500  69.7500 Du        
    524 ****       204.7500  36.2500  70.0000 Du        
    525 ****       204.7500  36.2500  70.2500 Du        
    526 ****       204.7500  36.2500  70.5000 Du        
    527 ****       204.7500  36.2500  70.7500 Du        
    528 ****       204.7500  36.5000  69.5000 Du        
    529 ****       204.7500  36.5000  69.7500 Du        
    530 ****       204.7500  36.5000  70.0000 Du        
    531 ****       204.7500  36.5000  70.2500 Du        
    532 ****       204.7500  36.5000  70.5000 Du        
    533 ****       204.7500  36.5000  70.7500 Du        
    534 ****       204.7500  36.7500  69.7500 Du        
    535 ****       204.7500  36.7500  70.0000 Du        
    536 ****       204.7500  36.7500  70.2500 Du        
    537 ****       204.7500  36.7500  70.5000 Du        
    538 ****       204.7500  37.0000  69.7500 Du        
    539 ****       204.7500  37.0000  70.0000 Du        
    540 ****       204.7500  37.0000  70.2500 Du        
    541 ****       205.0000  27.2500  70.0000 Du        
    542 ****       205.0000  27.2500  70.2500 Du        
    543 ****       205.0000  27.5000  69.7500 Du        
    544 ****       205.0000  27.5000  70.0000 Du        
    545 ****       205.0000  27.5000  70.2500 Du        
    546 ****       205.0000  27.5000  70.5000 Du        
    547 ****       205.0000  27.5000  70.7500 Du        
    548 ****       205.0000  27.5000  71.0000 Du        
    549 ****       205.0000  27.7500  69.7500 Du        
    550 ****       205.0000  27.7500  70.0000 Du        
    551 ****       205.0000  27.7500  70.2500 Du        
    552 ****       205.0000  27.7500  70.5000 Du        
    553 ****       205.0000  27.7500  70.7500 Du        
    554 ****       205.0000  27.7500  71.0000 Du        
    555 ****       205.0000  27.7500  71.2500 Du        
    556 ****       205.0000  27.7500  71.5000 Du        
    557 ****       205.0000  28.0000  69.7500 Du        
    558 ****       205.0000  28.0000  70.0000 Du        
    559 ****       205.0000  28.0000  70.2500 Du        
    560 ****       205.0000  28.0000  70.5000 Du        
    561 ****       205.0000  28.0000  70.7500 Du        
    562 ****       205.0000  28.0000  71.0000 Du        
    563 ****       205.0000  28.0000  71.2500 Du        
    564 ****       205.0000  28.0000  71.5000 Du        
    565 ****       205.0000  28.0000  71.7500 Du        
    566 ****       205.0000  28.2500  70.0000 Du        
    567 ****       205.0000  28.2500  70.2500 Du        
    568 ****       205.0000  28.2500  70.5000 Du        
    569 ****       205.0000  28.2500  70.7500 Du        
    570 ****       205.0000  28.2500  71.0000 Du        
    571 ****       205.0000  28.2500  71.2500 Du        
    572 ****       205.0000  28.2500  71.5000 Du        
    573 ****       205.0000  28.2500  71.7500 Du        
    574 ****       205.0000  28.5000  70.2500 Du        
    575 ****       205.0000  28.5000  70.5000 Du        
    576 ****       205.0000  28.5000  70.7500 Du        
    577 ****       205.0000  28.5000  71.0000 Du        
    578 ****       205.0000  28.5000  71.2500 Du        
    579 ****       205.0000  28.5000  71.5000 Du        
    580 ****       205.0000  28.5000  71.7500 Du        
    581 ****       205.0000  28.7500  70.2500 Du        
    582 ****       205.0000  28.7500  70.5000 Du        
    583 ****       205.0000  28.7500  70.7500 Du        
    584 ****       205.0000  28.7500  71.0000 Du        
    585 ****       205.0000  28.7500  71.2500 Du        
    586 ****       205.0000  28.7500  71.5000 Du        
    587 ****       205.0000  29.0000  70.7500 Du        
    588 ****       205.0000  29.0000  71.0000 Du        
    589 ****       205.0000  35.5000  69.5000 Du        
    590 ****       205.0000  35.5000  69.7500 Du        
    591 ****       205.0000  35.5000  70.0000 Du        
    592 ****       205.0000  35.5000  70.2500 Du        
    593 ****       205.0000  35.5000  70.5000 Du        
    594 ****       205.0000  35.5000  70.7500 Du        
    595 ****       205.0000  35.7500  69.2500 Du        
    596 ****       205.0000  35.7500  69.5000 Du        
    597 ****       205.0000  35.7500  69.7500 Du        
    598 ****       205.0000  35.7500  70.0000 Du        
    599 ****       205.0000  35.7500  70.2500 Du        
    600 ****       205.0000  35.7500  70.5000 Du        
    601 ****       205.0000  35.7500  70.7500 Du        
    602 ****       205.0000  35.7500  71.0000 Du        
    603 ****       205.0000  36.0000  69.2500 Du        
    604 ****       205.0000  36.0000  69.5000 Du        
    605 ****       205.0000  36.0000  69.7500 Du        
    606 ****       205.0000  36.0000  70.0000 Du        
    607 ****       205.0000  36.0000  70.2500 Du        
    608 ****       205.0000  36.0000  70.5000 Du        
    609 ****       205.0000  36.0000  70.7500 Du        
    610 ****       205.0000  36.0000  71.0000 Du        
    611 ****       205.0000  36.2500  69.2500 Du        
    612 ****       205.0000  36.2500  69.5000 Du        
    613 ****       205.0000  36.2500  69.7500 Du        
    614 ****       205.0000  36.2500  70.0000 Du        
    615 ****       205.0000  36.2500  70.2500 Du        
    616 ****       205.0000  36.2500  70.5000 Du        
    617 ****       205.0000  36.2500  70.7500 Du        
    618 ****       205.0000  36.5000  69.5000 Du        
    619 ****       205.0000  36.5000  69.7500 Du        
    620 ****       205.0000  36.5000  70.0000 Du        
    621 ****       205.0000  36.5000  70.2500 Du        
    622 ****       205.0000  36.5000  70.5000 Du        
    623 ****       205.0000  36.5000  70.7500 Du        
    624 ****       205.0000  36.7500  69.5000 Du        
    625 ****       205.0000  36.7500  69.7500 Du        
    626 ****       205.0000  36.7500  70.0000 Du        
    627 ****       205.0000  36.7500  70.2500 Du        
    628 ****       205.0000  36.7500  70.5000 Du        
    629 ****       205.0000  36.7500  70.7500 Du        
    630 ****       205.0000  37.0000  69.7500 Du        
    631 ****       205.0000  37.0000  70.0000 Du        
    632 ****       205.0000  37.0000  70.2500 Du        
    633 ****       205.0000  37.0000  70.5000 Du        
    634 ****       205.0000  37.2500  69.7500 Du        
    635 ****       205.0000  37.2500  70.0000 Du        
    636 ****       205.0000  37.2500  70.2500 Du        
    637 ****       205.2500  27.0000  69.7500 Du        
    638 ****       205.2500  27.0000  70.0000 Du        
    639 ****       205.2500  27.0000  70.2500 Du        
    640 ****       205.2500  27.0000  70.5000 Du        
    641 ****       205.2500  27.0000  70.7500 Du        
    642 ****       205.2500  27.2500  69.5000 Du        
    643 ****       205.2500  27.2500  69.7500 Du        
    644 ****       205.2500  27.2500  70.0000 Du        
    645 ****       205.2500  27.2500  70.2500 Du        
    646 ****       205.2500  27.2500  70.5000 Du        
    647 ****       205.2500  27.2500  70.7500 Du        
    648 ****       205.2500  27.2500  71.0000 Du        
    649 ****       205.2500  27.2500  71.2500 Du        
    650 ****       205.2500  27.5000  69.5000 Du        
    651 ****       205.2500  27.5000  69.7500 Du        
    652 ****       205.2500  27.5000  70.0000 Du        
    653 ****       205.2500  27.5000  70.2500 Du        
    654 ****       205.2500  27.5000  70.5000 Du        
    655 ****       205.2500  27.5000  70.7500 Du        
    656 ****       205.2500  27.5000  71.0000 Du        
    657 ****       205.2500  27.5000  71.2500 Du        
    658 ****       205.2500  27.5000  71.5000 Du        
    659 ****       205.2500  27.7500  69.7500 Du        
    660 ****       205.2500  27.7500  70.0000 Du        
    661 ****       205.2500  27.7500  70.2500 Du        
    662 ****       205.2500  27.7500  70.5000 Du        
    663 ****       205.2500  27.7500  70.7500 Du        
    664 ****       205.2500  27.7500  71.0000 Du        
    665 ****       205.2500  27.7500  71.2500 Du        
    666 ****       205.2500  27.7500  71.5000 Du        
    667 ****       205.2500  27.7500  71.7500 Du        
    668 ****       205.2500  28.0000  70.0000 Du        
    669 ****       205.2500  28.0000  70.2500 Du        
    670 ****       205.2500  28.0000  70.5000 Du        
    671 ****       205.2500  28.0000  70.7500 Du        
    672 ****       205.2500  28.0000  71.0000 Du        
    673 ****       205.2500  28.0000  71.2500 Du        
    674 ****       205.2500  28.0000  71.5000 Du        
    675 ****       205.2500  28.0000  71.7500 Du        
    676 ****       205.2500  28.2500  70.0000 Du        
    677 ****       205.2500  28.2500  70.2500 Du        
    678 ****       205.2500  28.2500  70.5000 Du        
    679 ****       205.2500  28.2500  70.7500 Du        
    680 ****       205.2500  28.2500  71.0000 Du        
    681 ****       205.2500  28.2500  71.2500 Du        
    682 ****       205.2500  28.2500  71.5000 Du        
    683 ****       205.2500  28.2500  71.7500 Du        
    684 ****       205.2500  28.5000  70.2500 Du        
    685 ****       205.2500  28.5000  70.5000 Du        
    686 ****       205.2500  28.5000  70.7500 Du        
    687 ****       205.2500  28.5000  71.0000 Du        
    688 ****       205.2500  28.5000  71.2500 Du        
    689 ****       205.2500  28.5000  71.5000 Du        
    690 ****       205.2500  28.5000  71.7500 Du        
    691 ****       205.2500  28.5000  72.0000 Du        
    692 ****       205.2500  28.7500  70.5000 Du        
    693 ****       205.2500  28.7500  70.7500 Du        
    694 ****       205.2500  28.7500  71.0000 Du        
    695 ****       205.2500  28.7500  71.2500 Du        
    696 ****       205.2500  28.7500  71.5000 Du        
    697 ****       205.2500  28.7500  71.7500 Du        
    698 ****       205.2500  28.7500  72.0000 Du        
    699 ****       205.2500  29.0000  70.7500 Du        
    700 ****       205.2500  29.0000  71.0000 Du        
    701 ****       205.2500  29.0000  71.2500 Du        
    702 ****       205.2500  29.0000  71.5000 Du        
    703 ****       205.2500  29.0000  71.7500 Du        
    704 ****       205.2500  35.2500  69.2500 Du        
    705 ****       205.2500  35.2500  69.5000 Du        
    706 ****       205.2500  35.2500  69.7500 Du        
    707 ****       205.2500  35.2500  70.0000 Du        
    708 ****       205.2500  35.2500  70.2500 Du        
    709 ****       205.2500  35.5000  69.2500 Du        
    710 ****       205.2500  35.5000  69.5000 Du        
    711 ****       205.2500  35.5000  69.7500 Du        
    712 ****       205.2500  35.5000  70.0000 Du        
    713 ****       205.2500  35.5000  70.2500 Du        
    714 ****       205.2500  35.5000  70.5000 Du        
    715 ****       205.2500  35.5000  70.7500 Du        
    716 ****       205.2500  35.5000  71.0000 Du        
    717 ****       205.2500  35.7500  69.2500 Du        
    718 ****       205.2500  35.7500  69.5000 Du        
    719 ****       205.2500  35.7500  69.7500 Du        
    720 ****       205.2500  35.7500  70.0000 Du        
    721 ****       205.2500  35.7500  70.2500 Du        
    722 ****       205.2500  35.7500  70.5000 Du        
    723 ****       205.2500  35.7500  70.7500 Du        
    724 ****       205.2500  35.7500  71.0000 Du        
    725 ****       205.2500  36.0000  69.2500 Du        
    726 ****       205.2500  36.0000  69.5000 Du        
    727 ****       205.2500  36.0000  69.7500 Du        
    728 ****       205.2500  36.0000  70.0000 Du        
    729 ****       205.2500  36.0000  70.2500 Du        
    730 ****       205.2500  36.0000  70.5000 Du        
    731 ****       205.2500  36.0000  70.7500 Du        
    732 ****       205.2500  36.0000  71.0000 Du        
    733 ****       205.2500  36.2500  69.2500 Du        
    734 ****       205.2500  36.2500  69.5000 Du        
    735 ****       205.2500  36.2500  69.7500 Du        
    736 ****       205.2500  36.2500  70.0000 Du        
    737 ****       205.2500  36.2500  70.2500 Du        
    738 ****       205.2500  36.2500  70.5000 Du        
    739 ****       205.2500  36.2500  70.7500 Du        
    740 ****       205.2500  36.5000  69.2500 Du        
    741 ****       205.2500  36.5000  69.5000 Du        
    742 ****       205.2500  36.5000  69.7500 Du        
    743 ****       205.2500  36.5000  70.0000 Du        
    744 ****       205.2500  36.5000  70.2500 Du        
    745 ****       205.2500  36.5000  70.5000 Du        
    746 ****       205.2500  36.5000  70.7500 Du        
    747 ****       205.2500  36.7500  69.5000 Du        
    748 ****       205.2500  36.7500  69.7500 Du        
    749 ****       205.2500  36.7500  70.0000 Du        
    750 ****       205.2500  36.7500  70.2500 Du        
    751 ****       205.2500  36.7500  70.5000 Du        
    752 ****       205.2500  36.7500  70.7500 Du        
    753 ****       205.2500  37.0000  69.5000 Du        
    754 ****       205.2500  37.0000  69.7500 Du        
    755 ****       205.2500  37.0000  70.0000 Du        
    756 ****       205.2500  37.0000  70.2500 Du        
    757 ****       205.2500  37.0000  70.5000 Du        
    758 ****       205.2500  37.2500  69.7500 Du        
    759 ****       205.2500  37.2500  70.0000 Du        
    760 ****       205.2500  37.2500  70.2500 Du        
    761 ****       205.2500  37.2500  70.5000 Du        
    762 ****       205.2500  37.5000  69.7500 Du        
    763 ****       205.2500  37.5000  70.0000 Du        
    764 ****       205.2500  37.5000  70.2500 Du        
    765 ****       205.2500  37.7500  70.0000 Du        
    766 ****       205.2500  37.7500  70.2500 Du        
    767 ****       205.5000  26.7500  69.7500 Du        
    768 ****       205.5000  26.7500  70.0000 Du        
    769 ****       205.5000  26.7500  70.2500 Du        
    770 ****       205.5000  26.7500  70.5000 Du        
    771 ****       205.5000  26.7500  70.7500 Du        
    772 ****       205.5000  26.7500  71.0000 Du        
    773 ****       205.5000  27.0000  69.5000 Du        
    774 ****       205.5000  27.0000  69.7500 Du        
    775 ****       205.5000  27.0000  70.0000 Du        
    776 ****       205.5000  27.0000  70.2500 Du        
    777 ****       205.5000  27.0000  70.5000 Du        
    778 ****       205.5000  27.0000  70.7500 Du        
    779 ****       205.5000  27.0000  71.0000 Du        
    780 ****       205.5000  27.0000  71.2500 Du        
    781 ****       205.5000  27.2500  69.5000 Du        
    782 ****       205.5000  27.2500  69.7500 Du        
    783 ****       205.5000  27.2500  70.0000 Du        
    784 ****       205.5000  27.2500  70.2500 Du        
    785 ****       205.5000  27.2500  70.5000 Du        
    786 ****       205.5000  27.2500  70.7500 Du        
    787 ****       205.5000  27.2500  71.0000 Du        
    788 ****       205.5000  27.2500  71.2500 Du        
    789 ****       205.5000  27.2500  71.5000 Du        
    790 ****       205.5000  27.5000  69.7500 Du        
    791 ****       205.5000  27.5000  70.0000 Du        
    792 ****       205.5000  27.5000  70.2500 Du        
    793 ****       205.5000  27.5000  70.5000 Du        
    794 ****       205.5000  27.5000  70.7500 Du        
    795 ****       205.5000  27.5000  71.0000 Du        
    796 ****       205.5000  27.5000  71.2500 Du        
    797 ****       205.5000  27.5000  71.5000 Du        
    798 ****       205.5000  27.7500  70.0000 Du        
    799 ****       205.5000  27.7500  70.2500 Du        
    800 ****       205.5000  27.7500  70.5000 Du        
    801 ****       205.5000  27.7500  70.7500 Du        
    802 ****       205.5000  27.7500  71.0000 Du        
    803 ****       205.5000  27.7500  71.2500 Du        
    804 ****       205.5000  27.7500  71.5000 Du        
    805 ****       205.5000  27.7500  71.7500 Du        
    806 ****       205.5000  28.0000  70.0000 Du        
    807 ****       205.5000  28.0000  70.2500 Du        
    808 ****       205.5000  28.0000  70.5000 Du        
    809 ****       205.5000  28.0000  70.7500 Du        
    810 ****       205.5000  28.0000  71.0000 Du        
    811 ****       205.5000  28.0000  71.2500 Du        
    812 ****       205.5000  28.0000  71.5000 Du        
    813 ****       205.5000  28.0000  71.7500 Du        
    814 ****       205.5000  28.2500  70.2500 Du        
    815 ****       205.5000  28.2500  70.5000 Du        
    816 ****       205.5000  28.2500  70.7500 Du        
    817 ****       205.5000  28.2500  71.0000 Du        
    818 ****       205.5000  28.2500  71.2500 Du        
    819 ****       205.5000  28.2500  71.5000 Du        
    820 ****       205.5000  28.2500  71.7500 Du        
    821 ****       205.5000  28.2500  72.0000 Du        
    822 ****       205.5000  28.5000  70.5000 Du        
    823 ****       205.5000  28.5000  70.7500 Du        
    824 ****       205.5000  28.5000  71.0000 Du        
    825 ****       205.5000  28.5000  71.2500 Du        
    826 ****       205.5000  28.5000  71.5000 Du        
    827 ****       205.5000  28.5000  71.7500 Du        
    828 ****       205.5000  28.5000  72.0000 Du        
    829 ****       205.5000  28.7500  70.7500 Du        
    830 ****       205.5000  28.7500  71.0000 Du        
    831 ****       205.5000  28.7500  71.2500 Du        
    832 ****       205.5000  28.7500  71.5000 Du        
    833 ****       205.5000  28.7500  71.7500 Du        
    834 ****       205.5000  28.7500  72.0000 Du        
    835 ****       205.5000  29.0000  70.7500 Du        
    836 ****       205.5000  29.0000  71.0000 Du        
    837 ****       205.5000  29.0000  71.2500 Du        
    838 ****       205.5000  29.0000  71.5000 Du        
    839 ****       205.5000  29.0000  71.7500 Du        
    840 ****       205.5000  29.0000  72.0000 Du        
    841 ****       205.5000  29.0000  72.2500 Du        
    842 ****       205.5000  29.2500  71.0000 Du        
    843 ****       205.5000  29.2500  71.2500 Du        
    844 ****       205.5000  29.2500  71.5000 Du        
    845 ****       205.5000  29.2500  71.7500 Du        
    846 ****       205.5000  29.2500  72.0000 Du        
    847 ****       205.5000  29.2500  72.2500 Du        
    848 ****       205.5000  35.0000  69.2500 Du        
    849 ****       205.5000  35.0000  69.5000 Du        
    850 ****       205.5000  35.0000  69.7500 Du        
    851 ****       205.5000  35.2500  69.2500 Du        
    852 ****       205.5000  35.2500  69.5000 Du        
    853 ****       205.5000  35.2500  69.7500 Du        
    854 ****       205.5000  35.2500  70.0000 Du        
    855 ****       205.5000  35.2500  70.2500 Du        
    856 ****       205.5000  35.2500  70.5000 Du        
    857 ****       205.5000  35.2500  70.7500 Du        
    858 ****       205.5000  35.5000  69.0000 Du        
    859 ****       205.5000  35.5000  69.2500 Du        
    860 ****       205.5000  35.5000  69.5000 Du        
    861 ****       205.5000  35.5000  69.7500 Du        
    862 ****       205.5000  35.5000  70.0000 Du        
    863 ****       205.5000  35.5000  70.2500 Du        
    864 ****       205.5000  35.5000  70.5000 Du        
    865 ****       205.5000  35.5000  70.7500 Du        
    866 ****       205.5000  35.7500  69.0000 Du        
    867 ****       205.5000  35.7500  69.2500 Du        
    868 ****       205.5000  35.7500  69.5000 Du        
    869 ****       205.5000  35.7500  69.7500 Du        
    870 ****       205.5000  35.7500  70.0000 Du        
    871 ****       205.5000  35.7500  70.2500 Du        
    872 ****       205.5000  35.7500  70.5000 Du        
    873 ****       205.5000  35.7500  70.7500 Du        
    874 ****       205.5000  36.0000  69.0000 Du        
    875 ****       205.5000  36.0000  69.2500 Du        
    876 ****       205.5000  36.0000  69.5000 Du        
    877 ****       205.5000  36.0000  69.7500 Du        
    878 ****       205.5000  36.0000  70.0000 Du        
    879 ****       205.5000  36.0000  70.2500 Du        
    880 ****       205.5000  36.0000  70.5000 Du        
    881 ****       205.5000  36.0000  70.7500 Du        
    882 ****       205.5000  36.2500  69.0000 Du        
    883 ****       205.5000  36.2500  69.2500 Du        
    884 ****       205.5000  36.2500  69.5000 Du        
    885 ****       205.5000  36.2500  69.7500 Du        
    886 ****       205.5000  36.2500  70.0000 Du        
    887 ****       205.5000  36.2500  70.2500 Du        
    888 ****       205.5000  36.2500  70.5000 Du        
    889 ****       205.5000  36.2500  70.7500 Du        
    890 ****       205.5000  36.5000  69.2500 Du        
    891 ****       205.5000  36.5000  69.5000 Du        
    892 ****       205.5000  36.5000  69.7500 Du        
    893 ****       205.5000  36.5000  70.0000 Du        
    894 ****       205.5000  36.5000  70.2500 Du        
    895 ****       205.5000  36.5000  70.5000 Du        
    896 ****       205.5000  36.5000  70.7500 Du        
    897 ****       205.5000  36.7500  69.2500 Du        
    898 ****       205.5000  36.7500  69.5000 Du        
    899 ****       205.5000  36.7500  69.7500 Du        
    900 ****       205.5000  36.7500  70.0000 Du        
    901 ****       205.5000  36.7500  70.2500 Du        
    902 ****       205.5000  36.7500  70.5000 Du        
    903 ****       205.5000  37.0000  69.5000 Du        
    904 ****       205.5000  37.0000  69.7500 Du        
    905 ****       205.5000  37.0000  70.0000 Du        
    906 ****       205.5000  37.0000  70.2500 Du        
    907 ****       205.5000  37.0000  70.5000 Du        
    908 ****       205.5000  37.2500  69.5000 Du        
    909 ****       205.5000  37.2500  69.7500 Du        
    910 ****       205.5000  37.2500  70.0000 Du        
    911 ****       205.5000  37.2500  70.2500 Du        
    912 ****       205.5000  37.2500  70.5000 Du        
    913 ****       205.5000  37.5000  69.7500 Du        
    914 ****       205.5000  37.5000  70.0000 Du        
    915 ****       205.5000  37.5000  70.2500 Du        
    916 ****       205.5000  37.5000  70.5000 Du        
    917 ****       205.5000  37.7500  69.7500 Du        
    918 ****       205.5000  37.7500  70.0000 Du        
    919 ****       205.5000  37.7500  70.2500 Du        
    920 ****       205.5000  38.0000  70.0000 Du        
    921 ****       205.5000  38.0000  70.2500 Du        
    922 ****       205.7500  26.2500  70.0000 Du        
    923 ****       205.7500  26.2500  70.2500 Du        
    924 ****       205.7500  26.2500  70.5000 Du        
    925 ****       205.7500  26.2500  70.7500 Du        
    926 ****       205.7500  26.5000  69.7500 Du        
    927 ****       205.7500  26.5000  70.0000 Du        
    928 ****       205.7500  26.5000  70.2500 Du        
    929 ****       205.7500  26.5000  70.5000 Du        
    930 ****       205.7500  26.5000  70.7500 Du        
    931 ****       205.7500  26.5000  71.0000 Du        
    932 ****       205.7500  26.7500  69.5000 Du        
    933 ****       205.7500  26.7500  69.7500 Du        
    934 ****       205.7500  26.7500  70.0000 Du        
    935 ****       205.7500  26.7500  70.2500 Du        
    936 ****       205.7500  26.7500  70.5000 Du        
    937 ****       205.7500  26.7500  70.7500 Du        
    938 ****       205.7500  26.7500  71.0000 Du        
    939 ****       205.7500  26.7500  71.2500 Du        
    940 ****       205.7500  27.0000  69.2500 Du        
    941 ****       205.7500  27.0000  69.5000 Du        
    942 ****       205.7500  27.0000  69.7500 Du        
    943 ****       205.7500  27.0000  70.0000 Du        
    944 ****       205.7500  27.0000  70.2500 Du        
    945 ****       205.7500  27.0000  70.5000 Du        
    946 ****       205.7500  27.0000  70.7500 Du        
    947 ****       205.7500  27.0000  71.0000 Du        
    948 ****       205.7500  27.0000  71.2500 Du        
    949 ****       205.7500  27.0000  71.5000 Du        
    950 ****       205.7500  27.2500  69.5000 Du        
    951 ****       205.7500  27.2500  69.7500 Du        
    952 ****       205.7500  27.2500  70.0000 Du        
    953 ****       205.7500  27.2500  70.2500 Du        
    954 ****       205.7500  27.2500  70.5000 Du        
    955 ****       205.7500  27.2500  70.7500 Du        
    956 ****       205.7500  27.2500  71.0000 Du        
    957 ****       205.7500  27.2500  71.2500 Du        
    958 ****       205.7500  27.2500  71.5000 Du        
    959 ****       205.7500  27.5000  69.7500 Du        
    960 ****       205.7500  27.5000  70.0000 Du        
    961 ****       205.7500  27.5000  70.2500 Du        
    962 ****       205.7500  27.5000  70.5000 Du        
    963 ****       205.7500  27.5000  70.7500 Du        
    964 ****       205.7500  27.5000  71.0000 Du        
    965 ****       205.7500  27.5000  71.2500 Du        
    966 ****       205.7500  27.5000  71.5000 Du        
    967 ****       205.7500  27.5000  71.7500 Du        
    968 ****       205.7500  27.7500  70.0000 Du        
    969 ****       205.7500  27.7500  70.2500 Du        
    970 ****       205.7500  27.7500  70.5000 Du        
    971 ****       205.7500  27.7500  70.7500 Du        
    972 ****       205.7500  27.7500  71.0000 Du        
    973 ****       205.7500  27.7500  71.2500 Du        
    974 ****       205.7500  27.7500  71.5000 Du        
    975 ****       205.7500  27.7500  71.7500 Du        
    976 ****       205.7500  28.0000  70.2500 Du        
    977 ****       205.7500  28.0000  70.5000 Du        
    978 ****       205.7500  28.0000  70.7500 Du        
    979 ****       205.7500  28.0000  71.0000 Du        
    980 ****       205.7500  28.0000  71.2500 Du        
    981 ****       205.7500  28.0000  71.5000 Du        
    982 ****       205.7500  28.0000  71.7500 Du        
    983 ****       205.7500  28.2500  70.5000 Du        
    984 ****       205.7500  28.2500  70.7500 Du        
    985 ****       205.7500  28.2500  71.0000 Du        
    986 ****       205.7500  28.2500  71.2500 Du        
    987 ****       205.7500  28.2500  71.5000 Du        
    988 ****       205.7500  28.2500  71.7500 Du        
    989 ****       205.7500  28.2500  72.0000 Du        
    990 ****       205.7500  28.5000  70.7500 Du        
    991 ****       205.7500  28.5000  71.0000 Du        
    992 ****       205.7500  28.5000  71.2500 Du        
    993 ****       205.7500  28.5000  71.5000 Du        
    994 ****       205.7500  28.5000  71.7500 Du        
    995 ****       205.7500  28.5000  72.0000 Du        
    996 ****       205.7500  28.7500  70.7500 Du        
    997 ****       205.7500  28.7500  71.0000 Du        
    998 ****       205.7500  28.7500  71.2500 Du        
    999 ****       205.7500  28.7500  71.5000 Du        
   1000 ****       205.7500  28.7500  71.7500 Du        
   1001 ****       205.7500  28.7500  72.0000 Du        
   1002 ****       205.7500  28.7500  72.2500 Du        
   1003 ****       205.7500  29.0000  70.7500 Du        
   1004 ****       205.7500  29.0000  71.0000 Du        
   1005 ****       205.7500  29.0000  71.2500 Du        
   1006 ****       205.7500  29.0000  71.5000 Du        
   1007 ****       205.7500  29.0000  71.7500 Du        
   1008 ****       205.7500  29.0000  72.0000 Du        
   1009 ****       205.7500  29.0000  72.2500 Du        
   1010 ****       205.7500  29.0000  72.5000 Du        
   1011 ****       205.7500  29.2500  71.0000 Du        
   1012 ****       205.7500  29.2500  71.2500 Du        
   1013 ****       205.7500  29.2500  71.5000 Du        
   1014 ****       205.7500  29.2500  71.7500 Du        
   1015 ****       205.7500  29.2500  72.0000 Du        
   1016 ****       205.7500  29.2500  72.2500 Du        
   1017 ****       205.7500  29.2500  72.5000 Du        
   1018 ****       205.7500  29.2500  72.7500 Du        
   1019 ****       205.7500  29.5000  71.2500 Du        
   1020 ****       205.7500  29.5000  71.5000 Du        
   1021 ****       205.7500  29.5000  71.7500 Du        
   1022 ****       205.7500  29.5000  72.0000 Du        
   1023 ****       205.7500  29.5000  72.2500 Du        
   1024 ****       205.7500  29.5000  72.5000 Du        
   1025 ****       205.7500  29.5000  72.7500 Du        
   1026 ****       205.7500  29.7500  71.7500 Du        
   1027 ****       205.7500  29.7500  72.5000 Du        
   1028 ****       205.7500  29.7500  72.7500 Du        
   1029 ****       205.7500  29.7500  73.0000 Du        
   1030 ****       205.7500  35.0000  69.0000 Du        
   1031 ****       205.7500  35.0000  69.2500 Du        
   1032 ****       205.7500  35.0000  69.5000 Du        
   1033 ****       205.7500  35.0000  69.7500 Du        
   1034 ****       205.7500  35.0000  70.0000 Du        
   1035 ****       205.7500  35.0000  70.2500 Du        
   1036 ****       205.7500  35.0000  70.5000 Du        
   1037 ****       205.7500  35.2500  69.0000 Du        
   1038 ****       205.7500  35.2500  69.2500 Du        
   1039 ****       205.7500  35.2500  69.5000 Du        
   1040 ****       205.7500  35.2500  69.7500 Du        
   1041 ****       205.7500  35.2500  70.0000 Du        
   1042 ****       205.7500  35.2500  70.2500 Du        
   1043 ****       205.7500  35.2500  70.5000 Du        
   1044 ****       205.7500  35.2500  70.7500 Du        
   1045 ****       205.7500  35.5000  69.0000 Du        
   1046 ****       205.7500  35.5000  69.2500 Du        
   1047 ****       205.7500  35.5000  69.5000 Du        
   1048 ****       205.7500  35.5000  69.7500 Du        
   1049 ****       205.7500  35.5000  70.0000 Du        
   1050 ****       205.7500  35.5000  70.2500 Du        
   1051 ****       205.7500  35.5000  70.5000 Du        
   1052 ****       205.7500  35.5000  70.7500 Du        
   1053 ****       205.7500  35.7500  69.0000 Du        
   1054 ****       205.7500  35.7500  69.2500 Du        
   1055 ****       205.7500  35.7500  69.5000 Du        
   1056 ****       205.7500  35.7500  69.7500 Du        
   1057 ****       205.7500  35.7500  70.0000 Du        
   1058 ****       205.7500  35.7500  70.2500 Du        
   1059 ****       205.7500  35.7500  70.5000 Du        
   1060 ****       205.7500  35.7500  70.7500 Du        
   1061 ****       205.7500  36.0000  69.0000 Du        
   1062 ****       205.7500  36.0000  69.2500 Du        
   1063 ****       205.7500  36.0000  69.5000 Du        
   1064 ****       205.7500  36.0000  69.7500 Du        
   1065 ****       205.7500  36.0000  70.0000 Du        
   1066 ****       205.7500  36.0000  70.2500 Du        
   1067 ****       205.7500  36.0000  70.5000 Du        
   1068 ****       205.7500  36.0000  70.7500 Du        
   1069 ****       205.7500  36.2500  69.0000 Du        
   1070 ****       205.7500  36.2500  69.2500 Du        
   1071 ****       205.7500  36.2500  69.5000 Du        
   1072 ****       205.7500  36.2500  69.7500 Du        
   1073 ****       205.7500  36.2500  70.0000 Du        
   1074 ****       205.7500  36.2500  70.2500 Du        
   1075 ****       205.7500  36.2500  70.5000 Du        
   1076 ****       205.7500  36.2500  70.7500 Du        
   1077 ****       205.7500  36.5000  69.0000 Du        
   1078 ****       205.7500  36.5000  69.2500 Du        
   1079 ****       205.7500  36.5000  69.5000 Du        
   1080 ****       205.7500  36.5000  69.7500 Du        
   1081 ****       205.7500  36.5000  70.0000 Du        
   1082 ****       205.7500  36.5000  70.2500 Du        
   1083 ****       205.7500  36.5000  70.5000 Du        
   1084 ****       205.7500  36.5000  70.7500 Du        
   1085 ****       205.7500  36.7500  69.0000 Du        
   1086 ****       205.7500  36.7500  69.2500 Du        
   1087 ****       205.7500  36.7500  69.5000 Du        
   1088 ****       205.7500  36.7500  69.7500 Du        
   1089 ****       205.7500  36.7500  70.0000 Du        
   1090 ****       205.7500  36.7500  70.2500 Du        
   1091 ****       205.7500  36.7500  70.5000 Du        
   1092 ****       205.7500  37.0000  69.2500 Du        
   1093 ****       205.7500  37.0000  69.5000 Du        
   1094 ****       205.7500  37.0000  69.7500 Du        
   1095 ****       205.7500  37.0000  70.0000 Du        
   1096 ****       205.7500  37.0000  70.2500 Du        
   1097 ****       205.7500  37.0000  70.5000 Du        
   1098 ****       205.7500  37.2500  69.5000 Du        
   1099 ****       205.7500  37.2500  69.7500 Du        
   1100 ****       205.7500  37.2500  70.0000 Du        
   1101 ****       205.7500  37.2500  70.2500 Du        
   1102 ****       205.7500  37.2500  70.5000 Du        
   1103 ****       205.7500  37.5000  69.5000 Du        
   1104 ****       205.7500  37.5000  69.7500 Du        
   1105 ****       205.7500  37.5000  70.0000 Du        
   1106 ****       205.7500  37.5000  70.2500 Du        
   1107 ****       205.7500  37.5000  70.5000 Du        
   1108 ****       205.7500  37.7500  69.7500 Du        
   1109 ****       205.7500  37.7500  70.0000 Du        
   1110 ****       205.7500  37.7500  70.2500 Du        
   1111 ****       205.7500  37.7500  70.5000 Du        
   1112 ****       205.7500  38.0000  69.7500 Du        
   1113 ****       205.7500  38.0000  70.0000 Du        
   1114 ****       205.7500  38.0000  70.2500 Du        
   1115 ****       206.0000  25.7500  70.5000 Du        
   1116 ****       206.0000  25.7500  70.7500 Du        
   1117 ****       206.0000  26.0000  70.2500 Du        
   1118 ****       206.0000  26.0000  70.5000 Du        
   1119 ****       206.0000  26.0000  70.7500 Du        
   1120 ****       206.0000  26.0000  71.0000 Du        
   1121 ****       206.0000  26.2500  69.7500 Du        
   1122 ****       206.0000  26.2500  70.0000 Du        
   1123 ****       206.0000  26.2500  70.2500 Du        
   1124 ****       206.0000  26.2500  70.5000 Du        
   1125 ****       206.0000  26.2500  70.7500 Du        
   1126 ****       206.0000  26.2500  71.0000 Du        
   1127 ****       206.0000  26.2500  71.2500 Du        
   1128 ****       206.0000  26.5000  69.5000 Du        
   1129 ****       206.0000  26.5000  69.7500 Du        
   1130 ****       206.0000  26.5000  70.0000 Du        
   1131 ****       206.0000  26.5000  70.2500 Du        
   1132 ****       206.0000  26.5000  70.5000 Du        
   1133 ****       206.0000  26.5000  70.7500 Du        
   1134 ****       206.0000  26.5000  71.0000 Du        
   1135 ****       206.0000  26.5000  71.2500 Du        
   1136 ****       206.0000  26.7500  69.2500 Du        
   1137 ****       206.0000  26.7500  69.5000 Du        
   1138 ****       206.0000  26.7500  69.7500 Du        
   1139 ****       206.0000  26.7500  70.0000 Du        
   1140 ****       206.0000  26.7500  70.2500 Du        
   1141 ****       206.0000  26.7500  70.5000 Du        
   1142 ****       206.0000  26.7500  70.7500 Du        
   1143 ****       206.0000  26.7500  71.0000 Du        
   1144 ****       206.0000  26.7500  71.2500 Du        
   1145 ****       206.0000  27.0000  69.2500 Du        
   1146 ****       206.0000  27.0000  69.5000 Du        
   1147 ****       206.0000  27.0000  69.7500 Du        
   1148 ****       206.0000  27.0000  70.0000 Du        
   1149 ****       206.0000  27.0000  70.2500 Du        
   1150 ****       206.0000  27.0000  70.5000 Du        
   1151 ****       206.0000  27.0000  70.7500 Du        
   1152 ****       206.0000  27.0000  71.0000 Du        
   1153 ****       206.0000  27.0000  71.2500 Du        
   1154 ****       206.0000  27.0000  71.5000 Du        
   1155 ****       206.0000  27.2500  69.5000 Du        
   1156 ****       206.0000  27.2500  69.7500 Du        
   1157 ****       206.0000  27.2500  70.0000 Du        
   1158 ****       206.0000  27.2500  70.2500 Du        
   1159 ****       206.0000  27.2500  70.5000 Du        
   1160 ****       206.0000  27.2500  70.7500 Du        
   1161 ****       206.0000  27.2500  71.0000 Du        
   1162 ****       206.0000  27.2500  71.2500 Du        
   1163 ****       206.0000  27.2500  71.5000 Du        
   1164 ****       206.0000  27.5000  70.0000 Du        
   1165 ****       206.0000  27.5000  70.2500 Du        
   1166 ****       206.0000  27.5000  70.5000 Du        
   1167 ****       206.0000  27.5000  70.7500 Du        
   1168 ****       206.0000  27.5000  71.0000 Du        
   1169 ****       206.0000  27.5000  71.2500 Du        
   1170 ****       206.0000  27.5000  71.5000 Du        
   1171 ****       206.0000  27.5000  71.7500 Du        
   1172 ****       206.0000  27.7500  70.2500 Du        
   1173 ****       206.0000  27.7500  70.5000 Du        
   1174 ****       206.0000  27.7500  70.7500 Du        
   1175 ****       206.0000  27.7500  71.0000 Du        
   1176 ****       206.0000  27.7500  71.2500 Du        
   1177 ****       206.0000  27.7500  71.5000 Du        
   1178 ****       206.0000  27.7500  71.7500 Du        
   1179 ****       206.0000  28.0000  70.5000 Du        
   1180 ****       206.0000  28.0000  70.7500 Du        
   1181 ****       206.0000  28.0000  71.0000 Du        
   1182 ****       206.0000  28.0000  71.2500 Du        
   1183 ****       206.0000  28.0000  71.5000 Du        
   1184 ****       206.0000  28.0000  71.7500 Du        
   1185 ****       206.0000  28.2500  70.5000 Du        
   1186 ****       206.0000  28.2500  70.7500 Du        
   1187 ****       206.0000  28.2500  71.0000 Du        
   1188 ****       206.0000  28.2500  71.2500 Du        
   1189 ****       206.0000  28.2500  71.5000 Du        
   1190 ****       206.0000  28.2500  71.7500 Du        
   1191 ****       206.0000  28.2500  72.0000 Du        
   1192 ****       206.0000  28.5000  70.7500 Du        
   1193 ****       206.0000  28.5000  71.0000 Du        
   1194 ****       206.0000  28.5000  71.2500 Du        
   1195 ****       206.0000  28.5000  71.5000 Du        
   1196 ****       206.0000  28.5000  71.7500 Du        
   1197 ****       206.0000  28.5000  72.0000 Du        
   1198 ****       206.0000  28.5000  72.2500 Du        
   1199 ****       206.0000  28.7500  71.0000 Du        
   1200 ****       206.0000  28.7500  71.2500 Du        
   1201 ****       206.0000  28.7500  71.5000 Du        
   1202 ****       206.0000  28.7500  71.7500 Du        
   1203 ****       206.0000  28.7500  72.0000 Du        
   1204 ****       206.0000  28.7500  72.2500 Du        
   1205 ****       206.0000  29.0000  71.0000 Du        
   1206 ****       206.0000  29.0000  71.2500 Du        
   1207 ****       206.0000  29.0000  71.5000 Du        
   1208 ****       206.0000  29.0000  71.7500 Du        
   1209 ****       206.0000  29.0000  72.0000 Du        
   1210 ****       206.0000  29.0000  72.2500 Du        
   1211 ****       206.0000  29.0000  72.5000 Du        
   1212 ****       206.0000  29.2500  71.0000 Du        
   1213 ****       206.0000  29.2500  71.2500 Du        
   1214 ****       206.0000  29.2500  71.5000 Du        
   1215 ****       206.0000  29.2500  71.7500 Du        
   1216 ****       206.0000  29.2500  72.0000 Du        
   1217 ****       206.0000  29.2500  72.2500 Du        
   1218 ****       206.0000  29.2500  72.5000 Du        
   1219 ****       206.0000  29.2500  72.7500 Du        
   1220 ****       206.0000  29.5000  71.2500 Du        
   1221 ****       206.0000  29.5000  71.5000 Du        
   1222 ****       206.0000  29.5000  71.7500 Du        
   1223 ****       206.0000  29.5000  72.0000 Du        
   1224 ****       206.0000  29.5000  72.2500 Du        
   1225 ****       206.0000  29.5000  72.5000 Du        
   1226 ****       206.0000  29.5000  72.7500 Du        
   1227 ****       206.0000  29.5000  73.0000 Du        
   1228 ****       206.0000  29.7500  71.2500 Du        
   1229 ****       206.0000  29.7500  71.5000 Du        
   1230 ****       206.0000  29.7500  71.7500 Du        
   1231 ****       206.0000  29.7500  72.0000 Du        
   1232 ****       206.0000  29.7500  72.2500 Du        
   1233 ****       206.0000  29.7500  72.5000 Du        
   1234 ****       206.0000  29.7500  72.7500 Du        
   1235 ****       206.0000  29.7500  73.0000 Du        
   1236 ****       206.0000  29.7500  73.2500 Du        
   1237 ****       206.0000  30.0000  71.5000 Du        
   1238 ****       206.0000  30.0000  71.7500 Du        
   1239 ****       206.0000  30.0000  72.0000 Du        
   1240 ****       206.0000  30.0000  72.2500 Du        
   1241 ****       206.0000  30.0000  72.5000 Du        
   1242 ****       206.0000  30.0000  72.7500 Du        
   1243 ****       206.0000  30.0000  73.0000 Du        
   1244 ****       206.0000  30.0000  73.2500 Du        
   1245 ****       206.0000  30.2500  72.0000 Du        
   1246 ****       206.0000  30.2500  72.2500 Du        
   1247 ****       206.0000  30.2500  72.5000 Du        
   1248 ****       206.0000  30.2500  72.7500 Du        
   1249 ****       206.0000  34.7500  69.0000 Du        
   1250 ****       206.0000  34.7500  69.2500 Du        
   1251 ****       206.0000  34.7500  69.5000 Du        
   1252 ****       206.0000  34.7500  69.7500 Du        
   1253 ****       206.0000  34.7500  70.0000 Du        
   1254 ****       206.0000  35.0000  69.0000 Du        
   1255 ****       206.0000  35.0000  69.2500 Du        
   1256 ****       206.0000  35.0000  69.5000 Du        
   1257 ****       206.0000  35.0000  69.7500 Du        
   1258 ****       206.0000  35.0000  70.0000 Du        
   1259 ****       206.0000  35.0000  70.2500 Du        
   1260 ****       206.0000  35.0000  70.5000 Du        
   1261 ****       206.0000  35.0000  70.7500 Du        
   1262 ****       206.0000  35.2500  69.0000 Du        
   1263 ****       206.0000  35.2500  69.2500 Du        
   1264 ****       206.0000  35.2500  69.5000 Du        
   1265 ****       206.0000  35.2500  69.7500 Du        
   1266 ****       206.0000  35.2500  70.0000 Du        
   1267 ****       206.0000  35.2500  70.2500 Du        
   1268 ****       206.0000  35.2500  70.5000 Du        
   1269 ****       206.0000  35.2500  70.7500 Du        
   1270 ****       206.0000  35.5000  68.7500 Du        
   1271 ****       206.0000  35.5000  69.0000 Du        
   1272 ****       206.0000  35.5000  69.2500 Du        
   1273 ****       206.0000  35.5000  69.5000 Du        
   1274 ****       206.0000  35.5000  69.7500 Du        
   1275 ****       206.0000  35.5000  70.0000 Du        
   1276 ****       206.0000  35.5000  70.2500 Du        
   1277 ****       206.0000  35.5000  70.5000 Du        
   1278 ****       206.0000  35.5000  70.7500 Du        
   1279 ****       206.0000  35.7500  68.7500 Du        
   1280 ****       206.0000  35.7500  69.0000 Du        
   1281 ****       206.0000  35.7500  69.2500 Du        
   1282 ****       206.0000  35.7500  69.5000 Du        
   1283 ****       206.0000  35.7500  69.7500 Du        
   1284 ****       206.0000  35.7500  70.0000 Du        
   1285 ****       206.0000  35.7500  70.2500 Du        
   1286 ****       206.0000  35.7500  70.5000 Du        
   1287 ****       206.0000  35.7500  70.7500 Du        
   1288 ****       206.0000  36.0000  68.7500 Du        
   1289 ****       206.0000  36.0000  69.0000 Du        
   1290 ****       206.0000  36.0000  69.2500 Du        
   1291 ****       206.0000  36.0000  69.5000 Du        
   1292 ****       206.0000  36.0000  69.7500 Du        
   1293 ****       206.0000  36.0000  70.0000 Du        
   1294 ****       206.0000  36.0000  70.2500 Du        
   1295 ****       206.0000  36.0000  70.5000 Du        
   1296 ****       206.0000  36.0000  70.7500 Du        
   1297 ****       206.0000  36.2500  68.7500 Du        
   1298 ****       206.0000  36.2500  69.0000 Du        
   1299 ****       206.0000  36.2500  69.2500 Du        
   1300 ****       206.0000  36.2500  69.5000 Du        
   1301 ****       206.0000  36.2500  69.7500 Du        
   1302 ****       206.0000  36.2500  70.0000 Du        
   1303 ****       206.0000  36.2500  70.2500 Du        
   1304 ****       206.0000  36.2500  70.5000 Du        
   1305 ****       206.0000  36.5000  68.7500 Du        
   1306 ****       206.0000  36.5000  69.0000 Du        
   1307 ****       206.0000  36.5000  69.2500 Du        
   1308 ****       206.0000  36.5000  69.5000 Du        
   1309 ****       206.0000  36.5000  69.7500 Du        
   1310 ****       206.0000  36.5000  70.0000 Du        
   1311 ****       206.0000  36.5000  70.2500 Du        
   1312 ****       206.0000  36.5000  70.5000 Du        
   1313 ****       206.0000  36.7500  69.0000 Du        
   1314 ****       206.0000  36.7500  69.2500 Du        
   1315 ****       206.0000  36.7500  69.5000 Du        
   1316 ****       206.0000  36.7500  69.7500 Du        
   1317 ****       206.0000  36.7500  70.0000 Du        
   1318 ****       206.0000  36.7500  70.2500 Du        
   1319 ****       206.0000  36.7500  70.5000 Du        
   1320 ****       206.0000  37.0000  69.0000 Du        
   1321 ****       206.0000  37.0000  69.2500 Du        
   1322 ****       206.0000  37.0000  69.5000 Du        
   1323 ****       206.0000  37.0000  69.7500 Du        
   1324 ****       206.0000  37.0000  70.0000 Du        
   1325 ****       206.0000  37.0000  70.2500 Du        
   1326 ****       206.0000  37.0000  70.5000 Du        
   1327 ****       206.0000  37.2500  69.2500 Du        
   1328 ****       206.0000  37.2500  69.5000 Du        
   1329 ****       206.0000  37.2500  69.7500 Du        
   1330 ****       206.0000  37.2500  70.0000 Du        
   1331 ****       206.0000  37.2500  70.2500 Du        
   1332 ****       206.0000  37.2500  70.5000 Du        
   1333 ****       206.0000  37.5000  69.5000 Du        
   1334 ****       206.0000  37.5000  69.7500 Du        
   1335 ****       206.0000  37.5000  70.0000 Du        
   1336 ****       206.0000  37.5000  70.2500 Du        
   1337 ****       206.0000  37.5000  70.5000 Du        
   1338 ****       206.0000  37.7500  69.5000 Du        
   1339 ****       206.0000  37.7500  69.7500 Du        
   1340 ****       206.0000  37.7500  70.0000 Du        
   1341 ****       206.0000  37.7500  70.2500 Du        
   1342 ****       206.0000  37.7500  70.5000 Du        
   1343 ****       206.0000  38.0000  69.7500 Du        
   1344 ****       206.0000  38.0000  70.0000 Du        
   1345 ****       206.0000  38.0000  70.2500 Du        
   1346 ****       206.0000  38.2500  70.0000 Du        
   1347 ****       206.2500  25.5000  70.5000 Du        
   1348 ****       206.2500  25.5000  70.7500 Du        
   1349 ****       206.2500  25.7500  70.2500 Du        
   1350 ****       206.2500  25.7500  70.5000 Du        
   1351 ****       206.2500  25.7500  70.7500 Du        
   1352 ****       206.2500  25.7500  71.0000 Du        
   1353 ****       206.2500  26.0000  70.0000 Du        
   1354 ****       206.2500  26.0000  70.2500 Du        
   1355 ****       206.2500  26.0000  70.5000 Du        
   1356 ****       206.2500  26.0000  70.7500 Du        
   1357 ****       206.2500  26.0000  71.0000 Du        
   1358 ****       206.2500  26.2500  69.7500 Du        
   1359 ****       206.2500  26.2500  70.0000 Du        
   1360 ****       206.2500  26.2500  70.2500 Du        
   1361 ****       206.2500  26.2500  70.5000 Du        
   1362 ****       206.2500  26.2500  70.7500 Du        
   1363 ****       206.2500  26.2500  71.0000 Du        
   1364 ****       206.2500  26.2500  71.2500 Du        
   1365 ****       206.2500  26.5000  69.5000 Du        
   1366 ****       206.2500  26.5000  69.7500 Du        
   1367 ****       206.2500  26.5000  70.0000 Du        
   1368 ****       206.2500  26.5000  70.2500 Du        
   1369 ****       206.2500  26.5000  70.5000 Du        
   1370 ****       206.2500  26.5000  70.7500 Du        
   1371 ****       206.2500  26.5000  71.0000 Du        
   1372 ****       206.2500  26.5000  71.2500 Du        
   1373 ****       206.2500  26.7500  69.2500 Du        
   1374 ****       206.2500  26.7500  69.5000 Du        
   1375 ****       206.2500  26.7500  69.7500 Du        
   1376 ****       206.2500  26.7500  70.0000 Du        
   1377 ****       206.2500  26.7500  70.2500 Du        
   1378 ****       206.2500  26.7500  70.5000 Du        
   1379 ****       206.2500  26.7500  70.7500 Du        
   1380 ****       206.2500  26.7500  71.0000 Du        
   1381 ****       206.2500  26.7500  71.2500 Du        
   1382 ****       206.2500  27.0000  69.2500 Du        
   1383 ****       206.2500  27.0000  69.5000 Du        
   1384 ****       206.2500  27.0000  69.7500 Du        
   1385 ****       206.2500  27.0000  70.0000 Du        
   1386 ****       206.2500  27.0000  70.2500 Du        
   1387 ****       206.2500  27.0000  70.5000 Du        
   1388 ****       206.2500  27.0000  70.7500 Du        
   1389 ****       206.2500  27.0000  71.0000 Du        
   1390 ****       206.2500  27.0000  71.2500 Du        
   1391 ****       206.2500  27.0000  71.5000 Du        
   1392 ****       206.2500  27.2500  69.7500 Du        
   1393 ****       206.2500  27.2500  70.0000 Du        
   1394 ****       206.2500  27.2500  70.2500 Du        
   1395 ****       206.2500  27.2500  70.5000 Du        
   1396 ****       206.2500  27.2500  70.7500 Du        
   1397 ****       206.2500  27.2500  71.0000 Du        
   1398 ****       206.2500  27.2500  71.2500 Du        
   1399 ****       206.2500  27.2500  71.5000 Du        
   1400 ****       206.2500  27.5000  70.0000 Du        
   1401 ****       206.2500  27.5000  70.2500 Du        
   1402 ****       206.2500  27.5000  70.5000 Du        
   1403 ****       206.2500  27.5000  70.7500 Du        
   1404 ****       206.2500  27.5000  71.0000 Du        
   1405 ****       206.2500  27.5000  71.2500 Du        
   1406 ****       206.2500  27.5000  71.5000 Du        
   1407 ****       206.2500  27.7500  70.2500 Du        
   1408 ****       206.2500  27.7500  70.5000 Du        
   1409 ****       206.2500  27.7500  70.7500 Du        
   1410 ****       206.2500  27.7500  71.0000 Du        
   1411 ****       206.2500  27.7500  71.2500 Du        
   1412 ****       206.2500  27.7500  71.5000 Du        
   1413 ****       206.2500  27.7500  71.7500 Du        
   1414 ****       206.2500  28.0000  70.5000 Du        
   1415 ****       206.2500  28.0000  70.7500 Du        
   1416 ****       206.2500  28.0000  71.0000 Du        
   1417 ****       206.2500  28.0000  71.2500 Du        
   1418 ****       206.2500  28.0000  71.5000 Du        
   1419 ****       206.2500  28.0000  71.7500 Du        
   1420 ****       206.2500  28.0000  72.0000 Du        
   1421 ****       206.2500  28.2500  70.7500 Du        
   1422 ****       206.2500  28.2500  71.0000 Du        
   1423 ****       206.2500  28.2500  71.2500 Du        
   1424 ****       206.2500  28.2500  71.5000 Du        
   1425 ****       206.2500  28.2500  71.7500 Du        
   1426 ****       206.2500  28.2500  72.0000 Du        
   1427 ****       206.2500  28.5000  71.0000 Du        
   1428 ****       206.2500  28.5000  71.2500 Du        
   1429 ****       206.2500  28.5000  71.5000 Du        
   1430 ****       206.2500  28.5000  71.7500 Du        
   1431 ****       206.2500  28.5000  72.0000 Du        
   1432 ****       206.2500  28.5000  72.2500 Du        
   1433 ****       206.2500  28.7500  71.0000 Du        
   1434 ****       206.2500  28.7500  71.2500 Du        
   1435 ****       206.2500  28.7500  71.5000 Du        
   1436 ****       206.2500  28.7500  71.7500 Du        
   1437 ****       206.2500  28.7500  72.0000 Du        
   1438 ****       206.2500  28.7500  72.2500 Du        
   1439 ****       206.2500  28.7500  72.5000 Du        
   1440 ****       206.2500  29.0000  71.0000 Du        
   1441 ****       206.2500  29.0000  71.2500 Du        
   1442 ****       206.2500  29.0000  71.5000 Du        
   1443 ****       206.2500  29.0000  71.7500 Du        
   1444 ****       206.2500  29.0000  72.0000 Du        
   1445 ****       206.2500  29.0000  72.2500 Du        
   1446 ****       206.2500  29.0000  72.5000 Du        
   1447 ****       206.2500  29.0000  72.7500 Du        
   1448 ****       206.2500  29.2500  71.2500 Du        
   1449 ****       206.2500  29.2500  71.5000 Du        
   1450 ****       206.2500  29.2500  71.7500 Du        
   1451 ****       206.2500  29.2500  72.0000 Du        
   1452 ****       206.2500  29.2500  72.2500 Du        
   1453 ****       206.2500  29.2500  72.5000 Du        
   1454 ****       206.2500  29.2500  72.7500 Du        
   1455 ****       206.2500  29.2500  73.0000 Du        
   1456 ****       206.2500  29.5000  71.2500 Du        
   1457 ****       206.2500  29.5000  71.5000 Du        
   1458 ****       206.2500  29.5000  71.7500 Du        
   1459 ****       206.2500  29.5000  72.0000 Du        
   1460 ****       206.2500  29.5000  72.2500 Du        
   1461 ****       206.2500  29.5000  72.5000 Du        
   1462 ****       206.2500  29.5000  72.7500 Du        
   1463 ****       206.2500  29.5000  73.0000 Du        
   1464 ****       206.2500  29.5000  73.2500 Du        
   1465 ****       206.2500  29.7500  71.2500 Du        
   1466 ****       206.2500  29.7500  71.5000 Du        
   1467 ****       206.2500  29.7500  71.7500 Du        
   1468 ****       206.2500  29.7500  72.0000 Du        
   1469 ****       206.2500  29.7500  72.2500 Du        
   1470 ****       206.2500  29.7500  72.5000 Du        
   1471 ****       206.2500  29.7500  72.7500 Du        
   1472 ****       206.2500  29.7500  73.0000 Du        
   1473 ****       206.2500  29.7500  73.2500 Du        
   1474 ****       206.2500  29.7500  73.5000 Du        
   1475 ****       206.2500  30.0000  71.2500 Du        
   1476 ****       206.2500  30.0000  71.5000 Du        
   1477 ****       206.2500  30.0000  71.7500 Du        
   1478 ****       206.2500  30.0000  72.0000 Du        
   1479 ****       206.2500  30.0000  72.2500 Du        
   1480 ****       206.2500  30.0000  72.5000 Du        
   1481 ****       206.2500  30.0000  72.7500 Du        
   1482 ****       206.2500  30.0000  73.0000 Du        
   1483 ****       206.2500  30.0000  73.2500 Du        
   1484 ****       206.2500  30.0000  73.5000 Du        
   1485 ****       206.2500  30.2500  71.5000 Du        
   1486 ****       206.2500  30.2500  71.7500 Du        
   1487 ****       206.2500  30.2500  72.0000 Du        
   1488 ****       206.2500  30.2500  72.2500 Du        
   1489 ****       206.2500  30.2500  72.5000 Du        
   1490 ****       206.2500  30.2500  72.7500 Du        
   1491 ****       206.2500  30.2500  73.0000 Du        
   1492 ****       206.2500  30.2500  73.2500 Du        
   1493 ****       206.2500  30.5000  72.0000 Du        
   1494 ****       206.2500  30.5000  72.2500 Du        
   1495 ****       206.2500  30.5000  72.5000 Du        
   1496 ****       206.2500  34.5000  69.2500 Du        
   1497 ****       206.2500  34.5000  69.5000 Du        
   1498 ****       206.2500  34.7500  69.0000 Du        
   1499 ****       206.2500  34.7500  69.2500 Du        
   1500 ****       206.2500  34.7500  69.5000 Du        
   1501 ****       206.2500  34.7500  69.7500 Du        
   1502 ****       206.2500  34.7500  70.0000 Du        
   1503 ****       206.2500  34.7500  70.2500 Du        
   1504 ****       206.2500  34.7500  70.5000 Du        
   1505 ****       206.2500  35.0000  68.7500 Du        
   1506 ****       206.2500  35.0000  69.0000 Du        
   1507 ****       206.2500  35.0000  69.2500 Du        
   1508 ****       206.2500  35.0000  69.5000 Du        
   1509 ****       206.2500  35.0000  69.7500 Du        
   1510 ****       206.2500  35.0000  70.0000 Du        
   1511 ****       206.2500  35.0000  70.2500 Du        
   1512 ****       206.2500  35.0000  70.5000 Du        
   1513 ****       206.2500  35.2500  68.7500 Du        
   1514 ****       206.2500  35.2500  69.0000 Du        
   1515 ****       206.2500  35.2500  69.2500 Du        
   1516 ****       206.2500  35.2500  69.5000 Du        
   1517 ****       206.2500  35.2500  69.7500 Du        
   1518 ****       206.2500  35.2500  70.0000 Du        
   1519 ****       206.2500  35.2500  70.2500 Du        
   1520 ****       206.2500  35.2500  70.5000 Du        
   1521 ****       206.2500  35.5000  68.7500 Du        
   1522 ****       206.2500  35.5000  69.0000 Du        
   1523 ****       206.2500  35.5000  69.2500 Du        
   1524 ****       206.2500  35.5000  69.5000 Du        
   1525 ****       206.2500  35.5000  69.7500 Du        
   1526 ****       206.2500  35.5000  70.0000 Du        
   1527 ****       206.2500  35.5000  70.2500 Du        
   1528 ****       206.2500  35.5000  70.5000 Du        
   1529 ****       206.2500  35.7500  68.7500 Du        
   1530 ****       206.2500  35.7500  69.0000 Du        
   1531 ****       206.2500  35.7500  69.2500 Du        
   1532 ****       206.2500  35.7500  69.5000 Du        
   1533 ****       206.2500  35.7500  69.7500 Du        
   1534 ****       206.2500  35.7500  70.0000 Du        
   1535 ****       206.2500  35.7500  70.2500 Du        
   1536 ****       206.2500  35.7500  70.5000 Du        
   1537 ****       206.2500  36.0000  68.7500 Du        
   1538 ****       206.2500  36.0000  69.0000 Du        
   1539 ****       206.2500  36.0000  69.2500 Du        
   1540 ****       206.2500  36.0000  69.5000 Du        
   1541 ****       206.2500  36.0000  69.7500 Du        
   1542 ****       206.2500  36.0000  70.0000 Du        
   1543 ****       206.2500  36.0000  70.2500 Du        
   1544 ****       206.2500  36.0000  70.5000 Du        
   1545 ****       206.2500  36.2500  68.7500 Du        
   1546 ****       206.2500  36.2500  69.0000 Du        
   1547 ****       206.2500  36.2500  69.2500 Du        
   1548 ****       206.2500  36.2500  69.5000 Du        
   1549 ****       206.2500  36.2500  69.7500 Du        
   1550 ****       206.2500  36.2500  70.0000 Du        
   1551 ****       206.2500  36.2500  70.2500 Du        
   1552 ****       206.2500  36.2500  70.5000 Du        
   1553 ****       206.2500  36.5000  68.7500 Du        
   1554 ****       206.2500  36.5000  69.0000 Du        
   1555 ****       206.2500  36.5000  69.2500 Du        
   1556 ****       206.2500  36.5000  69.5000 Du        
   1557 ****       206.2500  36.5000  69.7500 Du        
   1558 ****       206.2500  36.5000  70.0000 Du        
   1559 ****       206.2500  36.5000  70.2500 Du        
   1560 ****       206.2500  36.5000  70.5000 Du        
   1561 ****       206.2500  36.7500  68.7500 Du        
   1562 ****       206.2500  36.7500  69.0000 Du        
   1563 ****       206.2500  36.7500  69.2500 Du        
   1564 ****       206.2500  36.7500  69.5000 Du        
   1565 ****       206.2500  36.7500  69.7500 Du        
   1566 ****       206.2500  36.7500  70.0000 Du        
   1567 ****       206.2500  36.7500  70.2500 Du        
   1568 ****       206.2500  36.7500  70.5000 Du        
   1569 ****       206.2500  37.0000  69.0000 Du        
   1570 ****       206.2500  37.0000  69.2500 Du        
   1571 ****       206.2500  37.0000  69.5000 Du        
   1572 ****       206.2500  37.0000  69.7500 Du        
   1573 ****       206.2500  37.0000  70.0000 Du        
   1574 ****       206.2500  37.0000  70.2500 Du        
   1575 ****       206.2500  37.0000  70.5000 Du        
   1576 ****       206.2500  37.2500  69.0000 Du        
   1577 ****       206.2500  37.2500  69.2500 Du        
   1578 ****       206.2500  37.2500  69.5000 Du        
   1579 ****       206.2500  37.2500  69.7500 Du        
   1580 ****       206.2500  37.2500  70.0000 Du        
   1581 ****       206.2500  37.2500  70.2500 Du        
   1582 ****       206.2500  37.2500  70.5000 Du        
   1583 ****       206.2500  37.5000  69.2500 Du        
   1584 ****       206.2500  37.5000  69.5000 Du        
   1585 ****       206.2500  37.5000  69.7500 Du        
   1586 ****       206.2500  37.5000  70.0000 Du        
   1587 ****       206.2500  37.5000  70.2500 Du        
   1588 ****       206.2500  37.5000  70.5000 Du        
   1589 ****       206.2500  37.7500  69.5000 Du        
   1590 ****       206.2500  37.7500  69.7500 Du        
   1591 ****       206.2500  37.7500  70.0000 Du        
   1592 ****       206.2500  37.7500  70.2500 Du        
   1593 ****       206.2500  37.7500  70.5000 Du        
   1594 ****       206.2500  38.0000  69.5000 Du        
   1595 ****       206.2500  38.0000  69.7500 Du        
   1596 ****       206.2500  38.0000  70.0000 Du        
   1597 ****       206.2500  38.0000  70.2500 Du        
   1598 ****       206.2500  38.2500  69.7500 Du        
   1599 ****       206.2500  38.2500  70.0000 Du        
   1600 ****       206.5000  25.2500  70.5000 Du        
   1601 ****       206.5000  25.2500  70.7500 Du        
   1602 ****       206.5000  25.5000  70.2500 Du        
   1603 ****       206.5000  25.5000  70.5000 Du        
   1604 ****       206.5000  25.5000  70.7500 Du        
   1605 ****       206.5000  25.5000  71.0000 Du        
   1606 ****       206.5000  25.7500  70.0000 Du        
   1607 ****       206.5000  25.7500  70.2500 Du        
   1608 ****       206.5000  25.7500  70.5000 Du        
   1609 ****       206.5000  25.7500  70.7500 Du        
   1610 ****       206.5000  25.7500  71.0000 Du        
   1611 ****       206.5000  26.0000  69.7500 Du        
   1612 ****       206.5000  26.0000  70.0000 Du        
   1613 ****       206.5000  26.0000  70.2500 Du        
   1614 ****       206.5000  26.0000  70.5000 Du        
   1615 ****       206.5000  26.0000  70.7500 Du        
   1616 ****       206.5000  26.0000  71.0000 Du        
   1617 ****       206.5000  26.2500  69.5000 Du        
   1618 ****       206.5000  26.2500  69.7500 Du        
   1619 ****       206.5000  26.2500  70.0000 Du        
   1620 ****       206.5000  26.2500  70.2500 Du        
   1621 ****       206.5000  26.2500  70.5000 Du        
   1622 ****       206.5000  26.2500  70.7500 Du        
   1623 ****       206.5000  26.2500  71.0000 Du        
   1624 ****       206.5000  26.5000  69.5000 Du        
   1625 ****       206.5000  26.5000  69.7500 Du        
   1626 ****       206.5000  26.5000  70.0000 Du        
   1627 ****       206.5000  26.5000  70.2500 Du        
   1628 ****       206.5000  26.5000  70.5000 Du        
   1629 ****       206.5000  26.5000  70.7500 Du        
   1630 ****       206.5000  26.5000  71.0000 Du        
   1631 ****       206.5000  26.5000  71.2500 Du        
   1632 ****       206.5000  26.7500  69.2500 Du        
   1633 ****       206.5000  26.7500  69.5000 Du        
   1634 ****       206.5000  26.7500  69.7500 Du        
   1635 ****       206.5000  26.7500  70.0000 Du        
   1636 ****       206.5000  26.7500  70.2500 Du        
   1637 ****       206.5000  26.7500  70.5000 Du        
   1638 ****       206.5000  26.7500  70.7500 Du        
   1639 ****       206.5000  26.7500  71.0000 Du        
   1640 ****       206.5000  26.7500  71.2500 Du        
   1641 ****       206.5000  27.0000  69.5000 Du        
   1642 ****       206.5000  27.0000  69.7500 Du        
   1643 ****       206.5000  27.0000  70.0000 Du        
   1644 ****       206.5000  27.0000  70.2500 Du        
   1645 ****       206.5000  27.0000  70.5000 Du        
   1646 ****       206.5000  27.0000  70.7500 Du        
   1647 ****       206.5000  27.0000  71.0000 Du        
   1648 ****       206.5000  27.0000  71.2500 Du        
   1649 ****       206.5000  27.2500  70.0000 Du        
   1650 ****       206.5000  27.2500  70.2500 Du        
   1651 ****       206.5000  27.2500  70.5000 Du        
   1652 ****       206.5000  27.2500  70.7500 Du        
   1653 ****       206.5000  27.2500  71.0000 Du        
   1654 ****       206.5000  27.2500  71.2500 Du        
   1655 ****       206.5000  27.2500  71.5000 Du        
   1656 ****       206.5000  27.5000  70.2500 Du        
   1657 ****       206.5000  27.5000  70.5000 Du        
   1658 ****       206.5000  27.5000  70.7500 Du        
   1659 ****       206.5000  27.5000  71.0000 Du        
   1660 ****       206.5000  27.5000  71.2500 Du        
   1661 ****       206.5000  27.5000  71.5000 Du        
   1662 ****       206.5000  27.7500  70.5000 Du        
   1663 ****       206.5000  27.7500  70.7500 Du        
   1664 ****       206.5000  27.7500  71.0000 Du        
   1665 ****       206.5000  27.7500  71.2500 Du        
   1666 ****       206.5000  27.7500  71.5000 Du        
   1667 ****       206.5000  27.7500  71.7500 Du        
   1668 ****       206.5000  28.0000  70.7500 Du        
   1669 ****       206.5000  28.0000  71.0000 Du        
   1670 ****       206.5000  28.0000  71.2500 Du        
   1671 ****       206.5000  28.0000  71.5000 Du        
   1672 ****       206.5000  28.0000  71.7500 Du        
   1673 ****       206.5000  28.2500  70.7500 Du        
   1674 ****       206.5000  28.2500  71.0000 Du        
   1675 ****       206.5000  28.2500  71.2500 Du        
   1676 ****       206.5000  28.2500  71.5000 Du        
   1677 ****       206.5000  28.2500  71.7500 Du        
   1678 ****       206.5000  28.2500  72.0000 Du        
   1679 ****       206.5000  28.5000  71.0000 Du        
   1680 ****       206.5000  28.5000  71.2500 Du        
   1681 ****       206.5000  28.5000  71.5000 Du        
   1682 ****       206.5000  28.5000  71.7500 Du        
   1683 ****       206.5000  28.5000  72.0000 Du        
   1684 ****       206.5000  28.5000  72.2500 Du        
   1685 ****       206.5000  28.7500  71.2500 Du        
   1686 ****       206.5000  28.7500  71.5000 Du        
   1687 ****       206.5000  28.7500  71.7500 Du        
   1688 ****       206.5000  28.7500  72.0000 Du        
   1689 ****       206.5000  28.7500  72.2500 Du        
   1690 ****       206.5000  28.7500  72.5000 Du        
   1691 ****       206.5000  29.0000  71.2500 Du        
   1692 ****       206.5000  29.0000  71.5000 Du        
   1693 ****       206.5000  29.0000  71.7500 Du        
   1694 ****       206.5000  29.0000  72.0000 Du        
   1695 ****       206.5000  29.0000  72.2500 Du        
   1696 ****       206.5000  29.0000  72.5000 Du        
   1697 ****       206.5000  29.0000  72.7500 Du        
   1698 ****       206.5000  29.2500  71.2500 Du        
   1699 ****       206.5000  29.2500  71.5000 Du        
   1700 ****       206.5000  29.2500  71.7500 Du        
   1701 ****       206.5000  29.2500  72.0000 Du        
   1702 ****       206.5000  29.2500  72.2500 Du        
   1703 ****       206.5000  29.2500  72.5000 Du        
   1704 ****       206.5000  29.2500  72.7500 Du        
   1705 ****       206.5000  29.2500  73.0000 Du        
   1706 ****       206.5000  29.5000  71.2500 Du        
   1707 ****       206.5000  29.5000  71.5000 Du        
   1708 ****       206.5000  29.5000  71.7500 Du        
   1709 ****       206.5000  29.5000  72.0000 Du        
   1710 ****       206.5000  29.5000  72.2500 Du        
   1711 ****       206.5000  29.5000  72.5000 Du        
   1712 ****       206.5000  29.5000  72.7500 Du        
   1713 ****       206.5000  29.5000  73.0000 Du        
   1714 ****       206.5000  29.5000  73.2500 Du        
   1715 ****       206.5000  29.5000  73.5000 Du        
   1716 ****       206.5000  29.7500  71.2500 Du        
   1717 ****       206.5000  29.7500  71.5000 Du        
   1718 ****       206.5000  29.7500  71.7500 Du        
   1719 ****       206.5000  29.7500  72.0000 Du        
   1720 ****       206.5000  29.7500  72.2500 Du        
   1721 ****       206.5000  29.7500  72.5000 Du        
   1722 ****       206.5000  29.7500  72.7500 Du        
   1723 ****       206.5000  29.7500  73.0000 Du        
   1724 ****       206.5000  29.7500  73.2500 Du        
   1725 ****       206.5000  29.7500  73.5000 Du        
   1726 ****       206.5000  29.7500  73.7500 Du        
   1727 ****       206.5000  30.0000  71.2500 Du        
   1728 ****       206.5000  30.0000  71.5000 Du        
   1729 ****       206.5000  30.0000  71.7500 Du        
   1730 ****       206.5000  30.0000  72.0000 Du        
   1731 ****       206.5000  30.0000  72.2500 Du        
   1732 ****       206.5000  30.0000  72.5000 Du        
   1733 ****       206.5000  30.0000  72.7500 Du        
   1734 ****       206.5000  30.0000  73.0000 Du        
   1735 ****       206.5000  30.0000  73.2500 Du        
   1736 ****       206.5000  30.0000  73.5000 Du        
   1737 ****       206.5000  30.0000  73.7500 Du        
   1738 ****       206.5000  30.2500  71.2500 Du        
   1739 ****       206.5000  30.2500  71.5000 Du        
   1740 ****       206.5000  30.2500  71.7500 Du        
   1741 ****       206.5000  30.2500  72.0000 Du        
   1742 ****       206.5000  30.2500  72.2500 Du        
   1743 ****       206.5000  30.2500  72.5000 Du        
   1744 ****       206.5000  30.2500  72.7500 Du        
   1745 ****       206.5000  30.2500  73.0000 Du        
   1746 ****       206.5000  30.2500  73.2500 Du        
   1747 ****       206.5000  30.5000  71.5000 Du        
   1748 ****       206.5000  30.5000  71.7500 Du        
   1749 ****       206.5000  30.5000  72.0000 Du        
   1750 ****       206.5000  30.5000  72.2500 Du        
   1751 ****       206.5000  30.5000  72.5000 Du        
   1752 ****       206.5000  30.5000  72.7500 Du        
   1753 ****       206.5000  30.7500  72.0000 Du        
   1754 ****       206.5000  30.7500  72.2500 Du        
   1755 ****       206.5000  30.7500  72.5000 Du        
   1756 ****       206.5000  34.5000  69.0000 Du        
   1757 ****       206.5000  34.5000  69.2500 Du        
   1758 ****       206.5000  34.5000  69.5000 Du        
   1759 ****       206.5000  34.5000  69.7500 Du        
   1760 ****       206.5000  34.5000  70.0000 Du        
   1761 ****       206.5000  34.5000  70.2500 Du        
   1762 ****       206.5000  34.7500  68.7500 Du        
   1763 ****       206.5000  34.7500  69.0000 Du        
   1764 ****       206.5000  34.7500  69.2500 Du        
   1765 ****       206.5000  34.7500  69.5000 Du        
   1766 ****       206.5000  34.7500  69.7500 Du        
   1767 ****       206.5000  34.7500  70.0000 Du        
   1768 ****       206.5000  34.7500  70.2500 Du        
   1769 ****       206.5000  34.7500  70.5000 Du        
   1770 ****       206.5000  35.0000  68.7500 Du        
   1771 ****       206.5000  35.0000  69.0000 Du        
   1772 ****       206.5000  35.0000  69.2500 Du        
   1773 ****       206.5000  35.0000  69.5000 Du        
   1774 ****       206.5000  35.0000  69.7500 Du        
   1775 ****       206.5000  35.0000  70.0000 Du        
   1776 ****       206.5000  35.0000  70.2500 Du        
   1777 ****       206.5000  35.0000  70.5000 Du        
   1778 ****       206.5000  35.2500  68.7500 Du        
   1779 ****       206.5000  35.2500  69.0000 Du        
   1780 ****       206.5000  35.2500  69.2500 Du        
   1781 ****       206.5000  35.2500  69.5000 Du        
   1782 ****       206.5000  35.2500  69.7500 Du        
   1783 ****       206.5000  35.2500  70.0000 Du        
   1784 ****       206.5000  35.2500  70.2500 Du        
   1785 ****       206.5000  35.2500  70.5000 Du        
   1786 ****       206.5000  35.5000  68.5000 Du        
   1787 ****       206.5000  35.5000  68.7500 Du        
   1788 ****       206.5000  35.5000  69.0000 Du        
   1789 ****       206.5000  35.5000  69.2500 Du        
   1790 ****       206.5000  35.5000  69.5000 Du        
   1791 ****       206.5000  35.5000  69.7500 Du        
   1792 ****       206.5000  35.5000  70.0000 Du        
   1793 ****       206.5000  35.5000  70.2500 Du        
   1794 ****       206.5000  35.5000  70.5000 Du        
   1795 ****       206.5000  35.7500  68.5000 Du        
   1796 ****       206.5000  35.7500  68.7500 Du        
   1797 ****       206.5000  35.7500  69.0000 Du        
   1798 ****       206.5000  35.7500  69.2500 Du        
   1799 ****       206.5000  35.7500  69.5000 Du        
   1800 ****       206.5000  35.7500  69.7500 Du        
   1801 ****       206.5000  35.7500  70.0000 Du        
   1802 ****       206.5000  35.7500  70.2500 Du        
   1803 ****       206.5000  35.7500  70.5000 Du        
   1804 ****       206.5000  36.0000  68.5000 Du        
   1805 ****       206.5000  36.0000  68.7500 Du        
   1806 ****       206.5000  36.0000  69.0000 Du        
   1807 ****       206.5000  36.0000  69.2500 Du        
   1808 ****       206.5000  36.0000  69.5000 Du        
   1809 ****       206.5000  36.0000  69.7500 Du        
   1810 ****       206.5000  36.0000  70.0000 Du        
   1811 ****       206.5000  36.0000  70.2500 Du        
   1812 ****       206.5000  36.0000  70.5000 Du        
   1813 ****       206.5000  36.2500  68.5000 Du        
   1814 ****       206.5000  36.2500  68.7500 Du        
   1815 ****       206.5000  36.2500  69.0000 Du        
   1816 ****       206.5000  36.2500  69.2500 Du        
   1817 ****       206.5000  36.2500  69.5000 Du        
   1818 ****       206.5000  36.2500  69.7500 Du        
   1819 ****       206.5000  36.2500  70.0000 Du        
   1820 ****       206.5000  36.2500  70.2500 Du        
   1821 ****       206.5000  36.2500  70.5000 Du        
   1822 ****       206.5000  36.5000  68.5000 Du        
   1823 ****       206.5000  36.5000  68.7500 Du        
   1824 ****       206.5000  36.5000  69.0000 Du        
   1825 ****       206.5000  36.5000  69.2500 Du        
   1826 ****       206.5000  36.5000  69.5000 Du        
   1827 ****       206.5000  36.5000  69.7500 Du        
   1828 ****       206.5000  36.5000  70.0000 Du        
   1829 ****       206.5000  36.5000  70.2500 Du        
   1830 ****       206.5000  36.5000  70.5000 Du        
   1831 ****       206.5000  36.7500  68.5000 Du        
   1832 ****       206.5000  36.7500  68.7500 Du        
   1833 ****       206.5000  36.7500  69.0000 Du        
   1834 ****       206.5000  36.7500  69.2500 Du        
   1835 ****       206.5000  36.7500  69.5000 Du        
   1836 ****       206.5000  36.7500  69.7500 Du        
   1837 ****       206.5000  36.7500  70.0000 Du        
   1838 ****       206.5000  36.7500  70.2500 Du        
   1839 ****       206.5000  36.7500  70.5000 Du        
   1840 ****       206.5000  37.0000  68.7500 Du        
   1841 ****       206.5000  37.0000  69.0000 Du        
   1842 ****       206.5000  37.0000  69.2500 Du        
   1843 ****       206.5000  37.0000  69.5000 Du        
   1844 ****       206.5000  37.0000  69.7500 Du        
   1845 ****       206.5000  37.0000  70.0000 Du        
   1846 ****       206.5000  37.0000  70.2500 Du        
   1847 ****       206.5000  37.0000  70.5000 Du        
   1848 ****       206.5000  37.2500  68.7500 Du        
   1849 ****       206.5000  37.2500  69.0000 Du        
   1850 ****       206.5000  37.2500  69.2500 Du        
   1851 ****       206.5000  37.2500  69.5000 Du        
   1852 ****       206.5000  37.2500  69.7500 Du        
   1853 ****       206.5000  37.2500  70.0000 Du        
   1854 ****       206.5000  37.2500  70.2500 Du        
   1855 ****       206.5000  37.2500  70.5000 Du        
   1856 ****       206.5000  37.5000  69.0000 Du        
   1857 ****       206.5000  37.5000  69.2500 Du        
   1858 ****       206.5000  37.5000  69.5000 Du        
   1859 ****       206.5000  37.5000  69.7500 Du        
   1860 ****       206.5000  37.5000  70.0000 Du        
   1861 ****       206.5000  37.5000  70.2500 Du        
   1862 ****       206.5000  37.5000  70.5000 Du        
   1863 ****       206.5000  37.7500  69.2500 Du        
   1864 ****       206.5000  37.7500  69.5000 Du        
   1865 ****       206.5000  37.7500  69.7500 Du        
   1866 ****       206.5000  37.7500  70.0000 Du        
   1867 ****       206.5000  37.7500  70.2500 Du        
   1868 ****       206.5000  38.0000  69.5000 Du        
   1869 ****       206.5000  38.0000  69.7500 Du        
   1870 ****       206.5000  38.0000  70.0000 Du        
   1871 ****       206.5000  38.0000  70.2500 Du        
   1872 ****       206.5000  38.2500  69.7500 Du        
   1873 ****       206.5000  38.2500  70.0000 Du        
   1874 ****       206.7500  25.0000  70.5000 Du        
   1875 ****       206.7500  25.0000  70.7500 Du        
   1876 ****       206.7500  25.2500  70.2500 Du        
   1877 ****       206.7500  25.2500  70.5000 Du        
   1878 ****       206.7500  25.2500  70.7500 Du        
   1879 ****       206.7500  25.5000  70.0000 Du        
   1880 ****       206.7500  25.5000  70.2500 Du        
   1881 ****       206.7500  25.5000  70.5000 Du        
   1882 ****       206.7500  25.5000  70.7500 Du        
   1883 ****       206.7500  25.7500  69.7500 Du        
   1884 ****       206.7500  25.7500  70.0000 Du        
   1885 ****       206.7500  25.7500  70.2500 Du        
   1886 ****       206.7500  25.7500  70.5000 Du        
   1887 ****       206.7500  25.7500  70.7500 Du        
   1888 ****       206.7500  25.7500  71.0000 Du        
   1889 ****       206.7500  26.0000  69.5000 Du        
   1890 ****       206.7500  26.0000  69.7500 Du        
   1891 ****       206.7500  26.0000  70.0000 Du        
   1892 ****       206.7500  26.0000  70.2500 Du        
   1893 ****       206.7500  26.0000  70.5000 Du        
   1894 ****       206.7500  26.0000  70.7500 Du        
   1895 ****       206.7500  26.0000  71.0000 Du        
   1896 ****       206.7500  26.2500  69.5000 Du        
   1897 ****       206.7500  26.2500  69.7500 Du        
   1898 ****       206.7500  26.2500  70.0000 Du        
   1899 ****       206.7500  26.2500  70.2500 Du        
   1900 ****       206.7500  26.2500  70.5000 Du        
   1901 ****       206.7500  26.2500  70.7500 Du        
   1902 ****       206.7500  26.2500  71.0000 Du        
   1903 ****       206.7500  26.5000  69.2500 Du        
   1904 ****       206.7500  26.5000  69.5000 Du        
   1905 ****       206.7500  26.5000  69.7500 Du        
   1906 ****       206.7500  26.5000  70.0000 Du        
   1907 ****       206.7500  26.5000  70.2500 Du        
   1908 ****       206.7500  26.5000  70.5000 Du        
   1909 ****       206.7500  26.5000  70.7500 Du        
   1910 ****       206.7500  26.5000  71.0000 Du        
   1911 ****       206.7500  26.7500  69.2500 Du        
   1912 ****       206.7500  26.7500  69.5000 Du        
   1913 ****       206.7500  26.7500  69.7500 Du        
   1914 ****       206.7500  26.7500  70.0000 Du        
   1915 ****       206.7500  26.7500  70.2500 Du        
   1916 ****       206.7500  26.7500  70.5000 Du        
   1917 ****       206.7500  26.7500  70.7500 Du        
   1918 ****       206.7500  26.7500  71.0000 Du        
   1919 ****       206.7500  26.7500  71.2500 Du        
   1920 ****       206.7500  27.0000  69.7500 Du        
   1921 ****       206.7500  27.0000  70.0000 Du        
   1922 ****       206.7500  27.0000  70.2500 Du        
   1923 ****       206.7500  27.0000  70.5000 Du        
   1924 ****       206.7500  27.0000  70.7500 Du        
   1925 ****       206.7500  27.0000  71.0000 Du        
   1926 ****       206.7500  27.0000  71.2500 Du        
   1927 ****       206.7500  27.2500  70.0000 Du        
   1928 ****       206.7500  27.2500  70.2500 Du        
   1929 ****       206.7500  27.2500  70.5000 Du        
   1930 ****       206.7500  27.2500  70.7500 Du        
   1931 ****       206.7500  27.2500  71.0000 Du        
   1932 ****       206.7500  27.2500  71.2500 Du        
   1933 ****       206.7500  27.5000  70.2500 Du        
   1934 ****       206.7500  27.5000  70.5000 Du        
   1935 ****       206.7500  27.5000  70.7500 Du        
   1936 ****       206.7500  27.5000  71.0000 Du        
   1937 ****       206.7500  27.5000  71.2500 Du        
   1938 ****       206.7500  27.5000  71.5000 Du        
   1939 ****       206.7500  27.7500  70.7500 Du        
   1940 ****       206.7500  27.7500  71.0000 Du        
   1941 ****       206.7500  27.7500  71.2500 Du        
   1942 ****       206.7500  27.7500  71.5000 Du        
   1943 ****       206.7500  27.7500  71.7500 Du        
   1944 ****       206.7500  28.0000  70.7500 Du        
   1945 ****       206.7500  28.0000  71.0000 Du        
   1946 ****       206.7500  28.0000  71.2500 Du        
   1947 ****       206.7500  28.0000  71.5000 Du        
   1948 ****       206.7500  28.0000  71.7500 Du        
   1949 ****       206.7500  28.0000  72.0000 Du        
   1950 ****       206.7500  28.2500  71.0000 Du        
   1951 ****       206.7500  28.2500  71.2500 Du        
   1952 ****       206.7500  28.2500  71.5000 Du        
   1953 ****       206.7500  28.2500  71.7500 Du        
   1954 ****       206.7500  28.2500  72.0000 Du        
   1955 ****       206.7500  28.5000  71.0000 Du        
   1956 ****       206.7500  28.5000  71.2500 Du        
   1957 ****       206.7500  28.5000  71.5000 Du        
   1958 ****       206.7500  28.5000  71.7500 Du        
   1959 ****       206.7500  28.5000  72.0000 Du        
   1960 ****       206.7500  28.5000  72.2500 Du        
   1961 ****       206.7500  28.7500  71.2500 Du        
   1962 ****       206.7500  28.7500  71.5000 Du        
   1963 ****       206.7500  28.7500  71.7500 Du        
   1964 ****       206.7500  28.7500  72.0000 Du        
   1965 ****       206.7500  28.7500  72.2500 Du        
   1966 ****       206.7500  28.7500  72.5000 Du        
   1967 ****       206.7500  28.7500  72.7500 Du        
   1968 ****       206.7500  29.0000  71.2500 Du        
   1969 ****       206.7500  29.0000  71.5000 Du        
   1970 ****       206.7500  29.0000  71.7500 Du        
   1971 ****       206.7500  29.0000  72.0000 Du        
   1972 ****       206.7500  29.0000  72.2500 Du        
   1973 ****       206.7500  29.0000  72.5000 Du        
   1974 ****       206.7500  29.0000  72.7500 Du        
   1975 ****       206.7500  29.0000  73.0000 Du        
   1976 ****       206.7500  29.2500  71.2500 Du        
   1977 ****       206.7500  29.2500  71.5000 Du        
   1978 ****       206.7500  29.2500  71.7500 Du        
   1979 ****       206.7500  29.2500  72.0000 Du        
   1980 ****       206.7500  29.2500  72.2500 Du        
   1981 ****       206.7500  29.2500  72.5000 Du        
   1982 ****       206.7500  29.2500  72.7500 Du        
   1983 ****       206.7500  29.2500  73.0000 Du        
   1984 ****       206.7500  29.2500  73.2500 Du        
   1985 ****       206.7500  29.5000  71.2500 Du        
   1986 ****       206.7500  29.5000  71.5000 Du        
   1987 ****       206.7500  29.5000  71.7500 Du        
   1988 ****       206.7500  29.5000  72.0000 Du        
   1989 ****       206.7500  29.5000  72.2500 Du        
   1990 ****       206.7500  29.5000  72.5000 Du        
   1991 ****       206.7500  29.5000  72.7500 Du        
   1992 ****       206.7500  29.5000  73.0000 Du        
   1993 ****       206.7500  29.5000  73.2500 Du        
   1994 ****       206.7500  29.5000  73.5000 Du        
   1995 ****       206.7500  29.7500  71.2500 Du        
   1996 ****       206.7500  29.7500  71.5000 Du        
   1997 ****       206.7500  29.7500  71.7500 Du        
   1998 ****       206.7500  29.7500  72.0000 Du        
   1999 ****       206.7500  29.7500  72.2500 Du        
   2000 ****       206.7500  29.7500  72.5000 Du        
   2001 ****       206.7500  29.7500  72.7500 Du        
   2002 ****       206.7500  29.7500  73.0000 Du        
   2003 ****       206.7500  29.7500  73.2500 Du        
   2004 ****       206.7500  29.7500  73.5000 Du        
   2005 ****       206.7500  30.0000  71.2500 Du        
   2006 ****       206.7500  30.0000  71.5000 Du        
   2007 ****       206.7500  30.0000  71.7500 Du        
   2008 ****       206.7500  30.0000  72.0000 Du        
   2009 ****       206.7500  30.0000  72.2500 Du        
   2010 ****       206.7500  30.0000  72.5000 Du        
   2011 ****       206.7500  30.0000  72.7500 Du        
   2012 ****       206.7500  30.0000  73.0000 Du        
   2013 ****       206.7500  30.0000  73.2500 Du        
   2014 ****       206.7500  30.2500  71.2500 Du        
   2015 ****       206.7500  30.2500  71.5000 Du        
   2016 ****       206.7500  30.2500  71.7500 Du        
   2017 ****       206.7500  30.2500  72.0000 Du        
   2018 ****       206.7500  30.2500  72.2500 Du        
   2019 ****       206.7500  30.2500  72.5000 Du        
   2020 ****       206.7500  30.2500  72.7500 Du        
   2021 ****       206.7500  30.5000  71.2500 Du        
   2022 ****       206.7500  30.5000  71.5000 Du        
   2023 ****       206.7500  30.5000  71.7500 Du        
   2024 ****       206.7500  30.5000  72.0000 Du        
   2025 ****       206.7500  30.5000  72.2500 Du        
   2026 ****       206.7500  30.5000  72.5000 Du        
   2027 ****       206.7500  30.7500  71.5000 Du        
   2028 ****       206.7500  30.7500  71.7500 Du        
   2029 ****       206.7500  30.7500  72.0000 Du        
   2030 ****       206.7500  30.7500  72.2500 Du        
   2031 ****       206.7500  31.0000  71.7500 Du        
   2032 ****       206.7500  31.0000  72.0000 Du        
   2033 ****       206.7500  31.0000  72.2500 Du        
   2034 ****       206.7500  31.2500  72.0000 Du        
   2035 ****       206.7500  34.2500  69.0000 Du        
   2036 ****       206.7500  34.2500  69.2500 Du        
   2037 ****       206.7500  34.2500  69.5000 Du        
   2038 ****       206.7500  34.2500  69.7500 Du        
   2039 ****       206.7500  34.2500  70.0000 Du        
   2040 ****       206.7500  34.2500  70.2500 Du        
   2041 ****       206.7500  34.2500  70.5000 Du        
   2042 ****       206.7500  34.5000  68.7500 Du        
   2043 ****       206.7500  34.5000  69.0000 Du        
   2044 ****       206.7500  34.5000  69.2500 Du        
   2045 ****       206.7500  34.5000  69.5000 Du        
   2046 ****       206.7500  34.5000  69.7500 Du        
   2047 ****       206.7500  34.5000  70.0000 Du        
   2048 ****       206.7500  34.5000  70.2500 Du        
   2049 ****       206.7500  34.5000  70.5000 Du        
   2050 ****       206.7500  34.7500  68.7500 Du        
   2051 ****       206.7500  34.7500  69.0000 Du        
   2052 ****       206.7500  34.7500  69.2500 Du        
   2053 ****       206.7500  34.7500  69.5000 Du        
   2054 ****       206.7500  34.7500  69.7500 Du        
   2055 ****       206.7500  34.7500  70.0000 Du        
   2056 ****       206.7500  34.7500  70.2500 Du        
   2057 ****       206.7500  34.7500  70.5000 Du        
   2058 ****       206.7500  35.0000  68.5000 Du        
   2059 ****       206.7500  35.0000  68.7500 Du        
   2060 ****       206.7500  35.0000  69.0000 Du        
   2061 ****       206.7500  35.0000  69.2500 Du        
   2062 ****       206.7500  35.0000  69.5000 Du        
   2063 ****       206.7500  35.0000  69.7500 Du        
   2064 ****       206.7500  35.0000  70.0000 Du        
   2065 ****       206.7500  35.0000  70.2500 Du        
   2066 ****       206.7500  35.0000  70.5000 Du        
   2067 ****       206.7500  35.2500  68.5000 Du        
   2068 ****       206.7500  35.2500  68.7500 Du        
   2069 ****       206.7500  35.2500  69.0000 Du        
   2070 ****       206.7500  35.2500  69.2500 Du        
   2071 ****       206.7500  35.2500  69.5000 Du        
   2072 ****       206.7500  35.2500  69.7500 Du        
   2073 ****       206.7500  35.2500  70.0000 Du        
   2074 ****       206.7500  35.2500  70.2500 Du        
   2075 ****       206.7500  35.2500  70.5000 Du        
   2076 ****       206.7500  35.5000  68.5000 Du        
   2077 ****       206.7500  35.5000  68.7500 Du        
   2078 ****       206.7500  35.5000  69.0000 Du        
   2079 ****       206.7500  35.5000  69.2500 Du        
   2080 ****       206.7500  35.5000  69.5000 Du        
   2081 ****       206.7500  35.5000  69.7500 Du        
   2082 ****       206.7500  35.5000  70.0000 Du        
   2083 ****       206.7500  35.5000  70.2500 Du        
   2084 ****       206.7500  35.5000  70.5000 Du        
   2085 ****       206.7500  35.7500  68.5000 Du        
   2086 ****       206.7500  35.7500  68.7500 Du        
   2087 ****       206.7500  35.7500  69.0000 Du        
   2088 ****       206.7500  35.7500  69.2500 Du        
   2089 ****       206.7500  35.7500  69.5000 Du        
   2090 ****       206.7500  35.7500  69.7500 Du        
   2091 ****       206.7500  35.7500  70.0000 Du        
   2092 ****       206.7500  35.7500  70.2500 Du        
   2093 ****       206.7500  35.7500  70.5000 Du        
   2094 ****       206.7500  36.0000  68.2500 Du        
   2095 ****       206.7500  36.0000  68.5000 Du        
   2096 ****       206.7500  36.0000  68.7500 Du        
   2097 ****       206.7500  36.0000  69.0000 Du        
   2098 ****       206.7500  36.0000  69.2500 Du        
   2099 ****       206.7500  36.0000  69.5000 Du        
   2100 ****       206.7500  36.0000  69.7500 Du        
   2101 ****       206.7500  36.0000  70.0000 Du        
   2102 ****       206.7500  36.0000  70.2500 Du        
   2103 ****       206.7500  36.0000  70.5000 Du        
   2104 ****       206.7500  36.2500  68.2500 Du        
   2105 ****       206.7500  36.2500  68.5000 Du        
   2106 ****       206.7500  36.2500  68.7500 Du        
   2107 ****       206.7500  36.2500  69.0000 Du        
   2108 ****       206.7500  36.2500  69.2500 Du        
   2109 ****       206.7500  36.2500  69.5000 Du        
   2110 ****       206.7500  36.2500  69.7500 Du        
   2111 ****       206.7500  36.2500  70.0000 Du        
   2112 ****       206.7500  36.2500  70.2500 Du        
   2113 ****       206.7500  36.2500  70.5000 Du        
   2114 ****       206.7500  36.5000  68.2500 Du        
   2115 ****       206.7500  36.5000  68.5000 Du        
   2116 ****       206.7500  36.5000  68.7500 Du        
   2117 ****       206.7500  36.5000  69.0000 Du        
   2118 ****       206.7500  36.5000  69.2500 Du        
   2119 ****       206.7500  36.5000  69.5000 Du        
   2120 ****       206.7500  36.5000  69.7500 Du        
   2121 ****       206.7500  36.5000  70.0000 Du        
   2122 ****       206.7500  36.5000  70.2500 Du        
   2123 ****       206.7500  36.5000  70.5000 Du        
   2124 ****       206.7500  36.7500  68.2500 Du        
   2125 ****       206.7500  36.7500  68.5000 Du        
   2126 ****       206.7500  36.7500  68.7500 Du        
   2127 ****       206.7500  36.7500  69.0000 Du        
   2128 ****       206.7500  36.7500  69.2500 Du        
   2129 ****       206.7500  36.7500  69.5000 Du        
   2130 ****       206.7500  36.7500  69.7500 Du        
   2131 ****       206.7500  36.7500  70.0000 Du        
   2132 ****       206.7500  36.7500  70.2500 Du        
   2133 ****       206.7500  36.7500  70.5000 Du        
   2134 ****       206.7500  37.0000  68.5000 Du        
   2135 ****       206.7500  37.0000  68.7500 Du        
   2136 ****       206.7500  37.0000  69.0000 Du        
   2137 ****       206.7500  37.0000  69.2500 Du        
   2138 ****       206.7500  37.0000  69.5000 Du        
   2139 ****       206.7500  37.0000  69.7500 Du        
   2140 ****       206.7500  37.0000  70.0000 Du        
   2141 ****       206.7500  37.0000  70.2500 Du        
   2142 ****       206.7500  37.0000  70.5000 Du        
   2143 ****       206.7500  37.2500  68.5000 Du        
   2144 ****       206.7500  37.2500  68.7500 Du        
   2145 ****       206.7500  37.2500  69.0000 Du        
   2146 ****       206.7500  37.2500  69.2500 Du        
   2147 ****       206.7500  37.2500  69.5000 Du        
   2148 ****       206.7500  37.2500  69.7500 Du        
   2149 ****       206.7500  37.2500  70.0000 Du        
   2150 ****       206.7500  37.2500  70.2500 Du        
   2151 ****       206.7500  37.2500  70.5000 Du        
   2152 ****       206.7500  37.5000  68.7500 Du        
   2153 ****       206.7500  37.5000  69.0000 Du        
   2154 ****       206.7500  37.5000  69.2500 Du        
   2155 ****       206.7500  37.5000  69.5000 Du        
   2156 ****       206.7500  37.5000  69.7500 Du        
   2157 ****       206.7500  37.5000  70.0000 Du        
   2158 ****       206.7500  37.5000  70.2500 Du        
   2159 ****       206.7500  37.5000  70.5000 Du        
   2160 ****       206.7500  37.7500  69.0000 Du        
   2161 ****       206.7500  37.7500  69.2500 Du        
   2162 ****       206.7500  37.7500  69.5000 Du        
   2163 ****       206.7500  37.7500  69.7500 Du        
   2164 ****       206.7500  37.7500  70.0000 Du        
   2165 ****       206.7500  37.7500  70.2500 Du        
   2166 ****       206.7500  38.0000  69.2500 Du        
   2167 ****       206.7500  38.0000  69.5000 Du        
   2168 ****       206.7500  38.0000  69.7500 Du        
   2169 ****       206.7500  38.0000  70.0000 Du        
   2170 ****       206.7500  38.0000  70.2500 Du        
   2171 ****       206.7500  38.2500  69.5000 Du        
   2172 ****       206.7500  38.2500  69.7500 Du        
   2173 ****       207.0000  24.7500  70.7500 Du        
   2174 ****       207.0000  25.0000  70.2500 Du        
   2175 ****       207.0000  25.0000  70.5000 Du        
   2176 ****       207.0000  25.0000  70.7500 Du        
   2177 ****       207.0000  25.2500  70.0000 Du        
   2178 ****       207.0000  25.2500  70.2500 Du        
   2179 ****       207.0000  25.2500  70.5000 Du        
   2180 ****       207.0000  25.2500  70.7500 Du        
   2181 ****       207.0000  25.5000  69.7500 Du        
   2182 ****       207.0000  25.5000  70.0000 Du        
   2183 ****       207.0000  25.5000  70.2500 Du        
   2184 ****       207.0000  25.5000  70.5000 Du        
   2185 ****       207.0000  25.5000  70.7500 Du        
   2186 ****       207.0000  25.7500  69.5000 Du        
   2187 ****       207.0000  25.7500  69.7500 Du        
   2188 ****       207.0000  25.7500  70.0000 Du        
   2189 ****       207.0000  25.7500  70.2500 Du        
   2190 ****       207.0000  25.7500  70.5000 Du        
   2191 ****       207.0000  25.7500  70.7500 Du        
   2192 ****       207.0000  26.0000  69.5000 Du        
   2193 ****       207.0000  26.0000  69.7500 Du        
   2194 ****       207.0000  26.0000  70.0000 Du        
   2195 ****       207.0000  26.0000  70.2500 Du        
   2196 ****       207.0000  26.0000  70.5000 Du        
   2197 ****       207.0000  26.0000  70.7500 Du        
   2198 ****       207.0000  26.0000  71.0000 Du        
   2199 ****       207.0000  26.2500  69.2500 Du        
   2200 ****       207.0000  26.2500  69.5000 Du        
   2201 ****       207.0000  26.2500  69.7500 Du        
   2202 ****       207.0000  26.2500  70.0000 Du        
   2203 ****       207.0000  26.2500  70.2500 Du        
   2204 ****       207.0000  26.2500  70.5000 Du        
   2205 ****       207.0000  26.2500  70.7500 Du        
   2206 ****       207.0000  26.2500  71.0000 Du        
   2207 ****       207.0000  26.5000  69.2500 Du        
   2208 ****       207.0000  26.5000  69.5000 Du        
   2209 ****       207.0000  26.5000  69.7500 Du        
   2210 ****       207.0000  26.5000  70.0000 Du        
   2211 ****       207.0000  26.5000  70.2500 Du        
   2212 ****       207.0000  26.5000  70.5000 Du        
   2213 ****       207.0000  26.5000  70.7500 Du        
   2214 ****       207.0000  26.5000  71.0000 Du        
   2215 ****       207.0000  26.7500  69.2500 Du        
   2216 ****       207.0000  26.7500  69.5000 Du        
   2217 ****       207.0000  26.7500  69.7500 Du        
   2218 ****       207.0000  26.7500  70.0000 Du        
   2219 ****       207.0000  26.7500  70.2500 Du        
   2220 ****       207.0000  26.7500  70.5000 Du        
   2221 ****       207.0000  26.7500  70.7500 Du        
   2222 ****       207.0000  26.7500  71.0000 Du        
   2223 ****       207.0000  26.7500  71.2500 Du        
   2224 ****       207.0000  27.0000  69.7500 Du        
   2225 ****       207.0000  27.0000  70.0000 Du        
   2226 ****       207.0000  27.0000  70.2500 Du        
   2227 ****       207.0000  27.0000  70.5000 Du        
   2228 ****       207.0000  27.0000  70.7500 Du        
   2229 ****       207.0000  27.0000  71.0000 Du        
   2230 ****       207.0000  27.0000  71.2500 Du        
   2231 ****       207.0000  27.2500  70.2500 Du        
   2232 ****       207.0000  27.2500  70.5000 Du        
   2233 ****       207.0000  27.2500  70.7500 Du        
   2234 ****       207.0000  27.2500  71.0000 Du        
   2235 ****       207.0000  27.2500  71.2500 Du        
   2236 ****       207.0000  27.5000  70.5000 Du        
   2237 ****       207.0000  27.5000  70.7500 Du        
   2238 ****       207.0000  27.5000  71.0000 Du        
   2239 ****       207.0000  27.5000  71.2500 Du        
   2240 ****       207.0000  27.5000  71.5000 Du        
   2241 ****       207.0000  27.7500  70.7500 Du        
   2242 ****       207.0000  27.7500  71.0000 Du        
   2243 ****       207.0000  27.7500  71.2500 Du        
   2244 ****       207.0000  27.7500  71.5000 Du        
   2245 ****       207.0000  28.0000  70.7500 Du        
   2246 ****       207.0000  28.0000  71.0000 Du        
   2247 ****       207.0000  28.0000  71.2500 Du        
   2248 ****       207.0000  28.0000  71.5000 Du        
   2249 ****       207.0000  28.0000  71.7500 Du        
   2250 ****       207.0000  28.0000  72.0000 Du        
   2251 ****       207.0000  28.2500  71.0000 Du        
   2252 ****       207.0000  28.2500  71.2500 Du        
   2253 ****       207.0000  28.2500  71.5000 Du        
   2254 ****       207.0000  28.2500  71.7500 Du        
   2255 ****       207.0000  28.2500  72.0000 Du        
   2256 ****       207.0000  28.2500  72.2500 Du        
   2257 ****       207.0000  28.5000  71.2500 Du        
   2258 ****       207.0000  28.5000  71.5000 Du        
   2259 ****       207.0000  28.5000  71.7500 Du        
   2260 ****       207.0000  28.5000  72.0000 Du        
   2261 ****       207.0000  28.5000  72.2500 Du        
   2262 ****       207.0000  28.5000  72.5000 Du        
   2263 ****       207.0000  28.7500  71.2500 Du        
   2264 ****       207.0000  28.7500  71.5000 Du        
   2265 ****       207.0000  28.7500  71.7500 Du        
   2266 ****       207.0000  28.7500  72.0000 Du        
   2267 ****       207.0000  28.7500  72.2500 Du        
   2268 ****       207.0000  28.7500  72.5000 Du        
   2269 ****       207.0000  28.7500  72.7500 Du        
   2270 ****       207.0000  29.0000  71.2500 Du        
   2271 ****       207.0000  29.0000  71.5000 Du        
   2272 ****       207.0000  29.0000  71.7500 Du        
   2273 ****       207.0000  29.0000  72.0000 Du        
   2274 ****       207.0000  29.0000  72.2500 Du        
   2275 ****       207.0000  29.0000  72.5000 Du        
   2276 ****       207.0000  29.0000  72.7500 Du        
   2277 ****       207.0000  29.0000  73.0000 Du        
   2278 ****       207.0000  29.0000  73.2500 Du        
   2279 ****       207.0000  29.2500  71.5000 Du        
   2280 ****       207.0000  29.2500  71.7500 Du        
   2281 ****       207.0000  29.2500  72.0000 Du        
   2282 ****       207.0000  29.2500  72.2500 Du        
   2283 ****       207.0000  29.2500  72.5000 Du        
   2284 ****       207.0000  29.2500  72.7500 Du        
   2285 ****       207.0000  29.2500  73.0000 Du        
   2286 ****       207.0000  29.2500  73.2500 Du        
   2287 ****       207.0000  29.5000  71.5000 Du        
   2288 ****       207.0000  29.5000  71.7500 Du        
   2289 ****       207.0000  29.5000  72.0000 Du        
   2290 ****       207.0000  29.5000  72.2500 Du        
   2291 ****       207.0000  29.5000  72.5000 Du        
   2292 ****       207.0000  29.5000  72.7500 Du        
   2293 ****       207.0000  29.5000  73.0000 Du        
   2294 ****       207.0000  29.7500  71.2500 Du        
   2295 ****       207.0000  29.7500  71.5000 Du        
   2296 ****       207.0000  29.7500  71.7500 Du        
   2297 ****       207.0000  29.7500  72.0000 Du        
   2298 ****       207.0000  29.7500  72.2500 Du        
   2299 ****       207.0000  29.7500  72.5000 Du        
   2300 ****       207.0000  29.7500  72.7500 Du        
   2301 ****       207.0000  30.0000  71.2500 Du        
   2302 ****       207.0000  30.0000  71.5000 Du        
   2303 ****       207.0000  30.0000  71.7500 Du        
   2304 ****       207.0000  30.0000  72.0000 Du        
   2305 ****       207.0000  30.0000  72.2500 Du        
   2306 ****       207.0000  30.0000  72.5000 Du        
   2307 ****       207.0000  30.2500  71.2500 Du        
   2308 ****       207.0000  30.2500  71.5000 Du        
   2309 ****       207.0000  30.2500  71.7500 Du        
   2310 ****       207.0000  30.2500  72.0000 Du        
   2311 ****       207.0000  30.2500  72.2500 Du        
   2312 ****       207.0000  30.5000  71.2500 Du        
   2313 ****       207.0000  30.5000  71.5000 Du        
   2314 ****       207.0000  30.5000  71.7500 Du        
   2315 ****       207.0000  30.5000  72.0000 Du        
   2316 ****       207.0000  30.7500  71.2500 Du        
   2317 ****       207.0000  30.7500  71.5000 Du        
   2318 ****       207.0000  30.7500  71.7500 Du        
   2319 ****       207.0000  30.7500  72.0000 Du        
   2320 ****       207.0000  31.0000  71.2500 Du        
   2321 ****       207.0000  31.0000  71.5000 Du        
   2322 ****       207.0000  31.0000  71.7500 Du        
   2323 ****       207.0000  31.0000  72.0000 Du        
   2324 ****       207.0000  31.2500  71.5000 Du        
   2325 ****       207.0000  31.2500  71.7500 Du        
   2326 ****       207.0000  31.2500  72.0000 Du        
   2327 ****       207.0000  31.5000  71.7500 Du        
   2328 ****       207.0000  31.5000  72.0000 Du        
   2329 ****       207.0000  31.7500  71.7500 Du        
   2330 ****       207.0000  31.7500  72.0000 Du        
   2331 ****       207.0000  32.0000  72.0000 Du        
   2332 ****       207.0000  32.7500  72.0000 Du        
   2333 ****       207.0000  33.7500  70.0000 Du        
   2334 ****       207.0000  34.0000  69.2500 Du        
   2335 ****       207.0000  34.0000  69.5000 Du        
   2336 ****       207.0000  34.0000  69.7500 Du        
   2337 ****       207.0000  34.0000  70.0000 Du        
   2338 ****       207.0000  34.0000  70.2500 Du        
   2339 ****       207.0000  34.0000  70.5000 Du        
   2340 ****       207.0000  34.0000  70.7500 Du        
   2341 ****       207.0000  34.2500  69.0000 Du        
   2342 ****       207.0000  34.2500  69.2500 Du        
   2343 ****       207.0000  34.2500  69.5000 Du        
   2344 ****       207.0000  34.2500  69.7500 Du        
   2345 ****       207.0000  34.2500  70.0000 Du        
   2346 ****       207.0000  34.2500  70.2500 Du        
   2347 ****       207.0000  34.2500  70.5000 Du        
   2348 ****       207.0000  34.2500  70.7500 Du        
   2349 ****       207.0000  34.5000  68.7500 Du        
   2350 ****       207.0000  34.5000  69.0000 Du        
   2351 ****       207.0000  34.5000  69.2500 Du        
   2352 ****       207.0000  34.5000  69.5000 Du        
   2353 ****       207.0000  34.5000  69.7500 Du        
   2354 ****       207.0000  34.5000  70.0000 Du        
   2355 ****       207.0000  34.5000  70.2500 Du        
   2356 ****       207.0000  34.5000  70.5000 Du        
   2357 ****       207.0000  34.5000  70.7500 Du        
   2358 ****       207.0000  34.7500  68.5000 Du        
   2359 ****       207.0000  34.7500  68.7500 Du        
   2360 ****       207.0000  34.7500  69.0000 Du        
   2361 ****       207.0000  34.7500  69.2500 Du        
   2362 ****       207.0000  34.7500  69.5000 Du        
   2363 ****       207.0000  34.7500  69.7500 Du        
   2364 ****       207.0000  34.7500  70.0000 Du        
   2365 ****       207.0000  34.7500  70.2500 Du        
   2366 ****       207.0000  34.7500  70.5000 Du        
   2367 ****       207.0000  35.0000  68.5000 Du        
   2368 ****       207.0000  35.0000  68.7500 Du        
   2369 ****       207.0000  35.0000  69.0000 Du        
   2370 ****       207.0000  35.0000  69.2500 Du        
   2371 ****       207.0000  35.0000  69.5000 Du        
   2372 ****       207.0000  35.0000  69.7500 Du        
   2373 ****       207.0000  35.0000  70.0000 Du        
   2374 ****       207.0000  35.0000  70.2500 Du        
   2375 ****       207.0000  35.0000  70.5000 Du        
   2376 ****       207.0000  35.2500  68.5000 Du        
   2377 ****       207.0000  35.2500  68.7500 Du        
   2378 ****       207.0000  35.2500  69.0000 Du        
   2379 ****       207.0000  35.2500  69.2500 Du        
   2380 ****       207.0000  35.2500  69.5000 Du        
   2381 ****       207.0000  35.2500  69.7500 Du        
   2382 ****       207.0000  35.2500  70.0000 Du        
   2383 ****       207.0000  35.2500  70.2500 Du        
   2384 ****       207.0000  35.2500  70.5000 Du        
   2385 ****       207.0000  35.5000  68.2500 Du        
   2386 ****       207.0000  35.5000  68.5000 Du        
   2387 ****       207.0000  35.5000  68.7500 Du        
   2388 ****       207.0000  35.5000  69.0000 Du        
   2389 ****       207.0000  35.5000  69.2500 Du        
   2390 ****       207.0000  35.5000  69.5000 Du        
   2391 ****       207.0000  35.5000  69.7500 Du        
   2392 ****       207.0000  35.5000  70.0000 Du        
   2393 ****       207.0000  35.5000  70.2500 Du        
   2394 ****       207.0000  35.5000  70.5000 Du        
   2395 ****       207.0000  35.7500  68.2500 Du        
   2396 ****       207.0000  35.7500  68.5000 Du        
   2397 ****       207.0000  35.7500  68.7500 Du        
   2398 ****       207.0000  35.7500  69.0000 Du        
   2399 ****       207.0000  35.7500  69.2500 Du        
   2400 ****       207.0000  35.7500  69.5000 Du        
   2401 ****       207.0000  35.7500  69.7500 Du        
   2402 ****       207.0000  35.7500  70.0000 Du        
   2403 ****       207.0000  35.7500  70.2500 Du        
   2404 ****       207.0000  36.0000  68.2500 Du        
   2405 ****       207.0000  36.0000  68.5000 Du        
   2406 ****       207.0000  36.0000  68.7500 Du        
   2407 ****       207.0000  36.0000  69.0000 Du        
   2408 ****       207.0000  36.0000  69.2500 Du        
   2409 ****       207.0000  36.0000  69.5000 Du        
   2410 ****       207.0000  36.0000  69.7500 Du        
   2411 ****       207.0000  36.0000  70.0000 Du        
   2412 ****       207.0000  36.0000  70.2500 Du        
   2413 ****       207.0000  36.0000  70.5000 Du        
   2414 ****       207.0000  36.2500  68.0000 Du        
   2415 ****       207.0000  36.2500  68.2500 Du        
   2416 ****       207.0000  36.2500  68.5000 Du        
   2417 ****       207.0000  36.2500  68.7500 Du        
   2418 ****       207.0000  36.2500  69.0000 Du        
   2419 ****       207.0000  36.2500  69.2500 Du        
   2420 ****       207.0000  36.2500  69.5000 Du        
   2421 ****       207.0000  36.2500  69.7500 Du        
   2422 ****       207.0000  36.2500  70.0000 Du        
   2423 ****       207.0000  36.2500  70.2500 Du        
   2424 ****       207.0000  36.2500  70.5000 Du        
   2425 ****       207.0000  36.5000  68.0000 Du        
   2426 ****       207.0000  36.5000  68.2500 Du        
   2427 ****       207.0000  36.5000  68.5000 Du        
   2428 ****       207.0000  36.5000  68.7500 Du        
   2429 ****       207.0000  36.5000  69.0000 Du        
   2430 ****       207.0000  36.5000  69.2500 Du        
   2431 ****       207.0000  36.5000  69.5000 Du        
   2432 ****       207.0000  36.5000  69.7500 Du        
   2433 ****       207.0000  36.5000  70.0000 Du        
   2434 ****       207.0000  36.5000  70.2500 Du        
   2435 ****       207.0000  36.5000  70.5000 Du        
   2436 ****       207.0000  36.7500  68.0000 Du        
   2437 ****       207.0000  36.7500  68.2500 Du        
   2438 ****       207.0000  36.7500  68.5000 Du        
   2439 ****       207.0000  36.7500  68.7500 Du        
   2440 ****       207.0000  36.7500  69.0000 Du        
   2441 ****       207.0000  36.7500  69.2500 Du        
   2442 ****       207.0000  36.7500  69.5000 Du        
   2443 ****       207.0000  36.7500  69.7500 Du        
   2444 ****       207.0000  36.7500  70.0000 Du        
   2445 ****       207.0000  36.7500  70.2500 Du        
   2446 ****       207.0000  36.7500  70.5000 Du        
   2447 ****       207.0000  37.0000  68.2500 Du        
   2448 ****       207.0000  37.0000  68.5000 Du        
   2449 ****       207.0000  37.0000  68.7500 Du        
   2450 ****       207.0000  37.0000  69.0000 Du        
   2451 ****       207.0000  37.0000  69.2500 Du        
   2452 ****       207.0000  37.0000  69.5000 Du        
   2453 ****       207.0000  37.0000  69.7500 Du        
   2454 ****       207.0000  37.0000  70.0000 Du        
   2455 ****       207.0000  37.0000  70.2500 Du        
   2456 ****       207.0000  37.0000  70.5000 Du        
   2457 ****       207.0000  37.2500  68.5000 Du        
   2458 ****       207.0000  37.2500  68.7500 Du        
   2459 ****       207.0000  37.2500  69.0000 Du        
   2460 ****       207.0000  37.2500  69.2500 Du        
   2461 ****       207.0000  37.2500  69.5000 Du        
   2462 ****       207.0000  37.2500  69.7500 Du        
   2463 ****       207.0000  37.2500  70.0000 Du        
   2464 ****       207.0000  37.2500  70.2500 Du        
   2465 ****       207.0000  37.2500  70.5000 Du        
   2466 ****       207.0000  37.5000  68.7500 Du        
   2467 ****       207.0000  37.5000  69.0000 Du        
   2468 ****       207.0000  37.5000  69.2500 Du        
   2469 ****       207.0000  37.5000  69.5000 Du        
   2470 ****       207.0000  37.5000  69.7500 Du        
   2471 ****       207.0000  37.5000  70.0000 Du        
   2472 ****       207.0000  37.5000  70.2500 Du        
   2473 ****       207.0000  37.5000  70.5000 Du        
   2474 ****       207.0000  37.7500  68.7500 Du        
   2475 ****       207.0000  37.7500  69.0000 Du        
   2476 ****       207.0000  37.7500  69.2500 Du        
   2477 ****       207.0000  37.7500  69.5000 Du        
   2478 ****       207.0000  37.7500  69.7500 Du        
   2479 ****       207.0000  37.7500  70.0000 Du        
   2480 ****       207.0000  37.7500  70.2500 Du        
   2481 ****       207.0000  38.0000  69.0000 Du        
   2482 ****       207.0000  38.0000  69.2500 Du        
   2483 ****       207.0000  38.0000  69.5000 Du        
   2484 ****       207.0000  38.0000  69.7500 Du        
   2485 ****       207.0000  38.0000  70.0000 Du        
   2486 ****       207.0000  38.0000  70.2500 Du        
   2487 ****       207.0000  38.2500  69.2500 Du        
   2488 ****       207.0000  38.2500  69.5000 Du        
   2489 ****       207.0000  38.2500  69.7500 Du        
   2490 ****       207.2500  24.7500  70.5000 Du        
   2491 ****       207.2500  24.7500  70.7500 Du        
   2492 ****       207.2500  25.0000  70.2500 Du        
   2493 ****       207.2500  25.0000  70.5000 Du        
   2494 ****       207.2500  25.0000  70.7500 Du        
   2495 ****       207.2500  25.2500  70.0000 Du        
   2496 ****       207.2500  25.2500  70.2500 Du        
   2497 ****       207.2500  25.2500  70.5000 Du        
   2498 ****       207.2500  25.2500  70.7500 Du        
   2499 ****       207.2500  25.5000  69.7500 Du        
   2500 ****       207.2500  25.5000  70.0000 Du        
   2501 ****       207.2500  25.5000  70.2500 Du        
   2502 ****       207.2500  25.5000  70.5000 Du        
   2503 ****       207.2500  25.5000  70.7500 Du        
   2504 ****       207.2500  25.7500  69.5000 Du        
   2505 ****       207.2500  25.7500  69.7500 Du        
   2506 ****       207.2500  25.7500  70.0000 Du        
   2507 ****       207.2500  25.7500  70.2500 Du        
   2508 ****       207.2500  25.7500  70.5000 Du        
   2509 ****       207.2500  25.7500  70.7500 Du        
   2510 ****       207.2500  26.0000  69.2500 Du        
   2511 ****       207.2500  26.0000  69.5000 Du        
   2512 ****       207.2500  26.0000  69.7500 Du        
   2513 ****       207.2500  26.0000  70.0000 Du        
   2514 ****       207.2500  26.0000  70.2500 Du        
   2515 ****       207.2500  26.0000  70.5000 Du        
   2516 ****       207.2500  26.0000  70.7500 Du        
   2517 ****       207.2500  26.2500  69.2500 Du        
   2518 ****       207.2500  26.2500  69.5000 Du        
   2519 ****       207.2500  26.2500  69.7500 Du        
   2520 ****       207.2500  26.2500  70.0000 Du        
   2521 ****       207.2500  26.2500  70.2500 Du        
   2522 ****       207.2500  26.2500  70.5000 Du        
   2523 ****       207.2500  26.2500  70.7500 Du        
   2524 ****       207.2500  26.2500  71.0000 Du        
   2525 ****       207.2500  26.5000  69.2500 Du        
   2526 ****       207.2500  26.5000  69.5000 Du        
   2527 ****       207.2500  26.5000  69.7500 Du        
   2528 ****       207.2500  26.5000  70.0000 Du        
   2529 ****       207.2500  26.5000  70.2500 Du        
   2530 ****       207.2500  26.5000  70.5000 Du        
   2531 ****       207.2500  26.5000  70.7500 Du        
   2532 ****       207.2500  26.5000  71.0000 Du        
   2533 ****       207.2500  26.7500  69.5000 Du        
   2534 ****       207.2500  26.7500  69.7500 Du        
   2535 ****       207.2500  26.7500  70.0000 Du        
   2536 ****       207.2500  26.7500  70.2500 Du        
   2537 ****       207.2500  26.7500  70.5000 Du        
   2538 ****       207.2500  26.7500  70.7500 Du        
   2539 ****       207.2500  26.7500  71.0000 Du        
   2540 ****       207.2500  27.0000  70.0000 Du        
   2541 ****       207.2500  27.0000  70.2500 Du        
   2542 ****       207.2500  27.0000  70.5000 Du        
   2543 ****       207.2500  27.0000  70.7500 Du        
   2544 ****       207.2500  27.0000  71.0000 Du        
   2545 ****       207.2500  27.0000  71.2500 Du        
   2546 ****       207.2500  27.2500  70.2500 Du        
   2547 ****       207.2500  27.2500  70.5000 Du        
   2548 ****       207.2500  27.2500  70.7500 Du        
   2549 ****       207.2500  27.2500  71.0000 Du        
   2550 ****       207.2500  27.2500  71.2500 Du        
   2551 ****       207.2500  27.5000  70.7500 Du        
   2552 ****       207.2500  27.5000  71.0000 Du        
   2553 ****       207.2500  27.5000  71.2500 Du        
   2554 ****       207.2500  27.5000  71.5000 Du        
   2555 ****       207.2500  27.7500  70.7500 Du        
   2556 ****       207.2500  27.7500  71.0000 Du        
   2557 ****       207.2500  27.7500  71.2500 Du        
   2558 ****       207.2500  27.7500  71.5000 Du        
   2559 ****       207.2500  28.0000  71.0000 Du        
   2560 ****       207.2500  28.0000  71.2500 Du        
   2561 ****       207.2500  28.0000  71.5000 Du        
   2562 ****       207.2500  28.0000  71.7500 Du        
   2563 ****       207.2500  28.2500  71.0000 Du        
   2564 ****       207.2500  28.2500  71.2500 Du        
   2565 ****       207.2500  28.2500  71.5000 Du        
   2566 ****       207.2500  28.2500  71.7500 Du        
   2567 ****       207.2500  28.2500  72.0000 Du        
   2568 ****       207.2500  28.2500  72.2500 Du        
   2569 ****       207.2500  28.5000  71.2500 Du        
   2570 ****       207.2500  28.5000  71.5000 Du        
   2571 ****       207.2500  28.5000  71.7500 Du        
   2572 ****       207.2500  28.5000  72.0000 Du        
   2573 ****       207.2500  28.5000  72.2500 Du        
   2574 ****       207.2500  28.5000  72.5000 Du        
   2575 ****       207.2500  28.7500  71.2500 Du        
   2576 ****       207.2500  28.7500  71.5000 Du        
   2577 ****       207.2500  28.7500  71.7500 Du        
   2578 ****       207.2500  28.7500  72.0000 Du        
   2579 ****       207.2500  28.7500  72.2500 Du        
   2580 ****       207.2500  28.7500  72.5000 Du        
   2581 ****       207.2500  28.7500  72.7500 Du        
   2582 ****       207.2500  28.7500  73.0000 Du        
   2583 ****       207.2500  29.0000  71.5000 Du        
   2584 ****       207.2500  29.0000  71.7500 Du        
   2585 ****       207.2500  29.0000  72.0000 Du        
   2586 ****       207.2500  29.0000  72.2500 Du        
   2587 ****       207.2500  29.0000  72.5000 Du        
   2588 ****       207.2500  29.0000  72.7500 Du        
   2589 ****       207.2500  29.0000  73.0000 Du        
   2590 ****       207.2500  29.0000  73.2500 Du        
   2591 ****       207.2500  29.2500  71.5000 Du        
   2592 ****       207.2500  29.2500  71.7500 Du        
   2593 ****       207.2500  29.2500  72.0000 Du        
   2594 ****       207.2500  29.2500  72.2500 Du        
   2595 ****       207.2500  29.2500  72.5000 Du        
   2596 ****       207.2500  29.2500  72.7500 Du        
   2597 ****       207.2500  29.2500  73.0000 Du        
   2598 ****       207.2500  29.5000  71.5000 Du        
   2599 ****       207.2500  29.5000  71.7500 Du        
   2600 ****       207.2500  29.5000  72.0000 Du        
   2601 ****       207.2500  29.5000  72.2500 Du        
   2602 ****       207.2500  29.5000  72.5000 Du        
   2603 ****       207.2500  29.7500  71.5000 Du        
   2604 ****       207.2500  29.7500  71.7500 Du        
   2605 ****       207.2500  29.7500  72.0000 Du        
   2606 ****       207.2500  29.7500  72.2500 Du        
   2607 ****       207.2500  30.0000  71.2500 Du        
   2608 ****       207.2500  30.0000  71.5000 Du        
   2609 ****       207.2500  30.0000  71.7500 Du        
   2610 ****       207.2500  30.0000  72.0000 Du        
   2611 ****       207.2500  30.0000  72.2500 Du        
   2612 ****       207.2500  30.2500  71.2500 Du        
   2613 ****       207.2500  30.2500  71.5000 Du        
   2614 ****       207.2500  30.2500  71.7500 Du        
   2615 ****       207.2500  30.2500  72.0000 Du        
   2616 ****       207.2500  30.5000  71.2500 Du        
   2617 ****       207.2500  30.5000  71.5000 Du        
   2618 ****       207.2500  30.5000  71.7500 Du        
   2619 ****       207.2500  30.7500  71.2500 Du        
   2620 ****       207.2500  30.7500  71.5000 Du        
   2621 ****       207.2500  30.7500  71.7500 Du        
   2622 ****       207.2500  31.0000  71.2500 Du        
   2623 ****       207.2500  31.0000  71.5000 Du        
   2624 ****       207.2500  31.0000  71.7500 Du        
   2625 ****       207.2500  31.2500  71.2500 Du        
   2626 ****       207.2500  31.2500  71.5000 Du        
   2627 ****       207.2500  31.2500  71.7500 Du        
   2628 ****       207.2500  31.5000  71.2500 Du        
   2629 ****       207.2500  31.5000  71.5000 Du        
   2630 ****       207.2500  31.5000  71.7500 Du        
   2631 ****       207.2500  31.7500  71.2500 Du        
   2632 ****       207.2500  31.7500  71.5000 Du        
   2633 ****       207.2500  31.7500  71.7500 Du        
   2634 ****       207.2500  31.7500  72.0000 Du        
   2635 ****       207.2500  32.0000  71.2500 Du        
   2636 ****       207.2500  32.0000  71.5000 Du        
   2637 ****       207.2500  32.0000  71.7500 Du        
   2638 ****       207.2500  32.0000  72.0000 Du        
   2639 ****       207.2500  32.2500  71.5000 Du        
   2640 ****       207.2500  32.2500  71.7500 Du        
   2641 ****       207.2500  32.2500  72.0000 Du        
   2642 ****       207.2500  32.5000  71.2500 Du        
   2643 ****       207.2500  32.5000  71.5000 Du        
   2644 ****       207.2500  32.5000  71.7500 Du        
   2645 ****       207.2500  32.5000  72.0000 Du        
   2646 ****       207.2500  32.5000  72.2500 Du        
   2647 ****       207.2500  32.7500  71.2500 Du        
   2648 ****       207.2500  32.7500  71.5000 Du        
   2649 ****       207.2500  32.7500  71.7500 Du        
   2650 ****       207.2500  32.7500  72.0000 Du        
   2651 ****       207.2500  32.7500  72.2500 Du        
   2652 ****       207.2500  33.0000  71.0000 Du        
   2653 ****       207.2500  33.0000  71.2500 Du        
   2654 ****       207.2500  33.0000  71.5000 Du        
   2655 ****       207.2500  33.0000  71.7500 Du        
   2656 ****       207.2500  33.0000  72.0000 Du        
   2657 ****       207.2500  33.0000  72.2500 Du        
   2658 ****       207.2500  33.2500  70.5000 Du        
   2659 ****       207.2500  33.2500  70.7500 Du        
   2660 ****       207.2500  33.2500  71.0000 Du        
   2661 ****       207.2500  33.2500  71.2500 Du        
   2662 ****       207.2500  33.2500  71.5000 Du        
   2663 ****       207.2500  33.2500  71.7500 Du        
   2664 ****       207.2500  33.5000  70.0000 Du        
   2665 ****       207.2500  33.5000  70.2500 Du        
   2666 ****       207.2500  33.5000  70.5000 Du        
   2667 ****       207.2500  33.5000  70.7500 Du        
   2668 ****       207.2500  33.5000  71.0000 Du        
   2669 ****       207.2500  33.5000  71.2500 Du        
   2670 ****       207.2500  33.5000  71.5000 Du        
   2671 ****       207.2500  33.7500  69.5000 Du        
   2672 ****       207.2500  33.7500  69.7500 Du        
   2673 ****       207.2500  33.7500  70.0000 Du        
   2674 ****       207.2500  33.7500  70.2500 Du        
   2675 ****       207.2500  33.7500  70.5000 Du        
   2676 ****       207.2500  33.7500  70.7500 Du        
   2677 ****       207.2500  33.7500  71.0000 Du        
   2678 ****       207.2500  33.7500  71.2500 Du        
   2679 ****       207.2500  34.0000  69.0000 Du        
   2680 ****       207.2500  34.0000  69.2500 Du        
   2681 ****       207.2500  34.0000  69.5000 Du        
   2682 ****       207.2500  34.0000  69.7500 Du        
   2683 ****       207.2500  34.0000  70.0000 Du        
   2684 ****       207.2500  34.0000  70.2500 Du        
   2685 ****       207.2500  34.0000  70.5000 Du        
   2686 ****       207.2500  34.0000  70.7500 Du        
   2687 ****       207.2500  34.0000  71.0000 Du        
   2688 ****       207.2500  34.2500  68.7500 Du        
   2689 ****       207.2500  34.2500  69.0000 Du        
   2690 ****       207.2500  34.2500  69.2500 Du        
   2691 ****       207.2500  34.2500  69.5000 Du        
   2692 ****       207.2500  34.2500  69.7500 Du        
   2693 ****       207.2500  34.2500  70.0000 Du        
   2694 ****       207.2500  34.2500  70.2500 Du        
   2695 ****       207.2500  34.2500  70.5000 Du        
   2696 ****       207.2500  34.2500  70.7500 Du        
   2697 ****       207.2500  34.5000  68.5000 Du        
   2698 ****       207.2500  34.5000  68.7500 Du        
   2699 ****       207.2500  34.5000  69.0000 Du        
   2700 ****       207.2500  34.5000  69.2500 Du        
   2701 ****       207.2500  34.5000  69.5000 Du        
   2702 ****       207.2500  34.5000  69.7500 Du        
   2703 ****       207.2500  34.5000  70.0000 Du        
   2704 ****       207.2500  34.5000  70.2500 Du        
   2705 ****       207.2500  34.5000  70.5000 Du        
   2706 ****       207.2500  34.5000  70.7500 Du        
   2707 ****       207.2500  34.7500  68.5000 Du        
   2708 ****       207.2500  34.7500  68.7500 Du        
   2709 ****       207.2500  34.7500  69.0000 Du        
   2710 ****       207.2500  34.7500  69.2500 Du        
   2711 ****       207.2500  34.7500  69.5000 Du        
   2712 ****       207.2500  34.7500  69.7500 Du        
   2713 ****       207.2500  34.7500  70.0000 Du        
   2714 ****       207.2500  34.7500  70.2500 Du        
   2715 ****       207.2500  34.7500  70.5000 Du        
   2716 ****       207.2500  35.0000  68.2500 Du        
   2717 ****       207.2500  35.0000  68.5000 Du        
   2718 ****       207.2500  35.0000  68.7500 Du        
   2719 ****       207.2500  35.0000  69.0000 Du        
   2720 ****       207.2500  35.0000  69.2500 Du        
   2721 ****       207.2500  35.0000  69.5000 Du        
   2722 ****       207.2500  35.0000  69.7500 Du        
   2723 ****       207.2500  35.0000  70.0000 Du        
   2724 ****       207.2500  35.0000  70.2500 Du        
   2725 ****       207.2500  35.0000  70.5000 Du        
   2726 ****       207.2500  35.2500  68.2500 Du        
   2727 ****       207.2500  35.2500  68.5000 Du        
   2728 ****       207.2500  35.2500  68.7500 Du        
   2729 ****       207.2500  35.2500  69.0000 Du        
   2730 ****       207.2500  35.2500  69.2500 Du        
   2731 ****       207.2500  35.2500  69.5000 Du        
   2732 ****       207.2500  35.2500  69.7500 Du        
   2733 ****       207.2500  35.2500  70.0000 Du        
   2734 ****       207.2500  35.2500  70.2500 Du        
   2735 ****       207.2500  35.2500  70.5000 Du        
   2736 ****       207.2500  35.5000  68.2500 Du        
   2737 ****       207.2500  35.5000  68.5000 Du        
   2738 ****       207.2500  35.5000  68.7500 Du        
   2739 ****       207.2500  35.5000  69.0000 Du        
   2740 ****       207.2500  35.5000  69.2500 Du        
   2741 ****       207.2500  35.5000  69.5000 Du        
   2742 ****       207.2500  35.5000  69.7500 Du        
   2743 ****       207.2500  35.5000  70.0000 Du        
   2744 ****       207.2500  35.5000  70.2500 Du        
   2745 ****       207.2500  35.7500  68.2500 Du        
   2746 ****       207.2500  35.7500  68.5000 Du        
   2747 ****       207.2500  35.7500  68.7500 Du        
   2748 ****       207.2500  35.7500  69.0000 Du        
   2749 ****       207.2500  35.7500  69.2500 Du        
   2750 ****       207.2500  35.7500  69.5000 Du        
   2751 ****       207.2500  35.7500  69.7500 Du        
   2752 ****       207.2500  35.7500  70.0000 Du        
   2753 ****       207.2500  35.7500  70.2500 Du        
   2754 ****       207.2500  36.0000  68.0000 Du        
   2755 ****       207.2500  36.0000  68.2500 Du        
   2756 ****       207.2500  36.0000  68.5000 Du        
   2757 ****       207.2500  36.0000  68.7500 Du        
   2758 ****       207.2500  36.0000  69.0000 Du        
   2759 ****       207.2500  36.0000  69.2500 Du        
   2760 ****       207.2500  36.0000  69.5000 Du        
   2761 ****       207.2500  36.0000  69.7500 Du        
   2762 ****       207.2500  36.0000  70.0000 Du        
   2763 ****       207.2500  36.0000  70.2500 Du        
   2764 ****       207.2500  36.2500  68.0000 Du        
   2765 ****       207.2500  36.2500  68.2500 Du        
   2766 ****       207.2500  36.2500  68.5000 Du        
   2767 ****       207.2500  36.2500  68.7500 Du        
   2768 ****       207.2500  36.2500  69.0000 Du        
   2769 ****       207.2500  36.2500  69.2500 Du        
   2770 ****       207.2500  36.2500  69.5000 Du        
   2771 ****       207.2500  36.2500  69.7500 Du        
   2772 ****       207.2500  36.2500  70.0000 Du        
   2773 ****       207.2500  36.2500  70.2500 Du        
   2774 ****       207.2500  36.2500  70.5000 Du        
   2775 ****       207.2500  36.5000  68.0000 Du        
   2776 ****       207.2500  36.5000  68.2500 Du        
   2777 ****       207.2500  36.5000  68.5000 Du        
   2778 ****       207.2500  36.5000  68.7500 Du        
   2779 ****       207.2500  36.5000  69.0000 Du        
   2780 ****       207.2500  36.5000  69.2500 Du        
   2781 ****       207.2500  36.5000  69.5000 Du        
   2782 ****       207.2500  36.5000  69.7500 Du        
   2783 ****       207.2500  36.5000  70.0000 Du        
   2784 ****       207.2500  36.5000  70.2500 Du        
   2785 ****       207.2500  36.5000  70.5000 Du        
   2786 ****       207.2500  36.7500  68.0000 Du        
   2787 ****       207.2500  36.7500  68.2500 Du        
   2788 ****       207.2500  36.7500  68.5000 Du        
   2789 ****       207.2500  36.7500  68.7500 Du        
   2790 ****       207.2500  36.7500  69.0000 Du        
   2791 ****       207.2500  36.7500  69.2500 Du        
   2792 ****       207.2500  36.7500  69.5000 Du        
   2793 ****       207.2500  36.7500  69.7500 Du        
   2794 ****       207.2500  36.7500  70.0000 Du        
   2795 ****       207.2500  36.7500  70.2500 Du        
   2796 ****       207.2500  36.7500  70.5000 Du        
   2797 ****       207.2500  37.0000  68.0000 Du        
   2798 ****       207.2500  37.0000  68.2500 Du        
   2799 ****       207.2500  37.0000  68.5000 Du        
   2800 ****       207.2500  37.0000  68.7500 Du        
   2801 ****       207.2500  37.0000  69.0000 Du        
   2802 ****       207.2500  37.0000  69.2500 Du        
   2803 ****       207.2500  37.0000  69.5000 Du        
   2804 ****       207.2500  37.0000  69.7500 Du        
   2805 ****       207.2500  37.0000  70.0000 Du        
   2806 ****       207.2500  37.0000  70.2500 Du        
   2807 ****       207.2500  37.0000  70.5000 Du        
   2808 ****       207.2500  37.2500  68.2500 Du        
   2809 ****       207.2500  37.2500  68.5000 Du        
   2810 ****       207.2500  37.2500  68.7500 Du        
   2811 ****       207.2500  37.2500  69.0000 Du        
   2812 ****       207.2500  37.2500  69.2500 Du        
   2813 ****       207.2500  37.2500  69.5000 Du        
   2814 ****       207.2500  37.2500  69.7500 Du        
   2815 ****       207.2500  37.2500  70.0000 Du        
   2816 ****       207.2500  37.2500  70.2500 Du        
   2817 ****       207.2500  37.2500  70.5000 Du        
   2818 ****       207.2500  37.5000  68.5000 Du        
   2819 ****       207.2500  37.5000  68.7500 Du        
   2820 ****       207.2500  37.5000  69.0000 Du        
   2821 ****       207.2500  37.5000  69.2500 Du        
   2822 ****       207.2500  37.5000  69.5000 Du        
   2823 ****       207.2500  37.5000  69.7500 Du        
   2824 ****       207.2500  37.5000  70.0000 Du        
   2825 ****       207.2500  37.5000  70.2500 Du        
   2826 ****       207.2500  37.5000  70.5000 Du        
   2827 ****       207.2500  37.7500  68.7500 Du        
   2828 ****       207.2500  37.7500  69.0000 Du        
   2829 ****       207.2500  37.7500  69.2500 Du        
   2830 ****       207.2500  37.7500  69.5000 Du        
   2831 ****       207.2500  37.7500  69.7500 Du        
   2832 ****       207.2500  37.7500  70.0000 Du        
   2833 ****       207.2500  37.7500  70.2500 Du        
   2834 ****       207.2500  38.0000  69.0000 Du        
   2835 ****       207.2500  38.0000  69.2500 Du        
   2836 ****       207.2500  38.0000  69.5000 Du        
   2837 ****       207.2500  38.0000  69.7500 Du        
   2838 ****       207.2500  38.0000  70.0000 Du        
   2839 ****       207.2500  38.2500  69.2500 Du        
   2840 ****       207.2500  38.2500  69.5000 Du        
   2841 ****       207.2500  38.2500  69.7500 Du        
   2842 ****       207.5000  24.7500  70.5000 Du        
   2843 ****       207.5000  25.0000  70.0000 Du        
   2844 ****       207.5000  25.0000  70.2500 Du        
   2845 ****       207.5000  25.0000  70.5000 Du        
   2846 ****       207.5000  25.2500  69.7500 Du        
   2847 ****       207.5000  25.2500  70.0000 Du        
   2848 ****       207.5000  25.2500  70.2500 Du        
   2849 ****       207.5000  25.2500  70.5000 Du        
   2850 ****       207.5000  25.2500  70.7500 Du        
   2851 ****       207.5000  25.5000  69.5000 Du        
   2852 ****       207.5000  25.5000  69.7500 Du        
   2853 ****       207.5000  25.5000  70.0000 Du        
   2854 ****       207.5000  25.5000  70.2500 Du        
   2855 ****       207.5000  25.5000  70.5000 Du        
   2856 ****       207.5000  25.7500  69.2500 Du        
   2857 ****       207.5000  25.7500  69.5000 Du        
   2858 ****       207.5000  25.7500  69.7500 Du        
   2859 ****       207.5000  25.7500  70.0000 Du        
   2860 ****       207.5000  25.7500  70.2500 Du        
   2861 ****       207.5000  25.7500  70.5000 Du        
   2862 ****       207.5000  25.7500  70.7500 Du        
   2863 ****       207.5000  26.0000  69.2500 Du        
   2864 ****       207.5000  26.0000  69.5000 Du        
   2865 ****       207.5000  26.0000  69.7500 Du        
   2866 ****       207.5000  26.0000  70.0000 Du        
   2867 ****       207.5000  26.0000  70.2500 Du        
   2868 ****       207.5000  26.0000  70.5000 Du        
   2869 ****       207.5000  26.0000  70.7500 Du        
   2870 ****       207.5000  26.2500  69.2500 Du        
   2871 ****       207.5000  26.2500  69.5000 Du        
   2872 ****       207.5000  26.2500  69.7500 Du        
   2873 ****       207.5000  26.2500  70.0000 Du        
   2874 ****       207.5000  26.2500  70.2500 Du        
   2875 ****       207.5000  26.2500  70.5000 Du        
   2876 ****       207.5000  26.2500  70.7500 Du        
   2877 ****       207.5000  26.5000  69.2500 Du        
   2878 ****       207.5000  26.5000  69.5000 Du        
   2879 ****       207.5000  26.5000  69.7500 Du        
   2880 ****       207.5000  26.5000  70.0000 Du        
   2881 ****       207.5000  26.5000  70.2500 Du        
   2882 ****       207.5000  26.5000  70.5000 Du        
   2883 ****       207.5000  26.7500  69.7500 Du        
   2884 ****       207.5000  26.7500  70.0000 Du        
   2885 ****       207.5000  26.7500  70.2500 Du        
   2886 ****       207.5000  26.7500  70.5000 Du        
   2887 ****       207.5000  26.7500  70.7500 Du        
   2888 ****       207.5000  27.0000  70.2500 Du        
   2889 ****       207.5000  27.0000  70.7500 Du        
   2890 ****       207.5000  27.0000  71.0000 Du        
   2891 ****       207.5000  27.2500  70.7500 Du        
   2892 ****       207.5000  27.2500  71.0000 Du        
   2893 ****       207.5000  28.5000  71.7500 Du        
   2894 ****       207.5000  28.5000  72.0000 Du        
   2895 ****       207.5000  28.5000  72.2500 Du        
   2896 ****       207.5000  28.5000  72.5000 Du        
   2897 ****       207.5000  28.7500  71.7500 Du        
   2898 ****       207.5000  28.7500  72.0000 Du        
   2899 ****       207.5000  28.7500  72.2500 Du        
   2900 ****       207.5000  28.7500  72.5000 Du        
   2901 ****       207.5000  28.7500  72.7500 Du        
   2902 ****       207.5000  29.0000  71.7500 Du        
   2903 ****       207.5000  29.0000  72.0000 Du        
   2904 ****       207.5000  29.0000  72.2500 Du        
   2905 ****       207.5000  29.0000  72.5000 Du        
   2906 ****       207.5000  29.2500  71.7500 Du        
   2907 ****       207.5000  29.2500  72.0000 Du        
   2908 ****       207.5000  29.2500  72.2500 Du        
   2909 ****       207.5000  29.5000  71.5000 Du        
   2910 ****       207.5000  29.5000  71.7500 Du        
   2911 ****       207.5000  29.5000  72.0000 Du        
   2912 ****       207.5000  29.7500  71.5000 Du        
   2913 ****       207.5000  29.7500  71.7500 Du        
   2914 ****       207.5000  31.0000  71.2500 Du        
   2915 ****       207.5000  31.2500  71.2500 Du        
   2916 ****       207.5000  31.5000  71.0000 Du        
   2917 ****       207.5000  31.5000  71.2500 Du        
   2918 ****       207.5000  31.7500  70.7500 Du        
   2919 ****       207.5000  31.7500  71.0000 Du        
   2920 ****       207.5000  31.7500  71.2500 Du        
   2921 ****       207.5000  31.7500  71.5000 Du        
   2922 ****       207.5000  32.0000  70.7500 Du        
   2923 ****       207.5000  32.0000  71.0000 Du        
   2924 ****       207.5000  32.0000  71.2500 Du        
   2925 ****       207.5000  32.0000  71.5000 Du        
   2926 ****       207.5000  32.0000  71.7500 Du        
   2927 ****       207.5000  32.2500  70.7500 Du        
   2928 ****       207.5000  32.2500  71.0000 Du        
   2929 ****       207.5000  32.2500  71.2500 Du        
   2930 ****       207.5000  32.2500  71.5000 Du        
   2931 ****       207.5000  32.2500  71.7500 Du        
   2932 ****       207.5000  32.2500  72.0000 Du        
   2933 ****       207.5000  32.5000  70.5000 Du        
   2934 ****       207.5000  32.5000  70.7500 Du        
   2935 ****       207.5000  32.5000  71.0000 Du        
   2936 ****       207.5000  32.5000  71.2500 Du        
   2937 ****       207.5000  32.5000  71.5000 Du        
   2938 ****       207.5000  32.5000  71.7500 Du        
   2939 ****       207.5000  32.5000  72.0000 Du        
   2940 ****       207.5000  32.5000  72.2500 Du        
   2941 ****       207.5000  32.7500  70.2500 Du        
   2942 ****       207.5000  32.7500  70.5000 Du        
   2943 ****       207.5000  32.7500  70.7500 Du        
   2944 ****       207.5000  32.7500  71.0000 Du        
   2945 ****       207.5000  32.7500  71.2500 Du        
   2946 ****       207.5000  32.7500  71.5000 Du        
   2947 ****       207.5000  32.7500  71.7500 Du        
   2948 ****       207.5000  32.7500  72.0000 Du        
   2949 ****       207.5000  32.7500  72.2500 Du        
   2950 ****       207.5000  33.0000  70.0000 Du        
   2951 ****       207.5000  33.0000  70.2500 Du        
   2952 ****       207.5000  33.0000  70.5000 Du        
   2953 ****       207.5000  33.0000  70.7500 Du        
   2954 ****       207.5000  33.0000  71.0000 Du        
   2955 ****       207.5000  33.0000  71.2500 Du        
   2956 ****       207.5000  33.0000  71.5000 Du        
   2957 ****       207.5000  33.0000  71.7500 Du        
   2958 ****       207.5000  33.0000  72.0000 Du        
   2959 ****       207.5000  33.0000  72.2500 Du        
   2960 ****       207.5000  33.2500  69.7500 Du        
   2961 ****       207.5000  33.2500  70.0000 Du        
   2962 ****       207.5000  33.2500  70.2500 Du        
   2963 ****       207.5000  33.2500  70.5000 Du        
   2964 ****       207.5000  33.2500  70.7500 Du        
   2965 ****       207.5000  33.2500  71.0000 Du        
   2966 ****       207.5000  33.2500  71.2500 Du        
   2967 ****       207.5000  33.2500  71.5000 Du        
   2968 ****       207.5000  33.2500  71.7500 Du        
   2969 ****       207.5000  33.2500  72.0000 Du        
   2970 ****       207.5000  33.5000  69.5000 Du        
   2971 ****       207.5000  33.5000  69.7500 Du        
   2972 ****       207.5000  33.5000  70.0000 Du        
   2973 ****       207.5000  33.5000  70.2500 Du        
   2974 ****       207.5000  33.5000  70.5000 Du        
   2975 ****       207.5000  33.5000  70.7500 Du        
   2976 ****       207.5000  33.5000  71.0000 Du        
   2977 ****       207.5000  33.5000  71.2500 Du        
   2978 ****       207.5000  33.5000  71.5000 Du        
   2979 ****       207.5000  33.7500  69.2500 Du        
   2980 ****       207.5000  33.7500  69.5000 Du        
   2981 ****       207.5000  33.7500  69.7500 Du        
   2982 ****       207.5000  33.7500  70.0000 Du        
   2983 ****       207.5000  33.7500  70.2500 Du        
   2984 ****       207.5000  33.7500  70.5000 Du        
   2985 ****       207.5000  33.7500  70.7500 Du        
   2986 ****       207.5000  33.7500  71.0000 Du        
   2987 ****       207.5000  33.7500  71.2500 Du        
   2988 ****       207.5000  34.0000  68.7500 Du        
   2989 ****       207.5000  34.0000  69.0000 Du        
   2990 ****       207.5000  34.0000  69.2500 Du        
   2991 ****       207.5000  34.0000  69.5000 Du        
   2992 ****       207.5000  34.0000  69.7500 Du        
   2993 ****       207.5000  34.0000  70.0000 Du        
   2994 ****       207.5000  34.0000  70.2500 Du        
   2995 ****       207.5000  34.0000  70.5000 Du        
   2996 ****       207.5000  34.0000  70.7500 Du        
   2997 ****       207.5000  34.0000  71.0000 Du        
   2998 ****       207.5000  34.2500  68.5000 Du        
   2999 ****       207.5000  34.2500  68.7500 Du        
   3000 ****       207.5000  34.2500  69.0000 Du        
   3001 ****       207.5000  34.2500  69.2500 Du        
   3002 ****       207.5000  34.2500  69.5000 Du        
   3003 ****       207.5000  34.2500  69.7500 Du        
   3004 ****       207.5000  34.2500  70.0000 Du        
   3005 ****       207.5000  34.2500  70.2500 Du        
   3006 ****       207.5000  34.2500  70.5000 Du        
   3007 ****       207.5000  34.2500  70.7500 Du        
   3008 ****       207.5000  34.5000  68.5000 Du        
   3009 ****       207.5000  34.5000  68.7500 Du        
   3010 ****       207.5000  34.5000  69.0000 Du        
   3011 ****       207.5000  34.5000  69.2500 Du        
   3012 ****       207.5000  34.5000  69.5000 Du        
   3013 ****       207.5000  34.5000  69.7500 Du        
   3014 ****       207.5000  34.5000  70.0000 Du        
   3015 ****       207.5000  34.5000  70.2500 Du        
   3016 ****       207.5000  34.5000  70.5000 Du        
   3017 ****       207.5000  34.7500  68.2500 Du        
   3018 ****       207.5000  34.7500  68.5000 Du        
   3019 ****       207.5000  34.7500  68.7500 Du        
   3020 ****       207.5000  34.7500  69.0000 Du        
   3021 ****       207.5000  34.7500  69.2500 Du        
   3022 ****       207.5000  34.7500  69.5000 Du        
   3023 ****       207.5000  34.7500  69.7500 Du        
   3024 ****       207.5000  34.7500  70.0000 Du        
   3025 ****       207.5000  34.7500  70.2500 Du        
   3026 ****       207.5000  34.7500  70.5000 Du        
   3027 ****       207.5000  35.0000  68.2500 Du        
   3028 ****       207.5000  35.0000  68.5000 Du        
   3029 ****       207.5000  35.0000  68.7500 Du        
   3030 ****       207.5000  35.0000  69.0000 Du        
   3031 ****       207.5000  35.0000  69.2500 Du        
   3032 ****       207.5000  35.0000  69.5000 Du        
   3033 ****       207.5000  35.0000  69.7500 Du        
   3034 ****       207.5000  35.0000  70.0000 Du        
   3035 ****       207.5000  35.0000  70.2500 Du        
   3036 ****       207.5000  35.0000  70.5000 Du        
   3037 ****       207.5000  35.2500  68.2500 Du        
   3038 ****       207.5000  35.2500  68.5000 Du        
   3039 ****       207.5000  35.2500  68.7500 Du        
   3040 ****       207.5000  35.2500  69.0000 Du        
   3041 ****       207.5000  35.2500  69.2500 Du        
   3042 ****       207.5000  35.2500  69.5000 Du        
   3043 ****       207.5000  35.2500  69.7500 Du        
   3044 ****       207.5000  35.2500  70.0000 Du        
   3045 ****       207.5000  35.2500  70.2500 Du        
   3046 ****       207.5000  35.5000  68.0000 Du        
   3047 ****       207.5000  35.5000  68.2500 Du        
   3048 ****       207.5000  35.5000  68.5000 Du        
   3049 ****       207.5000  35.5000  68.7500 Du        
   3050 ****       207.5000  35.5000  69.0000 Du        
   3051 ****       207.5000  35.5000  69.2500 Du        
   3052 ****       207.5000  35.5000  69.5000 Du        
   3053 ****       207.5000  35.5000  69.7500 Du        
   3054 ****       207.5000  35.5000  70.0000 Du        
   3055 ****       207.5000  35.5000  70.2500 Du        
   3056 ****       207.5000  35.7500  68.0000 Du        
   3057 ****       207.5000  35.7500  68.2500 Du        
   3058 ****       207.5000  35.7500  68.5000 Du        
   3059 ****       207.5000  35.7500  68.7500 Du        
   3060 ****       207.5000  35.7500  69.0000 Du        
   3061 ****       207.5000  35.7500  69.2500 Du        
   3062 ****       207.5000  35.7500  69.5000 Du        
   3063 ****       207.5000  35.7500  69.7500 Du        
   3064 ****       207.5000  35.7500  70.0000 Du        
   3065 ****       207.5000  35.7500  70.2500 Du        
   3066 ****       207.5000  36.0000  68.0000 Du        
   3067 ****       207.5000  36.0000  68.2500 Du        
   3068 ****       207.5000  36.0000  68.5000 Du        
   3069 ****       207.5000  36.0000  68.7500 Du        
   3070 ****       207.5000  36.0000  69.0000 Du        
   3071 ****       207.5000  36.0000  69.2500 Du        
   3072 ****       207.5000  36.0000  69.5000 Du        
   3073 ****       207.5000  36.0000  69.7500 Du        
   3074 ****       207.5000  36.0000  70.0000 Du        
   3075 ****       207.5000  36.0000  70.2500 Du        
   3076 ****       207.5000  36.2500  68.0000 Du        
   3077 ****       207.5000  36.2500  68.2500 Du        
   3078 ****       207.5000  36.2500  68.5000 Du        
   3079 ****       207.5000  36.2500  68.7500 Du        
   3080 ****       207.5000  36.2500  69.0000 Du        
   3081 ****       207.5000  36.2500  69.2500 Du        
   3082 ****       207.5000  36.2500  69.5000 Du        
   3083 ****       207.5000  36.2500  69.7500 Du        
   3084 ****       207.5000  36.2500  70.0000 Du        
   3085 ****       207.5000  36.2500  70.2500 Du        
   3086 ****       207.5000  36.2500  70.5000 Du        
   3087 ****       207.5000  36.5000  68.0000 Du        
   3088 ****       207.5000  36.5000  68.2500 Du        
   3089 ****       207.5000  36.5000  68.5000 Du        
   3090 ****       207.5000  36.5000  68.7500 Du        
   3091 ****       207.5000  36.5000  69.0000 Du        
   3092 ****       207.5000  36.5000  69.2500 Du        
   3093 ****       207.5000  36.5000  69.5000 Du        
   3094 ****       207.5000  36.5000  69.7500 Du        
   3095 ****       207.5000  36.5000  70.0000 Du        
   3096 ****       207.5000  36.5000  70.2500 Du        
   3097 ****       207.5000  36.5000  70.5000 Du        
   3098 ****       207.5000  36.7500  68.0000 Du        
   3099 ****       207.5000  36.7500  68.2500 Du        
   3100 ****       207.5000  36.7500  68.5000 Du        
   3101 ****       207.5000  36.7500  68.7500 Du        
   3102 ****       207.5000  36.7500  69.0000 Du        
   3103 ****       207.5000  36.7500  69.2500 Du        
   3104 ****       207.5000  36.7500  69.5000 Du        
   3105 ****       207.5000  36.7500  69.7500 Du        
   3106 ****       207.5000  36.7500  70.0000 Du        
   3107 ****       207.5000  36.7500  70.2500 Du        
   3108 ****       207.5000  36.7500  70.5000 Du        
   3109 ****       207.5000  37.0000  68.0000 Du        
   3110 ****       207.5000  37.0000  68.2500 Du        
   3111 ****       207.5000  37.0000  68.5000 Du        
   3112 ****       207.5000  37.0000  68.7500 Du        
   3113 ****       207.5000  37.0000  69.0000 Du        
   3114 ****       207.5000  37.0000  69.2500 Du        
   3115 ****       207.5000  37.0000  69.5000 Du        
   3116 ****       207.5000  37.0000  69.7500 Du        
   3117 ****       207.5000  37.0000  70.0000 Du        
   3118 ****       207.5000  37.0000  70.2500 Du        
   3119 ****       207.5000  37.0000  70.5000 Du        
   3120 ****       207.5000  37.2500  68.2500 Du        
   3121 ****       207.5000  37.2500  68.5000 Du        
   3122 ****       207.5000  37.2500  68.7500 Du        
   3123 ****       207.5000  37.2500  69.0000 Du        
   3124 ****       207.5000  37.2500  69.2500 Du        
   3125 ****       207.5000  37.2500  69.5000 Du        
   3126 ****       207.5000  37.2500  69.7500 Du        
   3127 ****       207.5000  37.2500  70.0000 Du        
   3128 ****       207.5000  37.2500  70.2500 Du        
   3129 ****       207.5000  37.2500  70.5000 Du        
   3130 ****       207.5000  37.5000  68.5000 Du        
   3131 ****       207.5000  37.5000  68.7500 Du        
   3132 ****       207.5000  37.5000  69.0000 Du        
   3133 ****       207.5000  37.5000  69.2500 Du        
   3134 ****       207.5000  37.5000  69.5000 Du        
   3135 ****       207.5000  37.5000  69.7500 Du        
   3136 ****       207.5000  37.5000  70.0000 Du        
   3137 ****       207.5000  37.5000  70.2500 Du        
   3138 ****       207.5000  37.5000  70.5000 Du        
   3139 ****       207.5000  37.7500  68.7500 Du        
   3140 ****       207.5000  37.7500  69.0000 Du        
   3141 ****       207.5000  37.7500  69.2500 Du        
   3142 ****       207.5000  37.7500  69.5000 Du        
   3143 ****       207.5000  37.7500  69.7500 Du        
   3144 ****       207.5000  37.7500  70.0000 Du        
   3145 ****       207.5000  37.7500  70.2500 Du        
   3146 ****       207.5000  38.0000  68.7500 Du        
   3147 ****       207.5000  38.0000  69.0000 Du        
   3148 ****       207.5000  38.0000  69.2500 Du        
   3149 ****       207.5000  38.0000  69.5000 Du        
   3150 ****       207.5000  38.0000  69.7500 Du        
   3151 ****       207.5000  38.0000  70.0000 Du        
   3152 ****       207.5000  38.2500  69.0000 Du        
   3153 ****       207.5000  38.2500  69.2500 Du        
   3154 ****       207.5000  38.2500  69.5000 Du        
   3155 ****       207.5000  38.2500  69.7500 Du        
   3156 ****       207.5000  38.5000  69.2500 Du        
   3157 ****       207.5000  38.5000  69.5000 Du        
   3158 ****       207.7500  24.5000  70.5000 Du        
   3159 ****       207.7500  24.7500  70.0000 Du        
   3160 ****       207.7500  24.7500  70.2500 Du        
   3161 ****       207.7500  24.7500  70.5000 Du        
   3162 ****       207.7500  25.0000  69.7500 Du        
   3163 ****       207.7500  25.0000  70.0000 Du        
   3164 ****       207.7500  25.0000  70.2500 Du        
   3165 ****       207.7500  25.0000  70.5000 Du        
   3166 ****       207.7500  25.2500  69.5000 Du        
   3167 ****       207.7500  25.2500  69.7500 Du        
   3168 ****       207.7500  25.2500  70.0000 Du        
   3169 ****       207.7500  25.2500  70.2500 Du        
   3170 ****       207.7500  25.2500  70.5000 Du        
   3171 ****       207.7500  25.2500  70.7500 Du        
   3172 ****       207.7500  25.5000  69.2500 Du        
   3173 ****       207.7500  25.5000  69.5000 Du        
   3174 ****       207.7500  25.5000  69.7500 Du        
   3175 ****       207.7500  25.5000  70.0000 Du        
   3176 ****       207.7500  25.5000  70.2500 Du        
   3177 ****       207.7500  25.5000  70.5000 Du        
   3178 ****       207.7500  25.7500  69.2500 Du        
   3179 ****       207.7500  25.7500  69.5000 Du        
   3180 ****       207.7500  25.7500  69.7500 Du        
   3181 ****       207.7500  25.7500  70.0000 Du        
   3182 ****       207.7500  25.7500  70.2500 Du        
   3183 ****       207.7500  25.7500  70.5000 Du        
   3184 ****       207.7500  25.7500  70.7500 Du        
   3185 ****       207.7500  26.0000  69.2500 Du        
   3186 ****       207.7500  26.0000  69.5000 Du        
   3187 ****       207.7500  26.0000  69.7500 Du        
   3188 ****       207.7500  26.0000  70.0000 Du        
   3189 ****       207.7500  26.0000  70.2500 Du        
   3190 ****       207.7500  26.0000  70.5000 Du        
   3191 ****       207.7500  26.0000  70.7500 Du        
   3192 ****       207.7500  26.2500  69.2500 Du        
   3193 ****       207.7500  26.2500  69.5000 Du        
   3194 ****       207.7500  26.2500  69.7500 Du        
   3195 ****       207.7500  26.2500  70.0000 Du        
   3196 ****       207.7500  26.2500  70.2500 Du        
   3197 ****       207.7500  26.2500  70.5000 Du        
   3198 ****       207.7500  26.2500  70.7500 Du        
   3199 ****       207.7500  26.5000  69.0000 Du        
   3200 ****       207.7500  26.5000  69.2500 Du        
   3201 ****       207.7500  26.5000  69.5000 Du        
   3202 ****       207.7500  26.5000  69.7500 Du        
   3203 ****       207.7500  26.5000  70.0000 Du        
   3204 ****       207.7500  26.5000  70.2500 Du        
   3205 ****       207.7500  26.5000  70.5000 Du        
   3206 ****       207.7500  26.7500  69.7500 Du        
   3207 ****       207.7500  26.7500  70.0000 Du        
   3208 ****       207.7500  26.7500  70.2500 Du        
   3209 ****       207.7500  26.7500  70.5000 Du        
   3210 ****       207.7500  26.7500  70.7500 Du        
   3211 ****       207.7500  27.0000  70.2500 Du        
   3212 ****       207.7500  27.0000  70.7500 Du        
   3213 ****       207.7500  27.2500  71.0000 Du        
   3214 ****       207.7500  28.5000  71.7500 Du        
   3215 ****       207.7500  28.5000  72.0000 Du        
   3216 ****       207.7500  28.5000  72.2500 Du        
   3217 ****       207.7500  28.5000  72.5000 Du        
   3218 ****       207.7500  28.7500  71.7500 Du        
   3219 ****       207.7500  28.7500  72.0000 Du        
   3220 ****       207.7500  28.7500  72.2500 Du        
   3221 ****       207.7500  28.7500  72.5000 Du        
   3222 ****       207.7500  29.0000  71.7500 Du        
   3223 ****       207.7500  29.0000  72.0000 Du        
   3224 ****       207.7500  29.0000  72.2500 Du        
   3225 ****       207.7500  29.2500  71.7500 Du        
   3226 ****       207.7500  29.2500  72.0000 Du        
   3227 ****       207.7500  29.5000  71.7500 Du        
   3228 ****       207.7500  31.2500  71.0000 Du        
   3229 ****       207.7500  31.5000  70.7500 Du        
   3230 ****       207.7500  31.5000  71.0000 Du        
   3231 ****       207.7500  31.5000  71.2500 Du        
   3232 ****       207.7500  31.7500  70.5000 Du        
   3233 ****       207.7500  31.7500  70.7500 Du        
   3234 ****       207.7500  31.7500  71.0000 Du        
   3235 ****       207.7500  31.7500  71.2500 Du        
   3236 ****       207.7500  32.0000  70.5000 Du        
   3237 ****       207.7500  32.0000  70.7500 Du        
   3238 ****       207.7500  32.0000  71.0000 Du        
   3239 ****       207.7500  32.0000  71.2500 Du        
   3240 ****       207.7500  32.0000  71.5000 Du        
   3241 ****       207.7500  32.2500  70.2500 Du        
   3242 ****       207.7500  32.2500  70.5000 Du        
   3243 ****       207.7500  32.2500  70.7500 Du        
   3244 ****       207.7500  32.2500  71.0000 Du        
   3245 ****       207.7500  32.2500  71.2500 Du        
   3246 ****       207.7500  32.2500  71.5000 Du        
   3247 ****       207.7500  32.2500  71.7500 Du        
   3248 ****       207.7500  32.5000  70.0000 Du        
   3249 ****       207.7500  32.5000  70.2500 Du        
   3250 ****       207.7500  32.5000  70.5000 Du        
   3251 ****       207.7500  32.5000  70.7500 Du        
   3252 ****       207.7500  32.5000  71.0000 Du        
   3253 ****       207.7500  32.5000  71.2500 Du        
   3254 ****       207.7500  32.5000  71.5000 Du        
   3255 ****       207.7500  32.5000  71.7500 Du        
   3256 ****       207.7500  32.5000  72.0000 Du        
   3257 ****       207.7500  32.7500  70.0000 Du        
   3258 ****       207.7500  32.7500  70.2500 Du        
   3259 ****       207.7500  32.7500  70.5000 Du        
   3260 ****       207.7500  32.7500  70.7500 Du        
   3261 ****       207.7500  32.7500  71.0000 Du        
   3262 ****       207.7500  32.7500  71.2500 Du        
   3263 ****       207.7500  32.7500  71.5000 Du        
   3264 ****       207.7500  32.7500  71.7500 Du        
   3265 ****       207.7500  32.7500  72.0000 Du        
   3266 ****       207.7500  32.7500  72.2500 Du        
   3267 ****       207.7500  33.0000  69.7500 Du        
   3268 ****       207.7500  33.0000  70.0000 Du        
   3269 ****       207.7500  33.0000  70.2500 Du        
   3270 ****       207.7500  33.0000  70.5000 Du        
   3271 ****       207.7500  33.0000  70.7500 Du        
   3272 ****       207.7500  33.0000  71.0000 Du        
   3273 ****       207.7500  33.0000  71.2500 Du        
   3274 ****       207.7500  33.0000  71.5000 Du        
   3275 ****       207.7500  33.0000  71.7500 Du        
   3276 ****       207.7500  33.0000  72.0000 Du        
   3277 ****       207.7500  33.0000  72.2500 Du        
   3278 ****       207.7500  33.2500  69.5000 Du        
   3279 ****       207.7500  33.2500  69.7500 Du        
   3280 ****       207.7500  33.2500  70.0000 Du        
   3281 ****       207.7500  33.2500  70.2500 Du        
   3282 ****       207.7500  33.2500  70.5000 Du        
   3283 ****       207.7500  33.2500  70.7500 Du        
   3284 ****       207.7500  33.2500  71.0000 Du        
   3285 ****       207.7500  33.2500  71.2500 Du        
   3286 ****       207.7500  33.2500  71.5000 Du        
   3287 ****       207.7500  33.2500  71.7500 Du        
   3288 ****       207.7500  33.2500  72.0000 Du        
   3289 ****       207.7500  33.2500  72.2500 Du        
   3290 ****       207.7500  33.5000  69.2500 Du        
   3291 ****       207.7500  33.5000  69.5000 Du        
   3292 ****       207.7500  33.5000  69.7500 Du        
   3293 ****       207.7500  33.5000  70.0000 Du        
   3294 ****       207.7500  33.5000  70.2500 Du        
   3295 ****       207.7500  33.5000  70.5000 Du        
   3296 ****       207.7500  33.5000  70.7500 Du        
   3297 ****       207.7500  33.5000  71.0000 Du        
   3298 ****       207.7500  33.5000  71.2500 Du        
   3299 ****       207.7500  33.5000  71.5000 Du        
   3300 ****       207.7500  33.5000  71.7500 Du        
   3301 ****       207.7500  33.7500  69.0000 Du        
   3302 ****       207.7500  33.7500  69.2500 Du        
   3303 ****       207.7500  33.7500  69.5000 Du        
   3304 ****       207.7500  33.7500  69.7500 Du        
   3305 ****       207.7500  33.7500  70.0000 Du        
   3306 ****       207.7500  33.7500  70.2500 Du        
   3307 ****       207.7500  33.7500  70.5000 Du        
   3308 ****       207.7500  33.7500  70.7500 Du        
   3309 ****       207.7500  33.7500  71.0000 Du        
   3310 ****       207.7500  33.7500  71.2500 Du        
   3311 ****       207.7500  34.0000  68.7500 Du        
   3312 ****       207.7500  34.0000  69.0000 Du        
   3313 ****       207.7500  34.0000  69.2500 Du        
   3314 ****       207.7500  34.0000  69.5000 Du        
   3315 ****       207.7500  34.0000  69.7500 Du        
   3316 ****       207.7500  34.0000  70.0000 Du        
   3317 ****       207.7500  34.0000  70.2500 Du        
   3318 ****       207.7500  34.0000  70.5000 Du        
   3319 ****       207.7500  34.0000  70.7500 Du        
   3320 ****       207.7500  34.0000  71.0000 Du        
   3321 ****       207.7500  34.2500  68.5000 Du        
   3322 ****       207.7500  34.2500  68.7500 Du        
   3323 ****       207.7500  34.2500  69.0000 Du        
   3324 ****       207.7500  34.2500  69.2500 Du        
   3325 ****       207.7500  34.2500  69.5000 Du        
   3326 ****       207.7500  34.2500  69.7500 Du        
   3327 ****       207.7500  34.2500  70.0000 Du        
   3328 ****       207.7500  34.2500  70.2500 Du        
   3329 ****       207.7500  34.2500  70.5000 Du        
   3330 ****       207.7500  34.2500  70.7500 Du        
   3331 ****       207.7500  34.5000  68.2500 Du        
   3332 ****       207.7500  34.5000  68.5000 Du        
   3333 ****       207.7500  34.5000  68.7500 Du        
   3334 ****       207.7500  34.5000  69.0000 Du        
   3335 ****       207.7500  34.5000  69.2500 Du        
   3336 ****       207.7500  34.5000  69.5000 Du        
   3337 ****       207.7500  34.5000  69.7500 Du        
   3338 ****       207.7500  34.5000  70.0000 Du        
   3339 ****       207.7500  34.5000  70.2500 Du        
   3340 ****       207.7500  34.5000  70.5000 Du        
   3341 ****       207.7500  34.7500  68.2500 Du        
   3342 ****       207.7500  34.7500  68.5000 Du        
   3343 ****       207.7500  34.7500  68.7500 Du        
   3344 ****       207.7500  34.7500  69.0000 Du        
   3345 ****       207.7500  34.7500  69.2500 Du        
   3346 ****       207.7500  34.7500  69.5000 Du        
   3347 ****       207.7500  34.7500  69.7500 Du        
   3348 ****       207.7500  34.7500  70.0000 Du        
   3349 ****       207.7500  34.7500  70.2500 Du        
   3350 ****       207.7500  34.7500  70.5000 Du        
   3351 ****       207.7500  35.0000  68.2500 Du        
   3352 ****       207.7500  35.0000  68.5000 Du        
   3353 ****       207.7500  35.0000  68.7500 Du        
   3354 ****       207.7500  35.0000  69.0000 Du        
   3355 ****       207.7500  35.0000  69.2500 Du        
   3356 ****       207.7500  35.0000  69.5000 Du        
   3357 ****       207.7500  35.0000  69.7500 Du        
   3358 ****       207.7500  35.0000  70.0000 Du        
   3359 ****       207.7500  35.0000  70.2500 Du        
   3360 ****       207.7500  35.0000  70.5000 Du        
   3361 ****       207.7500  35.2500  68.0000 Du        
   3362 ****       207.7500  35.2500  68.2500 Du        
   3363 ****       207.7500  35.2500  68.5000 Du        
   3364 ****       207.7500  35.2500  68.7500 Du        
   3365 ****       207.7500  35.2500  69.0000 Du        
   3366 ****       207.7500  35.2500  69.2500 Du        
   3367 ****       207.7500  35.2500  69.5000 Du        
   3368 ****       207.7500  35.2500  69.7500 Du        
   3369 ****       207.7500  35.2500  70.0000 Du        
   3370 ****       207.7500  35.2500  70.2500 Du        
   3371 ****       207.7500  35.5000  68.0000 Du        
   3372 ****       207.7500  35.5000  68.2500 Du        
   3373 ****       207.7500  35.5000  68.5000 Du        
   3374 ****       207.7500  35.5000  68.7500 Du        
   3375 ****       207.7500  35.5000  69.0000 Du        
   3376 ****       207.7500  35.5000  69.2500 Du        
   3377 ****       207.7500  35.5000  69.5000 Du        
   3378 ****       207.7500  35.5000  69.7500 Du        
   3379 ****       207.7500  35.5000  70.0000 Du        
   3380 ****       207.7500  35.5000  70.2500 Du        
   3381 ****       207.7500  35.5000  70.5000 Du        
   3382 ****       207.7500  35.7500  68.0000 Du        
   3383 ****       207.7500  35.7500  68.2500 Du        
   3384 ****       207.7500  35.7500  68.5000 Du        
   3385 ****       207.7500  35.7500  68.7500 Du        
   3386 ****       207.7500  35.7500  69.0000 Du        
   3387 ****       207.7500  35.7500  69.2500 Du        
   3388 ****       207.7500  35.7500  69.5000 Du        
   3389 ****       207.7500  35.7500  69.7500 Du        
   3390 ****       207.7500  35.7500  70.0000 Du        
   3391 ****       207.7500  35.7500  70.2500 Du        
   3392 ****       207.7500  35.7500  70.5000 Du        
   3393 ****       207.7500  36.0000  68.0000 Du        
   3394 ****       207.7500  36.0000  68.2500 Du        
   3395 ****       207.7500  36.0000  68.5000 Du        
   3396 ****       207.7500  36.0000  68.7500 Du        
   3397 ****       207.7500  36.0000  69.0000 Du        
   3398 ****       207.7500  36.0000  69.2500 Du        
   3399 ****       207.7500  36.0000  69.5000 Du        
   3400 ****       207.7500  36.0000  69.7500 Du        
   3401 ****       207.7500  36.0000  70.0000 Du        
   3402 ****       207.7500  36.0000  70.2500 Du        
   3403 ****       207.7500  36.0000  70.5000 Du        
   3404 ****       207.7500  36.2500  68.0000 Du        
   3405 ****       207.7500  36.2500  68.2500 Du        
   3406 ****       207.7500  36.2500  68.5000 Du        
   3407 ****       207.7500  36.2500  68.7500 Du        
   3408 ****       207.7500  36.2500  69.0000 Du        
   3409 ****       207.7500  36.2500  69.2500 Du        
   3410 ****       207.7500  36.2500  69.5000 Du        
   3411 ****       207.7500  36.2500  69.7500 Du        
   3412 ****       207.7500  36.2500  70.0000 Du        
   3413 ****       207.7500  36.2500  70.2500 Du        
   3414 ****       207.7500  36.2500  70.5000 Du        
   3415 ****       207.7500  36.5000  68.0000 Du        
   3416 ****       207.7500  36.5000  68.2500 Du        
   3417 ****       207.7500  36.5000  68.5000 Du        
   3418 ****       207.7500  36.5000  68.7500 Du        
   3419 ****       207.7500  36.5000  69.0000 Du        
   3420 ****       207.7500  36.5000  69.2500 Du        
   3421 ****       207.7500  36.5000  69.5000 Du        
   3422 ****       207.7500  36.5000  69.7500 Du        
   3423 ****       207.7500  36.5000  70.0000 Du        
   3424 ****       207.7500  36.5000  70.2500 Du        
   3425 ****       207.7500  36.5000  70.5000 Du        
   3426 ****       207.7500  36.7500  68.0000 Du        
   3427 ****       207.7500  36.7500  68.2500 Du        
   3428 ****       207.7500  36.7500  68.5000 Du        
   3429 ****       207.7500  36.7500  68.7500 Du        
   3430 ****       207.7500  36.7500  69.0000 Du        
   3431 ****       207.7500  36.7500  69.2500 Du        
   3432 ****       207.7500  36.7500  69.5000 Du        
   3433 ****       207.7500  36.7500  69.7500 Du        
   3434 ****       207.7500  36.7500  70.0000 Du        
   3435 ****       207.7500  36.7500  70.2500 Du        
   3436 ****       207.7500  36.7500  70.5000 Du        
   3437 ****       207.7500  37.0000  68.0000 Du        
   3438 ****       207.7500  37.0000  68.2500 Du        
   3439 ****       207.7500  37.0000  68.5000 Du        
   3440 ****       207.7500  37.0000  68.7500 Du        
   3441 ****       207.7500  37.0000  69.0000 Du        
   3442 ****       207.7500  37.0000  69.2500 Du        
   3443 ****       207.7500  37.0000  69.5000 Du        
   3444 ****       207.7500  37.0000  69.7500 Du        
   3445 ****       207.7500  37.0000  70.0000 Du        
   3446 ****       207.7500  37.0000  70.2500 Du        
   3447 ****       207.7500  37.0000  70.5000 Du        
   3448 ****       207.7500  37.2500  68.2500 Du        
   3449 ****       207.7500  37.2500  68.5000 Du        
   3450 ****       207.7500  37.2500  68.7500 Du        
   3451 ****       207.7500  37.2500  69.0000 Du        
   3452 ****       207.7500  37.2500  69.2500 Du        
   3453 ****       207.7500  37.2500  69.5000 Du        
   3454 ****       207.7500  37.2500  69.7500 Du        
   3455 ****       207.7500  37.2500  70.0000 Du        
   3456 ****       207.7500  37.2500  70.2500 Du        
   3457 ****       207.7500  37.2500  70.5000 Du        
   3458 ****       207.7500  37.2500  70.7500 Du        
   3459 ****       207.7500  37.5000  68.5000 Du        
   3460 ****       207.7500  37.5000  68.7500 Du        
   3461 ****       207.7500  37.5000  69.0000 Du        
   3462 ****       207.7500  37.5000  69.2500 Du        
   3463 ****       207.7500  37.5000  69.5000 Du        
   3464 ****       207.7500  37.5000  69.7500 Du        
   3465 ****       207.7500  37.5000  70.0000 Du        
   3466 ****       207.7500  37.5000  70.2500 Du        
   3467 ****       207.7500  37.5000  70.5000 Du        
   3468 ****       207.7500  37.7500  68.5000 Du        
   3469 ****       207.7500  37.7500  68.7500 Du        
   3470 ****       207.7500  37.7500  69.0000 Du        
   3471 ****       207.7500  37.7500  69.2500 Du        
   3472 ****       207.7500  37.7500  69.5000 Du        
   3473 ****       207.7500  37.7500  69.7500 Du        
   3474 ****       207.7500  37.7500  70.0000 Du        
   3475 ****       207.7500  37.7500  70.2500 Du        
   3476 ****       207.7500  38.0000  68.7500 Du        
   3477 ****       207.7500  38.0000  69.0000 Du        
   3478 ****       207.7500  38.0000  69.2500 Du        
   3479 ****       207.7500  38.0000  69.5000 Du        
   3480 ****       207.7500  38.0000  69.7500 Du        
   3481 ****       207.7500  38.0000  70.0000 Du        
   3482 ****       207.7500  38.2500  69.0000 Du        
   3483 ****       207.7500  38.2500  69.2500 Du        
   3484 ****       207.7500  38.2500  69.5000 Du        
   3485 ****       207.7500  38.2500  69.7500 Du        
   3486 ****       207.7500  38.5000  69.2500 Du        
   3487 ****       207.7500  38.5000  69.5000 Du        
   3488 ****       208.0000  24.5000  70.5000 Du        
   3489 ****       208.0000  24.7500  70.0000 Du        
   3490 ****       208.0000  24.7500  70.2500 Du        
   3491 ****       208.0000  24.7500  70.5000 Du        
   3492 ****       208.0000  25.0000  69.7500 Du        
   3493 ****       208.0000  25.0000  70.0000 Du        
   3494 ****       208.0000  25.0000  70.2500 Du        
   3495 ****       208.0000  25.0000  70.5000 Du        
   3496 ****       208.0000  25.2500  69.2500 Du        
   3497 ****       208.0000  25.2500  69.5000 Du        
   3498 ****       208.0000  25.2500  69.7500 Du        
   3499 ****       208.0000  25.2500  70.0000 Du        
   3500 ****       208.0000  25.2500  70.2500 Du        
   3501 ****       208.0000  25.2500  70.5000 Du        
   3502 ****       208.0000  25.5000  69.2500 Du        
   3503 ****       208.0000  25.5000  69.5000 Du        
   3504 ****       208.0000  25.5000  69.7500 Du        
   3505 ****       208.0000  25.5000  70.0000 Du        
   3506 ****       208.0000  25.5000  70.2500 Du        
   3507 ****       208.0000  25.5000  70.5000 Du        
   3508 ****       208.0000  25.7500  69.0000 Du        
   3509 ****       208.0000  25.7500  69.2500 Du        
   3510 ****       208.0000  25.7500  69.5000 Du        
   3511 ****       208.0000  25.7500  69.7500 Du        
   3512 ****       208.0000  25.7500  70.0000 Du        
   3513 ****       208.0000  25.7500  70.2500 Du        
   3514 ****       208.0000  25.7500  70.5000 Du        
   3515 ****       208.0000  26.0000  69.0000 Du        
   3516 ****       208.0000  26.0000  69.2500 Du        
   3517 ****       208.0000  26.0000  69.5000 Du        
   3518 ****       208.0000  26.0000  69.7500 Du        
   3519 ****       208.0000  26.0000  70.0000 Du        
   3520 ****       208.0000  26.0000  70.2500 Du        
   3521 ****       208.0000  26.0000  70.5000 Du        
   3522 ****       208.0000  26.0000  70.7500 Du        
   3523 ****       208.0000  26.2500  69.0000 Du        
   3524 ****       208.0000  26.2500  69.2500 Du        
   3525 ****       208.0000  26.2500  69.5000 Du        
   3526 ****       208.0000  26.2500  69.7500 Du        
   3527 ****       208.0000  26.2500  70.0000 Du        
   3528 ****       208.0000  26.2500  70.2500 Du        
   3529 ****       208.0000  26.2500  70.5000 Du        
   3530 ****       208.0000  26.2500  70.7500 Du        
   3531 ****       208.0000  26.5000  69.0000 Du        
   3532 ****       208.0000  26.5000  69.2500 Du        
   3533 ****       208.0000  26.5000  69.5000 Du        
   3534 ****       208.0000  26.5000  69.7500 Du        
   3535 ****       208.0000  26.5000  70.0000 Du        
   3536 ****       208.0000  26.5000  70.5000 Du        
   3537 ****       208.0000  26.7500  69.7500 Du        
   3538 ****       208.0000  26.7500  70.7500 Du        
   3539 ****       208.0000  28.5000  71.7500 Du        
   3540 ****       208.0000  28.5000  72.0000 Du        
   3541 ****       208.0000  28.7500  71.5000 Du        
   3542 ****       208.0000  28.7500  71.7500 Du        
   3543 ****       208.0000  28.7500  72.0000 Du        
   3544 ****       208.0000  28.7500  72.2500 Du        
   3545 ****       208.0000  29.0000  71.7500 Du        
   3546 ****       208.0000  29.0000  72.0000 Du        
   3547 ****       208.0000  31.2500  71.0000 Du        
   3548 ****       208.0000  31.5000  70.7500 Du        
   3549 ****       208.0000  31.5000  71.0000 Du        
   3550 ****       208.0000  31.7500  70.5000 Du        
   3551 ****       208.0000  31.7500  70.7500 Du        
   3552 ****       208.0000  31.7500  71.0000 Du        
   3553 ****       208.0000  31.7500  71.2500 Du        
   3554 ****       208.0000  32.0000  70.2500 Du        
   3555 ****       208.0000  32.0000  70.5000 Du        
   3556 ****       208.0000  32.0000  70.7500 Du        
   3557 ****       208.0000  32.0000  71.0000 Du        
   3558 ****       208.0000  32.0000  71.2500 Du        
   3559 ****       208.0000  32.0000  71.5000 Du        
   3560 ****       208.0000  32.2500  70.0000 Du        
   3561 ****       208.0000  32.2500  70.2500 Du        
   3562 ****       208.0000  32.2500  70.5000 Du        
   3563 ****       208.0000  32.2500  70.7500 Du        
   3564 ****       208.0000  32.2500  71.0000 Du        
   3565 ****       208.0000  32.2500  71.2500 Du        
   3566 ****       208.0000  32.2500  71.5000 Du        
   3567 ****       208.0000  32.5000  69.7500 Du        
   3568 ****       208.0000  32.5000  70.0000 Du        
   3569 ****       208.0000  32.5000  70.2500 Du        
   3570 ****       208.0000  32.5000  70.5000 Du        
   3571 ****       208.0000  32.5000  70.7500 Du        
   3572 ****       208.0000  32.5000  71.0000 Du        
   3573 ****       208.0000  32.5000  71.2500 Du        
   3574 ****       208.0000  32.5000  71.5000 Du        
   3575 ****       208.0000  32.5000  71.7500 Du        
   3576 ****       208.0000  32.7500  69.7500 Du        
   3577 ****       208.0000  32.7500  70.0000 Du        
   3578 ****       208.0000  32.7500  70.2500 Du        
   3579 ****       208.0000  32.7500  70.5000 Du        
   3580 ****       208.0000  32.7500  70.7500 Du        
   3581 ****       208.0000  32.7500  71.0000 Du        
   3582 ****       208.0000  32.7500  71.2500 Du        
   3583 ****       208.0000  32.7500  71.5000 Du        
   3584 ****       208.0000  32.7500  71.7500 Du        
   3585 ****       208.0000  32.7500  72.0000 Du        
   3586 ****       208.0000  33.0000  69.5000 Du        
   3587 ****       208.0000  33.0000  69.7500 Du        
   3588 ****       208.0000  33.0000  70.0000 Du        
   3589 ****       208.0000  33.0000  70.2500 Du        
   3590 ****       208.0000  33.0000  70.5000 Du        
   3591 ****       208.0000  33.0000  70.7500 Du        
   3592 ****       208.0000  33.0000  71.0000 Du        
   3593 ****       208.0000  33.0000  71.2500 Du        
   3594 ****       208.0000  33.0000  71.5000 Du        
   3595 ****       208.0000  33.0000  71.7500 Du        
   3596 ****       208.0000  33.0000  72.0000 Du        
   3597 ****       208.0000  33.0000  72.2500 Du        
   3598 ****       208.0000  33.2500  69.2500 Du        
   3599 ****       208.0000  33.2500  69.5000 Du        
   3600 ****       208.0000  33.2500  69.7500 Du        
   3601 ****       208.0000  33.2500  70.0000 Du        
   3602 ****       208.0000  33.2500  70.2500 Du        
   3603 ****       208.0000  33.2500  70.5000 Du        
   3604 ****       208.0000  33.2500  70.7500 Du        
   3605 ****       208.0000  33.2500  71.0000 Du        
   3606 ****       208.0000  33.2500  71.2500 Du        
   3607 ****       208.0000  33.2500  71.5000 Du        
   3608 ****       208.0000  33.2500  71.7500 Du        
   3609 ****       208.0000  33.2500  72.0000 Du        
   3610 ****       208.0000  33.2500  72.2500 Du        
   3611 ****       208.0000  33.5000  69.2500 Du        
   3612 ****       208.0000  33.5000  69.5000 Du        
   3613 ****       208.0000  33.5000  69.7500 Du        
   3614 ****       208.0000  33.5000  70.0000 Du        
   3615 ****       208.0000  33.5000  70.2500 Du        
   3616 ****       208.0000  33.5000  70.5000 Du        
   3617 ****       208.0000  33.5000  70.7500 Du        
   3618 ****       208.0000  33.5000  71.0000 Du        
   3619 ****       208.0000  33.5000  71.2500 Du        
   3620 ****       208.0000  33.5000  71.5000 Du        
   3621 ****       208.0000  33.5000  71.7500 Du        
   3622 ****       208.0000  33.7500  68.7500 Du        
   3623 ****       208.0000  33.7500  69.0000 Du        
   3624 ****       208.0000  33.7500  69.2500 Du        
   3625 ****       208.0000  33.7500  69.5000 Du        
   3626 ****       208.0000  33.7500  69.7500 Du        
   3627 ****       208.0000  33.7500  70.0000 Du        
   3628 ****       208.0000  33.7500  70.2500 Du        
   3629 ****       208.0000  33.7500  70.5000 Du        
   3630 ****       208.0000  33.7500  70.7500 Du        
   3631 ****       208.0000  33.7500  71.0000 Du        
   3632 ****       208.0000  33.7500  71.2500 Du        
   3633 ****       208.0000  34.0000  68.5000 Du        
   3634 ****       208.0000  34.0000  68.7500 Du        
   3635 ****       208.0000  34.0000  69.0000 Du        
   3636 ****       208.0000  34.0000  69.2500 Du        
   3637 ****       208.0000  34.0000  69.5000 Du        
   3638 ****       208.0000  34.0000  69.7500 Du        
   3639 ****       208.0000  34.0000  70.0000 Du        
   3640 ****       208.0000  34.0000  70.2500 Du        
   3641 ****       208.0000  34.0000  70.5000 Du        
   3642 ****       208.0000  34.0000  70.7500 Du        
   3643 ****       208.0000  34.0000  71.0000 Du        
   3644 ****       208.0000  34.2500  68.2500 Du        
   3645 ****       208.0000  34.2500  68.5000 Du        
   3646 ****       208.0000  34.2500  68.7500 Du        
   3647 ****       208.0000  34.2500  69.0000 Du        
   3648 ****       208.0000  34.2500  69.2500 Du        
   3649 ****       208.0000  34.2500  69.5000 Du        
   3650 ****       208.0000  34.2500  69.7500 Du        
   3651 ****       208.0000  34.2500  70.0000 Du        
   3652 ****       208.0000  34.2500  70.2500 Du        
   3653 ****       208.0000  34.2500  70.5000 Du        
   3654 ****       208.0000  34.2500  70.7500 Du        
   3655 ****       208.0000  34.5000  68.2500 Du        
   3656 ****       208.0000  34.5000  68.5000 Du        
   3657 ****       208.0000  34.5000  68.7500 Du        
   3658 ****       208.0000  34.5000  69.0000 Du        
   3659 ****       208.0000  34.5000  69.2500 Du        
   3660 ****       208.0000  34.5000  69.5000 Du        
   3661 ****       208.0000  34.5000  69.7500 Du        
   3662 ****       208.0000  34.5000  70.0000 Du        
   3663 ****       208.0000  34.5000  70.2500 Du        
   3664 ****       208.0000  34.5000  70.5000 Du        
   3665 ****       208.0000  34.7500  68.0000 Du        
   3666 ****       208.0000  34.7500  68.2500 Du        
   3667 ****       208.0000  34.7500  68.5000 Du        
   3668 ****       208.0000  34.7500  68.7500 Du        
   3669 ****       208.0000  34.7500  69.0000 Du        
   3670 ****       208.0000  34.7500  69.2500 Du        
   3671 ****       208.0000  34.7500  69.5000 Du        
   3672 ****       208.0000  34.7500  69.7500 Du        
   3673 ****       208.0000  34.7500  70.0000 Du        
   3674 ****       208.0000  34.7500  70.2500 Du        
   3675 ****       208.0000  35.0000  68.0000 Du        
   3676 ****       208.0000  35.0000  68.2500 Du        
   3677 ****       208.0000  35.0000  68.5000 Du        
   3678 ****       208.0000  35.0000  68.7500 Du        
   3679 ****       208.0000  35.0000  69.0000 Du        
   3680 ****       208.0000  35.0000  69.2500 Du        
   3681 ****       208.0000  35.0000  69.5000 Du        
   3682 ****       208.0000  35.0000  69.7500 Du        
   3683 ****       208.0000  35.0000  70.0000 Du        
   3684 ****       208.0000  35.0000  70.2500 Du        
   3685 ****       208.0000  35.2500  68.0000 Du        
   3686 ****       208.0000  35.2500  68.2500 Du        
   3687 ****       208.0000  35.2500  68.5000 Du        
   3688 ****       208.0000  35.2500  68.7500 Du        
   3689 ****       208.0000  35.2500  69.0000 Du        
   3690 ****       208.0000  35.2500  69.2500 Du        
   3691 ****       208.0000  35.2500  69.5000 Du        
   3692 ****       208.0000  35.2500  69.7500 Du        
   3693 ****       208.0000  35.2500  70.0000 Du        
   3694 ****       208.0000  35.2500  70.2500 Du        
   3695 ****       208.0000  35.5000  68.0000 Du        
   3696 ****       208.0000  35.5000  68.2500 Du        
   3697 ****       208.0000  35.5000  68.5000 Du        
   3698 ****       208.0000  35.5000  68.7500 Du        
   3699 ****       208.0000  35.5000  69.0000 Du        
   3700 ****       208.0000  35.5000  69.2500 Du        
   3701 ****       208.0000  35.5000  69.5000 Du        
   3702 ****       208.0000  35.5000  69.7500 Du        
   3703 ****       208.0000  35.5000  70.0000 Du        
   3704 ****       208.0000  35.5000  70.2500 Du        
   3705 ****       208.0000  35.7500  68.0000 Du        
   3706 ****       208.0000  35.7500  68.2500 Du        
   3707 ****       208.0000  35.7500  68.5000 Du        
   3708 ****       208.0000  35.7500  68.7500 Du        
   3709 ****       208.0000  35.7500  69.0000 Du        
   3710 ****       208.0000  35.7500  69.2500 Du        
   3711 ****       208.0000  35.7500  69.5000 Du        
   3712 ****       208.0000  35.7500  69.7500 Du        
   3713 ****       208.0000  35.7500  70.0000 Du        
   3714 ****       208.0000  35.7500  70.2500 Du        
   3715 ****       208.0000  35.7500  70.5000 Du        
   3716 ****       208.0000  36.0000  68.0000 Du        
   3717 ****       208.0000  36.0000  68.2500 Du        
   3718 ****       208.0000  36.0000  68.5000 Du        
   3719 ****       208.0000  36.0000  68.7500 Du        
   3720 ****       208.0000  36.0000  69.0000 Du        
   3721 ****       208.0000  36.0000  69.2500 Du        
   3722 ****       208.0000  36.0000  69.5000 Du        
   3723 ****       208.0000  36.0000  69.7500 Du        
   3724 ****       208.0000  36.0000  70.0000 Du        
   3725 ****       208.0000  36.0000  70.2500 Du        
   3726 ****       208.0000  36.0000  70.5000 Du        
   3727 ****       208.0000  36.2500  68.0000 Du        
   3728 ****       208.0000  36.2500  68.2500 Du        
   3729 ****       208.0000  36.2500  68.5000 Du        
   3730 ****       208.0000  36.2500  68.7500 Du        
   3731 ****       208.0000  36.2500  69.0000 Du        
   3732 ****       208.0000  36.2500  69.2500 Du        
   3733 ****       208.0000  36.2500  69.5000 Du        
   3734 ****       208.0000  36.2500  69.7500 Du        
   3735 ****       208.0000  36.2500  70.0000 Du        
   3736 ****       208.0000  36.2500  70.2500 Du        
   3737 ****       208.0000  36.2500  70.5000 Du        
   3738 ****       208.0000  36.5000  68.0000 Du        
   3739 ****       208.0000  36.5000  68.2500 Du        
   3740 ****       208.0000  36.5000  68.5000 Du        
   3741 ****       208.0000  36.5000  68.7500 Du        
   3742 ****       208.0000  36.5000  69.0000 Du        
   3743 ****       208.0000  36.5000  69.2500 Du        
   3744 ****       208.0000  36.5000  69.5000 Du        
   3745 ****       208.0000  36.5000  69.7500 Du        
   3746 ****       208.0000  36.5000  70.0000 Du        
   3747 ****       208.0000  36.5000  70.2500 Du        
   3748 ****       208.0000  36.5000  70.5000 Du        
   3749 ****       208.0000  36.7500  68.0000 Du        
   3750 ****       208.0000  36.7500  68.2500 Du        
   3751 ****       208.0000  36.7500  68.5000 Du        
   3752 ****       208.0000  36.7500  68.7500 Du        
   3753 ****       208.0000  36.7500  69.0000 Du        
   3754 ****       208.0000  36.7500  69.2500 Du        
   3755 ****       208.0000  36.7500  69.5000 Du        
   3756 ****       208.0000  36.7500  69.7500 Du        
   3757 ****       208.0000  36.7500  70.0000 Du        
   3758 ****       208.0000  36.7500  70.2500 Du        
   3759 ****       208.0000  36.7500  70.5000 Du        
   3760 ****       208.0000  37.0000  68.0000 Du        
   3761 ****       208.0000  37.0000  68.2500 Du        
   3762 ****       208.0000  37.0000  68.5000 Du        
   3763 ****       208.0000  37.0000  68.7500 Du        
   3764 ****       208.0000  37.0000  69.0000 Du        
   3765 ****       208.0000  37.0000  69.2500 Du        
   3766 ****       208.0000  37.0000  69.5000 Du        
   3767 ****       208.0000  37.0000  69.7500 Du        
   3768 ****       208.0000  37.0000  70.0000 Du        
   3769 ****       208.0000  37.0000  70.2500 Du        
   3770 ****       208.0000  37.0000  70.5000 Du        
   3771 ****       208.0000  37.0000  70.7500 Du        
   3772 ****       208.0000  37.2500  68.2500 Du        
   3773 ****       208.0000  37.2500  68.5000 Du        
   3774 ****       208.0000  37.2500  68.7500 Du        
   3775 ****       208.0000  37.2500  69.0000 Du        
   3776 ****       208.0000  37.2500  69.2500 Du        
   3777 ****       208.0000  37.2500  69.5000 Du        
   3778 ****       208.0000  37.2500  69.7500 Du        
   3779 ****       208.0000  37.2500  70.0000 Du        
   3780 ****       208.0000  37.2500  70.2500 Du        
   3781 ****       208.0000  37.2500  70.5000 Du        
   3782 ****       208.0000  37.2500  70.7500 Du        
   3783 ****       208.0000  37.5000  68.5000 Du        
   3784 ****       208.0000  37.5000  68.7500 Du        
   3785 ****       208.0000  37.5000  69.0000 Du        
   3786 ****       208.0000  37.5000  69.2500 Du        
   3787 ****       208.0000  37.5000  69.5000 Du        
   3788 ****       208.0000  37.5000  69.7500 Du        
   3789 ****       208.0000  37.5000  70.0000 Du        
   3790 ****       208.0000  37.5000  70.2500 Du        
   3791 ****       208.0000  37.5000  70.5000 Du        
   3792 ****       208.0000  37.7500  68.5000 Du        
   3793 ****       208.0000  37.7500  68.7500 Du        
   3794 ****       208.0000  37.7500  69.0000 Du        
   3795 ****       208.0000  37.7500  69.2500 Du        
   3796 ****       208.0000  37.7500  69.5000 Du        
   3797 ****       208.0000  37.7500  69.7500 Du        
   3798 ****       208.0000  37.7500  70.0000 Du        
   3799 ****       208.0000  37.7500  70.2500 Du        
   3800 ****       208.0000  37.7500  70.5000 Du        
   3801 ****       208.0000  38.0000  68.7500 Du        
   3802 ****       208.0000  38.0000  69.0000 Du        
   3803 ****       208.0000  38.0000  69.2500 Du        
   3804 ****       208.0000  38.0000  69.5000 Du        
   3805 ****       208.0000  38.0000  69.7500 Du        
   3806 ****       208.0000  38.0000  70.0000 Du        
   3807 ****       208.0000  38.0000  70.2500 Du        
   3808 ****       208.0000  38.2500  69.0000 Du        
   3809 ****       208.0000  38.2500  69.2500 Du        
   3810 ****       208.0000  38.2500  69.5000 Du        
   3811 ****       208.0000  38.2500  69.7500 Du        
   3812 ****       208.0000  38.5000  69.2500 Du        
   3813 ****       208.0000  38.5000  69.5000 Du        
   3814 ****       208.2500  24.5000  70.5000 Du        
   3815 ****       208.2500  24.7500  70.0000 Du        
   3816 ****       208.2500  24.7500  70.2500 Du        
   3817 ****       208.2500  24.7500  70.5000 Du        
   3818 ****       208.2500  25.0000  69.7500 Du        
   3819 ****       208.2500  25.0000  70.0000 Du        
   3820 ****       208.2500  25.0000  70.2500 Du        
   3821 ****       208.2500  25.0000  70.5000 Du        
   3822 ****       208.2500  25.2500  69.2500 Du        
   3823 ****       208.2500  25.2500  69.5000 Du        
   3824 ****       208.2500  25.2500  69.7500 Du        
   3825 ****       208.2500  25.2500  70.0000 Du        
   3826 ****       208.2500  25.2500  70.2500 Du        
   3827 ****       208.2500  25.5000  69.0000 Du        
   3828 ****       208.2500  25.5000  69.2500 Du        
   3829 ****       208.2500  25.5000  69.7500 Du        
   3830 ****       208.2500  25.5000  70.0000 Du        
   3831 ****       208.2500  25.5000  70.2500 Du        
   3832 ****       208.2500  25.7500  69.0000 Du        
   3833 ****       208.2500  25.7500  69.2500 Du        
   3834 ****       208.2500  25.7500  69.5000 Du        
   3835 ****       208.2500  25.7500  69.7500 Du        
   3836 ****       208.2500  25.7500  70.0000 Du        
   3837 ****       208.2500  25.7500  70.5000 Du        
   3838 ****       208.2500  25.7500  70.7500 Du        
   3839 ****       208.2500  26.0000  69.0000 Du        
   3840 ****       208.2500  26.0000  69.2500 Du        
   3841 ****       208.2500  26.0000  69.5000 Du        
   3842 ****       208.2500  26.0000  69.7500 Du        
   3843 ****       208.2500  26.0000  70.0000 Du        
   3844 ****       208.2500  26.0000  70.5000 Du        
   3845 ****       208.2500  26.0000  70.7500 Du        
   3846 ****       208.2500  26.2500  69.0000 Du        
   3847 ****       208.2500  26.2500  69.2500 Du        
   3848 ****       208.2500  26.2500  69.5000 Du        
   3849 ****       208.2500  26.2500  69.7500 Du        
   3850 ****       208.2500  26.2500  70.7500 Du        
   3851 ****       208.2500  26.5000  69.0000 Du        
   3852 ****       208.2500  26.5000  69.2500 Du        
   3853 ****       208.2500  26.5000  69.7500 Du        
   3854 ****       208.2500  31.5000  70.5000 Du        
   3855 ****       208.2500  31.5000  70.7500 Du        
   3856 ****       208.2500  31.5000  71.0000 Du        
   3857 ****       208.2500  31.7500  70.2500 Du        
   3858 ****       208.2500  31.7500  70.5000 Du        
   3859 ****       208.2500  31.7500  70.7500 Du        
   3860 ****       208.2500  31.7500  71.0000 Du        
   3861 ****       208.2500  32.0000  70.0000 Du        
   3862 ****       208.2500  32.0000  70.2500 Du        
   3863 ****       208.2500  32.0000  70.5000 Du        
   3864 ****       208.2500  32.0000  70.7500 Du        
   3865 ****       208.2500  32.0000  71.0000 Du        
   3866 ****       208.2500  32.0000  71.2500 Du        
   3867 ****       208.2500  32.2500  69.7500 Du        
   3868 ****       208.2500  32.2500  70.0000 Du        
   3869 ****       208.2500  32.2500  70.2500 Du        
   3870 ****       208.2500  32.2500  70.5000 Du        
   3871 ****       208.2500  32.2500  70.7500 Du        
   3872 ****       208.2500  32.2500  71.0000 Du        
   3873 ****       208.2500  32.2500  71.2500 Du        
   3874 ****       208.2500  32.2500  71.5000 Du        
   3875 ****       208.2500  32.5000  69.7500 Du        
   3876 ****       208.2500  32.5000  70.0000 Du        
   3877 ****       208.2500  32.5000  70.2500 Du        
   3878 ****       208.2500  32.5000  70.5000 Du        
   3879 ****       208.2500  32.5000  70.7500 Du        
   3880 ****       208.2500  32.5000  71.0000 Du        
   3881 ****       208.2500  32.5000  71.2500 Du        
   3882 ****       208.2500  32.5000  71.5000 Du        
   3883 ****       208.2500  32.7500  69.5000 Du        
   3884 ****       208.2500  32.7500  69.7500 Du        
   3885 ****       208.2500  32.7500  70.0000 Du        
   3886 ****       208.2500  32.7500  70.2500 Du        
   3887 ****       208.2500  32.7500  70.5000 Du        
   3888 ****       208.2500  32.7500  70.7500 Du        
   3889 ****       208.2500  32.7500  71.0000 Du        
   3890 ****       208.2500  32.7500  71.2500 Du        
   3891 ****       208.2500  32.7500  71.5000 Du        
   3892 ****       208.2500  32.7500  71.7500 Du        
   3893 ****       208.2500  33.0000  69.5000 Du        
   3894 ****       208.2500  33.0000  69.7500 Du        
   3895 ****       208.2500  33.0000  70.0000 Du        
   3896 ****       208.2500  33.0000  70.2500 Du        
   3897 ****       208.2500  33.0000  70.5000 Du        
   3898 ****       208.2500  33.0000  70.7500 Du        
   3899 ****       208.2500  33.0000  71.0000 Du        
   3900 ****       208.2500  33.0000  71.2500 Du        
   3901 ****       208.2500  33.0000  71.5000 Du        
   3902 ****       208.2500  33.0000  71.7500 Du        
   3903 ****       208.2500  33.0000  72.0000 Du        
   3904 ****       208.2500  33.2500  69.2500 Du        
   3905 ****       208.2500  33.2500  69.5000 Du        
   3906 ****       208.2500  33.2500  69.7500 Du        
   3907 ****       208.2500  33.2500  70.0000 Du        
   3908 ****       208.2500  33.2500  70.2500 Du        
   3909 ****       208.2500  33.2500  70.5000 Du        
   3910 ****       208.2500  33.2500  70.7500 Du        
   3911 ****       208.2500  33.2500  71.0000 Du        
   3912 ****       208.2500  33.2500  71.2500 Du        
   3913 ****       208.2500  33.2500  71.5000 Du        
   3914 ****       208.2500  33.2500  71.7500 Du        
   3915 ****       208.2500  33.2500  72.0000 Du        
   3916 ****       208.2500  33.5000  69.0000 Du        
   3917 ****       208.2500  33.5000  69.2500 Du        
   3918 ****       208.2500  33.5000  69.5000 Du        
   3919 ****       208.2500  33.5000  69.7500 Du        
   3920 ****       208.2500  33.5000  70.0000 Du        
   3921 ****       208.2500  33.5000  70.2500 Du        
   3922 ****       208.2500  33.5000  70.5000 Du        
   3923 ****       208.2500  33.5000  70.7500 Du        
   3924 ****       208.2500  33.5000  71.0000 Du        
   3925 ****       208.2500  33.5000  71.2500 Du        
   3926 ****       208.2500  33.5000  71.5000 Du        
   3927 ****       208.2500  33.5000  71.7500 Du        
   3928 ****       208.2500  33.5000  72.0000 Du        
   3929 ****       208.2500  33.7500  68.7500 Du        
   3930 ****       208.2500  33.7500  69.0000 Du        
   3931 ****       208.2500  33.7500  69.2500 Du        
   3932 ****       208.2500  33.7500  69.5000 Du        
   3933 ****       208.2500  33.7500  69.7500 Du        
   3934 ****       208.2500  33.7500  70.0000 Du        
   3935 ****       208.2500  34.0000  68.5000 Du        
   3936 ****       208.2500  34.0000  68.7500 Du        
   3937 ****       208.2500  34.0000  69.0000 Du        
   3938 ****       208.2500  34.0000  69.2500 Du        
   3939 ****       208.2500  34.0000  69.5000 Du        
   3940 ****       208.2500  34.0000  69.7500 Du        
   3941 ****       208.2500  34.2500  68.2500 Du        
   3942 ****       208.2500  34.2500  68.5000 Du        
   3943 ****       208.2500  34.2500  68.7500 Du        
   3944 ****       208.2500  34.2500  69.0000 Du        
   3945 ****       208.2500  34.2500  69.2500 Du        
   3946 ****       208.2500  34.2500  69.5000 Du        
   3947 ****       208.2500  34.5000  68.0000 Du        
   3948 ****       208.2500  34.5000  68.2500 Du        
   3949 ****       208.2500  34.5000  68.5000 Du        
   3950 ****       208.2500  34.5000  68.7500 Du        
   3951 ****       208.2500  34.5000  69.0000 Du        
   3952 ****       208.2500  34.5000  69.2500 Du        
   3953 ****       208.2500  34.5000  69.5000 Du        
   3954 ****       208.2500  34.5000  69.7500 Du        
   3955 ****       208.2500  34.7500  68.0000 Du        
   3956 ****       208.2500  34.7500  68.2500 Du        
   3957 ****       208.2500  34.7500  68.5000 Du        
   3958 ****       208.2500  34.7500  68.7500 Du        
   3959 ****       208.2500  34.7500  69.0000 Du        
   3960 ****       208.2500  34.7500  69.2500 Du        
   3961 ****       208.2500  34.7500  69.5000 Du        
   3962 ****       208.2500  34.7500  69.7500 Du        
   3963 ****       208.2500  35.0000  68.0000 Du        
   3964 ****       208.2500  35.0000  68.2500 Du        
   3965 ****       208.2500  35.0000  68.5000 Du        
   3966 ****       208.2500  35.0000  68.7500 Du        
   3967 ****       208.2500  35.0000  69.0000 Du        
   3968 ****       208.2500  35.0000  69.2500 Du        
   3969 ****       208.2500  35.0000  69.5000 Du        
   3970 ****       208.2500  35.0000  69.7500 Du        
   3971 ****       208.2500  35.0000  70.0000 Du        
   3972 ****       208.2500  35.2500  68.0000 Du        
   3973 ****       208.2500  35.2500  68.2500 Du        
   3974 ****       208.2500  35.2500  68.5000 Du        
   3975 ****       208.2500  35.2500  68.7500 Du        
   3976 ****       208.2500  35.2500  69.0000 Du        
   3977 ****       208.2500  35.2500  69.2500 Du        
   3978 ****       208.2500  35.2500  69.5000 Du        
   3979 ****       208.2500  35.2500  69.7500 Du        
   3980 ****       208.2500  35.2500  70.0000 Du        
   3981 ****       208.2500  35.5000  68.0000 Du        
   3982 ****       208.2500  35.5000  68.2500 Du        
   3983 ****       208.2500  35.5000  68.5000 Du        
   3984 ****       208.2500  35.5000  68.7500 Du        
   3985 ****       208.2500  35.5000  69.0000 Du        
   3986 ****       208.2500  35.5000  69.2500 Du        
   3987 ****       208.2500  35.5000  69.5000 Du        
   3988 ****       208.2500  35.5000  69.7500 Du        
   3989 ****       208.2500  35.5000  70.0000 Du        
   3990 ****       208.2500  35.5000  70.2500 Du        
   3991 ****       208.2500  35.7500  68.0000 Du        
   3992 ****       208.2500  35.7500  68.2500 Du        
   3993 ****       208.2500  35.7500  68.5000 Du        
   3994 ****       208.2500  35.7500  68.7500 Du        
   3995 ****       208.2500  35.7500  69.0000 Du        
   3996 ****       208.2500  35.7500  69.2500 Du        
   3997 ****       208.2500  35.7500  69.5000 Du        
   3998 ****       208.2500  35.7500  69.7500 Du        
   3999 ****       208.2500  35.7500  70.0000 Du        
   4000 ****       208.2500  35.7500  70.2500 Du        
   4001 ****       208.2500  36.0000  68.0000 Du        
   4002 ****       208.2500  36.0000  68.2500 Du        
   4003 ****       208.2500  36.0000  68.5000 Du        
   4004 ****       208.2500  36.0000  68.7500 Du        
   4005 ****       208.2500  36.0000  69.0000 Du        
   4006 ****       208.2500  36.0000  69.2500 Du        
   4007 ****       208.2500  36.0000  69.5000 Du        
   4008 ****       208.2500  36.0000  69.7500 Du        
   4009 ****       208.2500  36.0000  70.0000 Du        
   4010 ****       208.2500  36.0000  70.2500 Du        
   4011 ****       208.2500  36.0000  70.5000 Du        
   4012 ****       208.2500  36.2500  68.0000 Du        
   4013 ****       208.2500  36.2500  68.2500 Du        
   4014 ****       208.2500  36.2500  68.5000 Du        
   4015 ****       208.2500  36.2500  68.7500 Du        
   4016 ****       208.2500  36.2500  69.0000 Du        
   4017 ****       208.2500  36.2500  69.2500 Du        
   4018 ****       208.2500  36.2500  69.5000 Du        
   4019 ****       208.2500  36.2500  69.7500 Du        
   4020 ****       208.2500  36.2500  70.0000 Du        
   4021 ****       208.2500  36.2500  70.2500 Du        
   4022 ****       208.2500  36.2500  70.5000 Du        
   4023 ****       208.2500  36.5000  68.2500 Du        
   4024 ****       208.2500  36.5000  68.5000 Du        
   4025 ****       208.2500  36.5000  68.7500 Du        
   4026 ****       208.2500  36.5000  69.0000 Du        
   4027 ****       208.2500  36.5000  69.2500 Du        
   4028 ****       208.2500  36.5000  69.5000 Du        
   4029 ****       208.2500  36.5000  69.7500 Du        
   4030 ****       208.2500  36.5000  70.0000 Du        
   4031 ****       208.2500  36.5000  70.2500 Du        
   4032 ****       208.2500  36.5000  70.5000 Du        
   4033 ****       208.2500  36.7500  68.2500 Du        
   4034 ****       208.2500  36.7500  68.5000 Du        
   4035 ****       208.2500  36.7500  68.7500 Du        
   4036 ****       208.2500  36.7500  69.0000 Du        
   4037 ****       208.2500  36.7500  69.2500 Du        
   4038 ****       208.2500  36.7500  69.5000 Du        
   4039 ****       208.2500  36.7500  69.7500 Du        
   4040 ****       208.2500  36.7500  70.0000 Du        
   4041 ****       208.2500  36.7500  70.2500 Du        
   4042 ****       208.2500  36.7500  70.5000 Du        
   4043 ****       208.2500  36.7500  70.7500 Du        
   4044 ****       208.2500  37.0000  68.5000 Du        
   4045 ****       208.2500  37.0000  68.7500 Du        
   4046 ****       208.2500  37.0000  69.0000 Du        
   4047 ****       208.2500  37.0000  69.2500 Du        
   4048 ****       208.2500  37.0000  69.5000 Du        
   4049 ****       208.2500  37.0000  69.7500 Du        
   4050 ****       208.2500  37.0000  70.0000 Du        
   4051 ****       208.2500  37.0000  70.2500 Du        
   4052 ****       208.2500  37.0000  70.5000 Du        
   4053 ****       208.2500  37.0000  70.7500 Du        
   4054 ****       208.2500  37.2500  68.5000 Du        
   4055 ****       208.2500  37.2500  68.7500 Du        
   4056 ****       208.2500  37.2500  69.0000 Du        
   4057 ****       208.2500  37.2500  69.2500 Du        
   4058 ****       208.2500  37.2500  69.5000 Du        
   4059 ****       208.2500  37.2500  69.7500 Du        
   4060 ****       208.2500  37.2500  70.0000 Du        
   4061 ****       208.2500  37.2500  70.2500 Du        
   4062 ****       208.2500  37.2500  70.5000 Du        
   4063 ****       208.2500  37.2500  70.7500 Du        
   4064 ****       208.2500  37.5000  68.5000 Du        
   4065 ****       208.2500  37.5000  68.7500 Du        
   4066 ****       208.2500  37.5000  69.0000 Du        
   4067 ****       208.2500  37.5000  69.2500 Du        
   4068 ****       208.2500  37.5000  69.5000 Du        
   4069 ****       208.2500  37.5000  69.7500 Du        
   4070 ****       208.2500  37.5000  70.0000 Du        
   4071 ****       208.2500  37.5000  70.2500 Du        
   4072 ****       208.2500  37.5000  70.5000 Du        
   4073 ****       208.2500  37.7500  68.7500 Du        
   4074 ****       208.2500  37.7500  69.0000 Du        
   4075 ****       208.2500  37.7500  69.2500 Du        
   4076 ****       208.2500  37.7500  69.5000 Du        
   4077 ****       208.2500  37.7500  69.7500 Du        
   4078 ****       208.2500  37.7500  70.0000 Du        
   4079 ****       208.2500  37.7500  70.2500 Du        
   4080 ****       208.2500  37.7500  70.5000 Du        
   4081 ****       208.2500  38.0000  68.7500 Du        
   4082 ****       208.2500  38.0000  69.0000 Du        
   4083 ****       208.2500  38.0000  69.2500 Du        
   4084 ****       208.2500  38.0000  69.5000 Du        
   4085 ****       208.2500  38.0000  69.7500 Du        
   4086 ****       208.2500  38.0000  70.0000 Du        
   4087 ****       208.2500  38.0000  70.2500 Du        
   4088 ****       208.2500  38.2500  69.0000 Du        
   4089 ****       208.2500  38.2500  69.2500 Du        
   4090 ****       208.2500  38.2500  69.5000 Du        
   4091 ****       208.2500  38.2500  69.7500 Du        
   4092 ****       208.2500  38.2500  70.0000 Du        
   4093 ****       208.2500  38.5000  69.2500 Du        
   4094 ****       208.2500  38.5000  69.5000 Du        
   4095 ****       208.5000  31.5000  70.2500 Du        
   4096 ****       208.5000  31.5000  70.5000 Du        
   4097 ****       208.5000  31.7500  70.0000 Du        
   4098 ****       208.5000  31.7500  70.2500 Du        
   4099 ****       208.5000  31.7500  70.5000 Du        
   4100 ****       208.5000  31.7500  70.7500 Du        
   4101 ****       208.5000  31.7500  71.0000 Du        
   4102 ****       208.5000  32.0000  70.0000 Du        
   4103 ****       208.5000  32.0000  70.2500 Du        
   4104 ****       208.5000  32.0000  70.5000 Du        
   4105 ****       208.5000  32.0000  70.7500 Du        
   4106 ****       208.5000  32.0000  71.0000 Du        
   4107 ****       208.5000  32.2500  69.7500 Du        
   4108 ****       208.5000  32.2500  70.0000 Du        
   4109 ****       208.5000  32.2500  70.2500 Du        
   4110 ****       208.5000  32.2500  70.5000 Du        
   4111 ****       208.5000  32.2500  70.7500 Du        
   4112 ****       208.5000  32.2500  71.0000 Du        
   4113 ****       208.5000  32.5000  69.7500 Du        
   4114 ****       208.5000  32.5000  70.0000 Du        
   4115 ****       208.5000  32.5000  70.2500 Du        
   4116 ****       208.5000  32.5000  70.5000 Du        
   4117 ****       208.5000  32.5000  70.7500 Du        
   4118 ****       208.5000  32.5000  71.0000 Du        
   4119 ****       208.5000  32.5000  71.2500 Du        
   4120 ****       208.5000  32.7500  70.0000 Du        
   4121 ****       208.5000  32.7500  70.7500 Du        
   4122 ****       208.5000  32.7500  71.0000 Du        
   4123 ****       208.5000  32.7500  71.2500 Du        
   4124 ****       208.5000  32.7500  71.5000 Du        
   4125 ****       208.5000  33.0000  71.2500 Du        
   4126 ****       208.5000  33.0000  71.5000 Du        
   4127 ****       208.5000  33.0000  71.7500 Du        
   4128 ****       208.5000  33.2500  71.7500 Du        
   4129 ****       208.5000  34.2500  68.2500 Du        
   4130 ****       208.5000  34.2500  68.5000 Du        
   4131 ****       208.5000  34.2500  68.7500 Du        
   4132 ****       208.5000  34.5000  68.0000 Du        
   4133 ****       208.5000  34.5000  68.2500 Du        
   4134 ****       208.5000  34.5000  68.5000 Du        
   4135 ****       208.5000  34.5000  68.7500 Du        
   4136 ****       208.5000  34.7500  68.0000 Du        
   4137 ****       208.5000  34.7500  68.2500 Du        
   4138 ****       208.5000  34.7500  68.5000 Du        
   4139 ****       208.5000  34.7500  68.7500 Du        
   4140 ****       208.5000  34.7500  69.0000 Du        
   4141 ****       208.5000  35.0000  68.0000 Du        
   4142 ****       208.5000  35.0000  68.2500 Du        
   4143 ****       208.5000  35.0000  68.5000 Du        
   4144 ****       208.5000  35.0000  68.7500 Du        
   4145 ****       208.5000  35.0000  69.0000 Du        
   4146 ****       208.5000  35.0000  69.2500 Du        
   4147 ****       208.5000  35.2500  68.0000 Du        
   4148 ****       208.5000  35.2500  68.2500 Du        
   4149 ****       208.5000  35.2500  68.5000 Du        
   4150 ****       208.5000  35.2500  68.7500 Du        
   4151 ****       208.5000  35.2500  69.0000 Du        
   4152 ****       208.5000  35.2500  69.2500 Du        
   4153 ****       208.5000  35.5000  68.0000 Du        
   4154 ****       208.5000  35.5000  68.2500 Du        
   4155 ****       208.5000  35.5000  68.5000 Du        
   4156 ****       208.5000  35.5000  68.7500 Du        
   4157 ****       208.5000  35.5000  69.0000 Du        
   4158 ****       208.5000  35.5000  69.2500 Du        
   4159 ****       208.5000  35.5000  69.5000 Du        
   4160 ****       208.5000  35.7500  68.0000 Du        
   4161 ****       208.5000  35.7500  68.2500 Du        
   4162 ****       208.5000  35.7500  68.5000 Du        
   4163 ****       208.5000  35.7500  68.7500 Du        
   4164 ****       208.5000  35.7500  69.0000 Du        
   4165 ****       208.5000  35.7500  69.2500 Du        
   4166 ****       208.5000  35.7500  69.5000 Du        
   4167 ****       208.5000  35.7500  69.7500 Du        
   4168 ****       208.5000  35.7500  70.0000 Du        
   4169 ****       208.5000  36.0000  68.2500 Du        
   4170 ****       208.5000  36.0000  68.5000 Du        
   4171 ****       208.5000  36.0000  68.7500 Du        
   4172 ****       208.5000  36.0000  69.0000 Du        
   4173 ****       208.5000  36.0000  69.2500 Du        
   4174 ****       208.5000  36.0000  69.5000 Du        
   4175 ****       208.5000  36.0000  69.7500 Du        
   4176 ****       208.5000  36.0000  70.0000 Du        
   4177 ****       208.5000  36.0000  70.2500 Du        
   4178 ****       208.5000  36.2500  68.5000 Du        
   4179 ****       208.5000  36.2500  68.7500 Du        
   4180 ****       208.5000  36.2500  69.0000 Du        
   4181 ****       208.5000  36.2500  69.2500 Du        
   4182 ****       208.5000  36.2500  69.5000 Du        
   4183 ****       208.5000  36.2500  69.7500 Du        
   4184 ****       208.5000  36.2500  70.0000 Du        
   4185 ****       208.5000  36.2500  70.2500 Du        
   4186 ****       208.5000  36.5000  68.7500 Du        
   4187 ****       208.5000  36.5000  69.0000 Du        
   4188 ****       208.5000  36.5000  69.2500 Du        
   4189 ****       208.5000  36.5000  69.5000 Du        
   4190 ****       208.5000  36.5000  69.7500 Du        
   4191 ****       208.5000  36.5000  70.0000 Du        
   4192 ****       208.5000  36.5000  70.2500 Du        
   4193 ****       208.5000  36.5000  70.5000 Du        
   4194 ****       208.5000  36.7500  68.7500 Du        
   4195 ****       208.5000  36.7500  69.0000 Du        
   4196 ****       208.5000  36.7500  69.2500 Du        
   4197 ****       208.5000  36.7500  69.5000 Du        
   4198 ****       208.5000  36.7500  69.7500 Du        
   4199 ****       208.5000  36.7500  70.0000 Du        
   4200 ****       208.5000  36.7500  70.2500 Du        
   4201 ****       208.5000  36.7500  70.5000 Du        
   4202 ****       208.5000  36.7500  70.7500 Du        
   4203 ****       208.5000  37.0000  68.7500 Du        
   4204 ****       208.5000  37.0000  69.0000 Du        
   4205 ****       208.5000  37.0000  69.2500 Du        
   4206 ****       208.5000  37.0000  69.5000 Du        
   4207 ****       208.5000  37.0000  69.7500 Du        
   4208 ****       208.5000  37.0000  70.0000 Du        
   4209 ****       208.5000  37.0000  70.2500 Du        
   4210 ****       208.5000  37.0000  70.5000 Du        
   4211 ****       208.5000  37.0000  70.7500 Du        
   4212 ****       208.5000  37.2500  69.0000 Du        
   4213 ****       208.5000  37.2500  69.2500 Du        
   4214 ****       208.5000  37.2500  69.5000 Du        
   4215 ****       208.5000  37.2500  69.7500 Du        
   4216 ****       208.5000  37.2500  70.0000 Du        
   4217 ****       208.5000  37.2500  70.2500 Du        
   4218 ****       208.5000  37.2500  70.5000 Du        
   4219 ****       208.5000  37.2500  70.7500 Du        
   4220 ****       208.5000  37.5000  69.0000 Du        
   4221 ****       208.5000  37.5000  69.2500 Du        
   4222 ****       208.5000  37.5000  69.5000 Du        
   4223 ****       208.5000  37.5000  69.7500 Du        
   4224 ****       208.5000  37.5000  70.0000 Du        
   4225 ****       208.5000  37.5000  70.2500 Du        
   4226 ****       208.5000  37.5000  70.5000 Du        
   4227 ****       208.5000  37.7500  69.0000 Du        
   4228 ****       208.5000  37.7500  69.2500 Du        
   4229 ****       208.5000  37.7500  69.5000 Du        
   4230 ****       208.5000  37.7500  69.7500 Du        
   4231 ****       208.5000  37.7500  70.0000 Du        
   4232 ****       208.5000  37.7500  70.2500 Du        
   4233 ****       208.5000  37.7500  70.5000 Du        
   4234 ****       208.5000  38.0000  69.0000 Du        
   4235 ****       208.5000  38.0000  69.2500 Du        
   4236 ****       208.5000  38.0000  69.5000 Du        
   4237 ****       208.5000  38.0000  69.7500 Du        
   4238 ****       208.5000  38.0000  70.0000 Du        
   4239 ****       208.5000  38.0000  70.2500 Du        
   4240 ****       208.5000  38.2500  69.0000 Du        
   4241 ****       208.5000  38.2500  69.2500 Du        
   4242 ****       208.5000  38.2500  69.5000 Du        
   4243 ****       208.5000  38.2500  69.7500 Du        
   4244 ****       208.5000  38.2500  70.0000 Du        
   4245 ****       208.5000  38.5000  69.2500 Du        
   4246 ****       208.5000  38.5000  69.5000 Du        
   4247 ****       208.7500  22.5000  70.2500 Du        
   4248 ****       208.7500  22.5000  70.7500 Du        
   4249 ****       208.7500  22.7500  70.7500 Du        
   4250 ****       208.7500  31.5000  70.0000 Du        
   4251 ****       208.7500  31.5000  70.2500 Du        
   4252 ****       208.7500  31.5000  70.5000 Du        
   4253 ****       208.7500  31.7500  69.7500 Du        
   4254 ****       208.7500  31.7500  70.0000 Du        
   4255 ****       208.7500  31.7500  70.2500 Du        
   4256 ****       208.7500  31.7500  70.5000 Du        
   4257 ****       208.7500  32.0000  69.7500 Du        
   4258 ****       208.7500  32.0000  70.0000 Du        
   4259 ****       208.7500  32.0000  70.2500 Du        
   4260 ****       208.7500  32.0000  70.7500 Du        
   4261 ****       208.7500  32.2500  70.0000 Du        
   4262 ****       208.7500  34.7500  68.0000 Du        
   4263 ****       208.7500  34.7500  68.2500 Du        
   4264 ****       208.7500  35.0000  68.0000 Du        
   4265 ****       208.7500  35.0000  68.2500 Du        
   4266 ****       208.7500  35.0000  68.5000 Du        
   4267 ****       208.7500  35.2500  68.0000 Du        
   4268 ****       208.7500  35.2500  68.2500 Du        
   4269 ****       208.7500  35.2500  68.5000 Du        
   4270 ****       208.7500  35.2500  68.7500 Du        
   4271 ****       208.7500  35.5000  68.0000 Du        
   4272 ****       208.7500  35.5000  68.2500 Du        
   4273 ****       208.7500  35.5000  68.5000 Du        
   4274 ****       208.7500  35.5000  68.7500 Du        
   4275 ****       208.7500  35.5000  69.0000 Du        
   4276 ****       208.7500  35.7500  68.5000 Du        
   4277 ****       208.7500  35.7500  68.7500 Du        
   4278 ****       208.7500  35.7500  69.0000 Du        
   4279 ****       208.7500  35.7500  69.2500 Du        
   4280 ****       208.7500  36.0000  68.7500 Du        
   4281 ****       208.7500  36.0000  69.0000 Du        
   4282 ****       208.7500  36.0000  69.2500 Du        
   4283 ****       208.7500  36.0000  69.5000 Du        
   4284 ****       208.7500  36.0000  69.7500 Du        
   4285 ****       208.7500  36.2500  69.0000 Du        
   4286 ****       208.7500  36.2500  69.2500 Du        
   4287 ****       208.7500  36.2500  69.5000 Du        
   4288 ****       208.7500  36.2500  69.7500 Du        
   4289 ****       208.7500  36.2500  70.0000 Du        
   4290 ****       208.7500  36.2500  70.2500 Du        
   4291 ****       208.7500  36.5000  69.0000 Du        
   4292 ****       208.7500  36.5000  69.2500 Du        
   4293 ****       208.7500  36.5000  69.5000 Du        
   4294 ****       208.7500  36.5000  69.7500 Du        
   4295 ****       208.7500  36.5000  70.0000 Du        
   4296 ****       208.7500  36.5000  70.2500 Du        
   4297 ****       208.7500  36.5000  70.5000 Du        
   4298 ****       208.7500  36.7500  69.2500 Du        
   4299 ****       208.7500  36.7500  69.5000 Du        
   4300 ****       208.7500  36.7500  69.7500 Du        
   4301 ****       208.7500  36.7500  70.0000 Du        
   4302 ****       208.7500  36.7500  70.2500 Du        
   4303 ****       208.7500  36.7500  70.5000 Du        
   4304 ****       208.7500  36.7500  70.7500 Du        
   4305 ****       208.7500  37.0000  69.2500 Du        
   4306 ****       208.7500  37.0000  69.5000 Du        
   4307 ****       208.7500  37.0000  69.7500 Du        
   4308 ****       208.7500  37.0000  70.0000 Du        
   4309 ****       208.7500  37.0000  70.2500 Du        
   4310 ****       208.7500  37.0000  70.5000 Du        
   4311 ****       208.7500  37.0000  70.7500 Du        
   4312 ****       208.7500  37.2500  69.2500 Du        
   4313 ****       208.7500  37.2500  69.5000 Du        
   4314 ****       208.7500  37.2500  69.7500 Du        
   4315 ****       208.7500  37.2500  70.0000 Du        
   4316 ****       208.7500  37.2500  70.2500 Du        
   4317 ****       208.7500  37.2500  70.5000 Du        
   4318 ****       208.7500  37.2500  70.7500 Du        
   4319 ****       208.7500  37.5000  69.2500 Du        
   4320 ****       208.7500  37.5000  69.5000 Du        
   4321 ****       208.7500  37.5000  69.7500 Du        
   4322 ****       208.7500  37.5000  70.0000 Du        
   4323 ****       208.7500  37.5000  70.2500 Du        
   4324 ****       208.7500  37.5000  70.5000 Du        
   4325 ****       208.7500  37.7500  69.2500 Du        
   4326 ****       208.7500  37.7500  69.5000 Du        
   4327 ****       208.7500  37.7500  69.7500 Du        
   4328 ****       208.7500  37.7500  70.0000 Du        
   4329 ****       208.7500  37.7500  70.2500 Du        
   4330 ****       208.7500  37.7500  70.5000 Du        
   4331 ****       208.7500  38.0000  69.2500 Du        
   4332 ****       208.7500  38.0000  69.5000 Du        
   4333 ****       208.7500  38.0000  69.7500 Du        
   4334 ****       208.7500  38.0000  70.0000 Du        
   4335 ****       208.7500  38.0000  70.2500 Du        
   4336 ****       208.7500  38.2500  69.5000 Du        
   4337 ****       208.7500  38.2500  69.7500 Du        
   4338 ****       208.7500  38.2500  70.0000 Du        
   4339 ****       209.0000  31.2500  70.0000 Du        
   4340 ****       209.0000  31.2500  70.2500 Du        
   4341 ****       209.0000  31.5000  69.7500 Du        
   4342 ****       209.0000  31.5000  70.0000 Du        
   4343 ****       209.0000  31.5000  70.2500 Du        
   4344 ****       209.0000  31.7500  69.7500 Du        
   4345 ****       209.0000  31.7500  70.0000 Du        
   4346 ****       209.0000  31.7500  70.2500 Du        
   4347 ****       209.0000  36.5000  69.5000 Du        
   4348 ****       209.0000  36.5000  69.7500 Du        
   4349 ****       209.0000  36.5000  70.0000 Du        
   4350 ****       209.0000  36.5000  70.2500 Du        
   4351 ****       209.0000  36.7500  69.5000 Du        
   4352 ****       209.0000  36.7500  69.7500 Du        
   4353 ****       209.0000  36.7500  70.0000 Du        
   4354 ****       209.0000  36.7500  70.2500 Du        
   4355 ****       209.0000  36.7500  70.5000 Du        
   4356 ****       209.0000  37.0000  69.5000 Du        
   4357 ****       209.0000  37.0000  69.7500 Du        
   4358 ****       209.0000  37.0000  70.0000 Du        
   4359 ****       209.0000  37.0000  70.2500 Du        
   4360 ****       209.0000  37.0000  70.5000 Du        
   4361 ****       209.0000  37.0000  70.7500 Du        
   4362 ****       209.0000  37.2500  69.5000 Du        
   4363 ****       209.0000  37.2500  69.7500 Du        
   4364 ****       209.0000  37.2500  70.0000 Du        
   4365 ****       209.0000  37.2500  70.2500 Du        
   4366 ****       209.0000  37.2500  70.5000 Du        
   4367 ****       209.0000  37.2500  70.7500 Du        
   4368 ****       209.0000  37.5000  69.5000 Du        
   4369 ****       209.0000  37.5000  69.7500 Du        
   4370 ****       209.0000  37.5000  70.0000 Du        
   4371 ****       209.0000  37.5000  70.2500 Du        
   4372 ****       209.0000  37.5000  70.5000 Du        
   4373 ****       209.0000  37.7500  69.7500 Du        
   4374 ****       209.0000  37.7500  70.0000 Du        
   4375 ****       209.0000  37.7500  70.2500 Du        
   4376 ****       209.0000  37.7500  70.5000 Du        
   4377 ****       209.0000  38.0000  69.7500 Du        
   4378 ****       209.0000  38.0000  70.0000 Du        
   4379 ****       209.2500  36.7500  70.0000 Du        
   4380 ****       209.2500  36.7500  70.2500 Du        
   4381 ****       209.2500  37.0000  69.7500 Du        
   4382 ****       209.2500  37.0000  70.0000 Du        
   4383 ****       209.2500  37.0000  70.2500 Du        
   4384 ****       209.2500  37.0000  70.5000 Du        
   4385 ****       209.2500  37.2500  69.7500 Du        
   4386 ****       209.2500  37.2500  70.0000 Du        
   4387 ****       209.2500  37.2500  70.2500 Du        
   4388 ****       209.2500  37.2500  70.5000 Du        
   4389 ****       209.2500  37.5000  69.7500 Du        
   4390 ****       209.2500  37.5000  70.0000 Du        
   4391 ****       209.2500  37.5000  70.2500 Du        
   4392 ****       209.2500  37.5000  70.5000 Du        
   4393 ****       209.2500  37.7500  70.0000 Du        
   4394 ****       209.2500  37.7500  70.2500 Du        
   4395 ****       209.5000  31.2500  69.2500 Du        
   4396 ****       209.7500  30.7500  69.0000 Du        
   4397 ****       209.7500  31.0000  69.0000 Du        
   4398 ****       209.7500  31.0000  69.2500 Du        
   4399 ****       209.7500  31.2500  69.0000 Du        
   4400 ****       209.7500  31.2500  69.2500 Du        
   4401 ****       210.0000  30.5000  69.2500 Du        
   4402 ****       210.0000  30.7500  69.0000 Du        
   4403 ****       210.0000  30.7500  69.2500 Du        
   4404 ****       210.0000  31.0000  69.0000 Du        
   4405 ****       210.0000  31.0000  69.2500 Du        
   4406 ****       210.0000  31.2500  69.0000 Du        
   4407 ****       210.2500  30.5000  69.2500 Du        
   4408 ****       210.2500  30.7500  69.0000 Du        
   4409 ****       210.2500  30.7500  69.2500 Du        
   4410 ****       210.7500  30.0000  69.7500 Du        
   4411 ****       210.7500  30.0000  70.0000 Du        
   4412 ****       210.7500  30.2500  69.2500 Du        
   4413 ****       210.7500  30.2500  69.7500 Du        
   4414 ****       210.7500  30.2500  70.0000 Du        
   4415 ****       210.7500  30.5000  69.5000 Du        
   4416 ****       211.0000  29.7500  69.7500 Du        
   4417 ****       211.0000  29.7500  70.0000 Du        
   4418 ****       211.0000  29.7500  70.2500 Du        
   4419 ****       211.0000  30.0000  69.7500 Du        
   4420 ****       211.0000  30.0000  70.0000 Du        
   4421 ****       211.0000  30.0000  70.2500 Du        
   4422 ****       211.0000  30.2500  69.7500 Du        
   4423 ****       211.0000  30.2500  70.0000 Du        
   4424 ****       211.2500  29.5000  70.0000 Du        
   4425 ****       211.2500  29.7500  69.5000 Du        
   4426 ****       211.2500  29.7500  69.7500 Du        
   4427 ****       211.2500  29.7500  70.0000 Du        
   4428 ****       211.2500  29.7500  70.2500 Du        
   4429 ****       211.2500  29.7500  70.5000 Du        
   4430 ****       211.2500  30.0000  69.7500 Du        
   4431 ****       211.2500  30.0000  70.0000 Du        
   4432 ****       211.2500  30.0000  70.2500 Du        
   4433 ****       211.2500  30.2500  69.7500 Du        
   4434 ****       211.2500  30.2500  70.0000 Du        
   4435 ****       211.2500  30.5000  69.2500 Du        
   4436 ****       211.2500  30.5000  69.5000 Du        
   4437 ****       211.2500  30.5000  69.7500 Du        
   4438 ****       211.5000  29.0000  71.0000 Du        
   4439 ****       211.5000  29.2500  70.7500 Du        
   4440 ****       211.5000  29.5000  70.0000 Du        
   4441 ****       211.5000  29.5000  70.2500 Du        
   4442 ****       211.5000  29.5000  70.5000 Du        
   4443 ****       211.5000  29.5000  70.7500 Du        
   4444 ****       211.5000  29.7500  69.2500 Du        
   4445 ****       211.5000  29.7500  69.7500 Du        
   4446 ****       211.5000  29.7500  70.0000 Du        
   4447 ****       211.5000  29.7500  70.2500 Du        
   4448 ****       211.5000  29.7500  70.5000 Du        
   4449 ****       211.5000  29.7500  70.7500 Du        
   4450 ****       211.5000  30.0000  69.2500 Du        
   4451 ****       211.5000  30.0000  69.5000 Du        
   4452 ****       211.5000  30.0000  69.7500 Du        
   4453 ****       211.5000  30.0000  70.0000 Du        
   4454 ****       211.5000  30.0000  70.2500 Du        
   4455 ****       211.5000  30.0000  70.5000 Du        
   4456 ****       211.5000  30.2500  69.2500 Du        
   4457 ****       211.5000  30.2500  69.5000 Du        
   4458 ****       211.5000  30.2500  69.7500 Du        
   4459 ****       211.5000  30.2500  70.0000 Du        
   4460 ****       211.5000  30.2500  70.2500 Du        
   4461 ****       211.5000  30.5000  69.2500 Du        
   4462 ****       211.7500  28.7500  71.0000 Du        
   4463 ****       211.7500  28.7500  71.2500 Du        
   4464 ****       211.7500  29.0000  70.7500 Du        
   4465 ****       211.7500  29.0000  71.0000 Du        
   4466 ****       211.7500  29.0000  71.2500 Du        
   4467 ****       211.7500  29.2500  70.2500 Du        
   4468 ****       211.7500  29.2500  70.5000 Du        
   4469 ****       211.7500  29.2500  70.7500 Du        
   4470 ****       211.7500  29.2500  71.0000 Du        
   4471 ****       211.7500  29.2500  71.2500 Du        
   4472 ****       211.7500  29.5000  69.7500 Du        
   4473 ****       211.7500  29.5000  70.0000 Du        
   4474 ****       211.7500  29.5000  70.2500 Du        
   4475 ****       211.7500  29.5000  70.5000 Du        
   4476 ****       211.7500  29.5000  70.7500 Du        
   4477 ****       211.7500  29.5000  71.0000 Du        
   4478 ****       211.7500  29.7500  69.2500 Du        
   4479 ****       211.7500  29.7500  69.5000 Du        
   4480 ****       211.7500  29.7500  69.7500 Du        
   4481 ****       211.7500  29.7500  70.0000 Du        
   4482 ****       211.7500  29.7500  70.2500 Du        
   4483 ****       211.7500  29.7500  70.5000 Du        
   4484 ****       211.7500  29.7500  70.7500 Du        
   4485 ****       211.7500  29.7500  71.0000 Du        
   4486 ****       211.7500  30.0000  69.2500 Du        
   4487 ****       211.7500  30.0000  69.5000 Du        
   4488 ****       211.7500  30.0000  69.7500 Du        
   4489 ****       211.7500  30.0000  70.0000 Du        
   4490 ****       211.7500  30.0000  70.2500 Du        
   4491 ****       211.7500  30.0000  70.5000 Du        
   4492 ****       211.7500  30.0000  70.7500 Du        
   4493 ****       211.7500  30.0000  71.0000 Du        
   4494 ****       211.7500  30.2500  69.2500 Du        
   4495 ****       211.7500  30.2500  69.5000 Du        
   4496 ****       211.7500  30.2500  69.7500 Du        
   4497 ****       211.7500  30.2500  70.0000 Du        
   4498 ****       211.7500  30.2500  70.2500 Du        
   4499 ****       211.7500  30.2500  70.5000 Du        
   4500 ****       211.7500  30.2500  70.7500 Du        
   4501 ****       211.7500  30.5000  69.0000 Du        
   4502 ****       211.7500  30.5000  69.2500 Du        
   4503 ****       211.7500  30.5000  69.5000 Du        
   4504 ****       211.7500  30.5000  69.7500 Du        
   4505 ****       211.7500  30.5000  70.0000 Du        
   4506 ****       211.7500  30.5000  70.2500 Du        
   4507 ****       211.7500  30.5000  70.5000 Du        
   4508 ****       211.7500  30.7500  69.2500 Du        
   4509 ****       212.0000  28.7500  70.7500 Du        
   4510 ****       212.0000  28.7500  71.0000 Du        
   4511 ****       212.0000  28.7500  71.2500 Du        
   4512 ****       212.0000  28.7500  71.5000 Du        
   4513 ****       212.0000  29.0000  70.5000 Du        
   4514 ****       212.0000  29.0000  70.7500 Du        
   4515 ****       212.0000  29.0000  71.0000 Du        
   4516 ****       212.0000  29.0000  71.2500 Du        
   4517 ****       212.0000  29.0000  71.5000 Du        
   4518 ****       212.0000  29.2500  70.0000 Du        
   4519 ****       212.0000  29.2500  70.2500 Du        
   4520 ****       212.0000  29.2500  70.5000 Du        
   4521 ****       212.0000  29.2500  70.7500 Du        
   4522 ****       212.0000  29.2500  71.0000 Du        
   4523 ****       212.0000  29.2500  71.2500 Du        
   4524 ****       212.0000  29.2500  71.5000 Du        
   4525 ****       212.0000  29.5000  69.5000 Du        
   4526 ****       212.0000  29.5000  69.7500 Du        
   4527 ****       212.0000  29.5000  70.0000 Du        
   4528 ****       212.0000  29.5000  70.2500 Du        
   4529 ****       212.0000  29.5000  70.5000 Du        
   4530 ****       212.0000  29.5000  70.7500 Du        
   4531 ****       212.0000  29.5000  71.0000 Du        
   4532 ****       212.0000  29.5000  71.2500 Du        
   4533 ****       212.0000  29.7500  69.0000 Du        
   4534 ****       212.0000  29.7500  69.2500 Du        
   4535 ****       212.0000  29.7500  69.5000 Du        
   4536 ****       212.0000  29.7500  69.7500 Du        
   4537 ****       212.0000  29.7500  70.0000 Du        
   4538 ****       212.0000  29.7500  70.2500 Du        
   4539 ****       212.0000  29.7500  70.5000 Du        
   4540 ****       212.0000  29.7500  70.7500 Du        
   4541 ****       212.0000  29.7500  71.0000 Du        
   4542 ****       212.0000  29.7500  71.2500 Du        
   4543 ****       212.0000  30.0000  69.0000 Du        
   4544 ****       212.0000  30.0000  69.2500 Du        
   4545 ****       212.0000  30.0000  69.5000 Du        
   4546 ****       212.0000  30.0000  69.7500 Du        
   4547 ****       212.0000  30.0000  70.0000 Du        
   4548 ****       212.0000  30.0000  70.2500 Du        
   4549 ****       212.0000  30.0000  70.5000 Du        
   4550 ****       212.0000  30.0000  70.7500 Du        
   4551 ****       212.0000  30.0000  71.0000 Du        
   4552 ****       212.0000  30.0000  71.2500 Du        
   4553 ****       212.0000  30.2500  69.0000 Du        
   4554 ****       212.0000  30.2500  69.2500 Du        
   4555 ****       212.0000  30.2500  69.5000 Du        
   4556 ****       212.0000  30.2500  69.7500 Du        
   4557 ****       212.0000  30.2500  70.0000 Du        
   4558 ****       212.0000  30.2500  70.2500 Du        
   4559 ****       212.0000  30.2500  70.5000 Du        
   4560 ****       212.0000  30.2500  70.7500 Du        
   4561 ****       212.0000  30.2500  71.0000 Du        
   4562 ****       212.0000  30.5000  69.0000 Du        
   4563 ****       212.0000  30.5000  69.2500 Du        
   4564 ****       212.0000  30.5000  69.5000 Du        
   4565 ****       212.0000  30.5000  69.7500 Du        
   4566 ****       212.0000  30.5000  70.0000 Du        
   4567 ****       212.0000  30.5000  70.2500 Du        
   4568 ****       212.0000  30.5000  70.5000 Du        
   4569 ****       212.0000  30.5000  70.7500 Du        
   4570 ****       212.0000  30.5000  71.0000 Du        
   4571 ****       212.0000  30.7500  69.0000 Du        
   4572 ****       212.0000  30.7500  69.2500 Du        
   4573 ****       212.2500  27.2500  66.2500 Du        
   4574 ****       212.2500  27.2500  67.0000 Du        
   4575 ****       212.2500  27.5000  66.7500 Du        
   4576 ****       212.2500  27.5000  67.0000 Du        
   4577 ****       212.2500  28.5000  71.0000 Du        
   4578 ****       212.2500  28.5000  71.2500 Du        
   4579 ****       212.2500  28.7500  70.7500 Du        
   4580 ****       212.2500  28.7500  71.0000 Du        
   4581 ****       212.2500  28.7500  71.2500 Du        
   4582 ****       212.2500  28.7500  71.5000 Du        
   4583 ****       212.2500  29.0000  70.2500 Du        
   4584 ****       212.2500  29.0000  70.5000 Du        
   4585 ****       212.2500  29.0000  70.7500 Du        
   4586 ****       212.2500  29.0000  71.0000 Du        
   4587 ****       212.2500  29.0000  71.2500 Du        
   4588 ****       212.2500  29.0000  71.5000 Du        
   4589 ****       212.2500  29.0000  71.7500 Du        
   4590 ****       212.2500  29.2500  69.7500 Du        
   4591 ****       212.2500  29.2500  70.0000 Du        
   4592 ****       212.2500  29.2500  70.2500 Du        
   4593 ****       212.2500  29.2500  70.5000 Du        
   4594 ****       212.2500  29.2500  70.7500 Du        
   4595 ****       212.2500  29.2500  71.0000 Du        
   4596 ****       212.2500  29.2500  71.2500 Du        
   4597 ****       212.2500  29.2500  71.5000 Du        
   4598 ****       212.2500  29.2500  71.7500 Du        
   4599 ****       212.2500  29.5000  69.0000 Du        
   4600 ****       212.2500  29.5000  69.2500 Du        
   4601 ****       212.2500  29.5000  69.5000 Du        
   4602 ****       212.2500  29.5000  69.7500 Du        
   4603 ****       212.2500  29.5000  70.0000 Du        
   4604 ****       212.2500  29.5000  70.2500 Du        
   4605 ****       212.2500  29.5000  70.5000 Du        
   4606 ****       212.2500  29.5000  70.7500 Du        
   4607 ****       212.2500  29.5000  71.0000 Du        
   4608 ****       212.2500  29.5000  71.2500 Du        
   4609 ****       212.2500  29.5000  71.5000 Du        
   4610 ****       212.2500  29.7500  69.0000 Du        
   4611 ****       212.2500  29.7500  69.2500 Du        
   4612 ****       212.2500  29.7500  69.5000 Du        
   4613 ****       212.2500  29.7500  69.7500 Du        
   4614 ****       212.2500  29.7500  70.0000 Du        
   4615 ****       212.2500  29.7500  70.2500 Du        
   4616 ****       212.2500  29.7500  70.5000 Du        
   4617 ****       212.2500  29.7500  70.7500 Du        
   4618 ****       212.2500  29.7500  71.0000 Du        
   4619 ****       212.2500  29.7500  71.2500 Du        
   4620 ****       212.2500  29.7500  71.5000 Du        
   4621 ****       212.2500  30.0000  69.0000 Du        
   4622 ****       212.2500  30.0000  69.2500 Du        
   4623 ****       212.2500  30.0000  69.5000 Du        
   4624 ****       212.2500  30.0000  69.7500 Du        
   4625 ****       212.2500  30.0000  70.0000 Du        
   4626 ****       212.2500  30.0000  70.2500 Du        
   4627 ****       212.2500  30.0000  70.5000 Du        
   4628 ****       212.2500  30.0000  70.7500 Du        
   4629 ****       212.2500  30.0000  71.0000 Du        
   4630 ****       212.2500  30.0000  71.2500 Du        
   4631 ****       212.2500  30.2500  69.0000 Du        
   4632 ****       212.2500  30.2500  69.2500 Du        
   4633 ****       212.2500  30.2500  69.5000 Du        
   4634 ****       212.2500  30.2500  69.7500 Du        
   4635 ****       212.2500  30.2500  70.0000 Du        
   4636 ****       212.2500  30.2500  70.2500 Du        
   4637 ****       212.2500  30.2500  70.5000 Du        
   4638 ****       212.2500  30.2500  70.7500 Du        
   4639 ****       212.2500  30.2500  71.0000 Du        
   4640 ****       212.2500  30.2500  71.2500 Du        
   4641 ****       212.2500  30.5000  69.0000 Du        
   4642 ****       212.2500  30.5000  69.2500 Du        
   4643 ****       212.2500  30.5000  69.5000 Du        
   4644 ****       212.2500  30.5000  69.7500 Du        
   4645 ****       212.2500  30.5000  70.0000 Du        
   4646 ****       212.2500  30.5000  70.2500 Du        
   4647 ****       212.2500  30.5000  70.5000 Du        
   4648 ****       212.2500  30.5000  70.7500 Du        
   4649 ****       212.2500  30.5000  71.0000 Du        
   4650 ****       212.2500  30.5000  71.2500 Du        
   4651 ****       212.2500  30.7500  69.0000 Du        
   4652 ****       212.2500  30.7500  69.2500 Du        
   4653 ****       212.2500  30.7500  69.5000 Du        
   4654 ****       212.2500  30.7500  69.7500 Du        
   4655 ****       212.5000  27.0000  66.7500 Du        
   4656 ****       212.5000  27.2500  66.7500 Du        
   4657 ****       212.5000  27.5000  66.2500 Du        
   4658 ****       212.5000  28.5000  71.0000 Du        
   4659 ****       212.5000  28.5000  71.2500 Du        
   4660 ****       212.5000  28.7500  70.7500 Du        
   4661 ****       212.5000  28.7500  71.0000 Du        
   4662 ****       212.5000  28.7500  71.2500 Du        
   4663 ****       212.5000  28.7500  71.5000 Du        
   4664 ****       212.5000  29.0000  70.5000 Du        
   4665 ****       212.5000  29.0000  70.7500 Du        
   4666 ****       212.5000  29.0000  71.0000 Du        
   4667 ****       212.5000  29.0000  71.2500 Du        
   4668 ****       212.5000  29.0000  71.5000 Du        
   4669 ****       212.5000  29.0000  71.7500 Du        
   4670 ****       212.5000  29.2500  70.0000 Du        
   4671 ****       212.5000  29.2500  70.2500 Du        
   4672 ****       212.5000  29.2500  70.5000 Du        
   4673 ****       212.5000  29.2500  70.7500 Du        
   4674 ****       212.5000  29.2500  71.0000 Du        
   4675 ****       212.5000  29.2500  71.2500 Du        
   4676 ****       212.5000  29.2500  71.5000 Du        
   4677 ****       212.5000  29.2500  71.7500 Du        
   4678 ****       212.5000  29.5000  69.0000 Du        
   4679 ****       212.5000  29.5000  69.2500 Du        
   4680 ****       212.5000  29.5000  69.5000 Du        
   4681 ****       212.5000  29.5000  69.7500 Du        
   4682 ****       212.5000  29.5000  70.0000 Du        
   4683 ****       212.5000  29.5000  70.2500 Du        
   4684 ****       212.5000  29.5000  70.5000 Du        
   4685 ****       212.5000  29.5000  70.7500 Du        
   4686 ****       212.5000  29.5000  71.0000 Du        
   4687 ****       212.5000  29.5000  71.2500 Du        
   4688 ****       212.5000  29.5000  71.5000 Du        
   4689 ****       212.5000  29.5000  71.7500 Du        
   4690 ****       212.5000  29.7500  68.7500 Du        
   4691 ****       212.5000  29.7500  69.0000 Du        
   4692 ****       212.5000  29.7500  69.2500 Du        
   4693 ****       212.5000  29.7500  69.5000 Du        
   4694 ****       212.5000  29.7500  69.7500 Du        
   4695 ****       212.5000  29.7500  70.0000 Du        
   4696 ****       212.5000  29.7500  70.2500 Du        
   4697 ****       212.5000  29.7500  70.5000 Du        
   4698 ****       212.5000  29.7500  70.7500 Du        
   4699 ****       212.5000  29.7500  71.0000 Du        
   4700 ****       212.5000  29.7500  71.2500 Du        
   4701 ****       212.5000  29.7500  71.5000 Du        
   4702 ****       212.5000  29.7500  71.7500 Du        
   4703 ****       212.5000  30.0000  68.7500 Du        
   4704 ****       212.5000  30.0000  69.0000 Du        
   4705 ****       212.5000  30.0000  69.2500 Du        
   4706 ****       212.5000  30.0000  69.5000 Du        
   4707 ****       212.5000  30.0000  69.7500 Du        
   4708 ****       212.5000  30.0000  70.0000 Du        
   4709 ****       212.5000  30.0000  70.2500 Du        
   4710 ****       212.5000  30.0000  70.5000 Du        
   4711 ****       212.5000  30.0000  70.7500 Du        
   4712 ****       212.5000  30.0000  71.0000 Du        
   4713 ****       212.5000  30.0000  71.2500 Du        
   4714 ****       212.5000  30.0000  71.5000 Du        
   4715 ****       212.5000  30.2500  68.7500 Du        
   4716 ****       212.5000  30.2500  69.0000 Du        
   4717 ****       212.5000  30.2500  69.2500 Du        
   4718 ****       212.5000  30.2500  69.5000 Du        
   4719 ****       212.5000  30.2500  69.7500 Du        
   4720 ****       212.5000  30.2500  70.0000 Du        
   4721 ****       212.5000  30.2500  70.2500 Du        
   4722 ****       212.5000  30.2500  70.5000 Du        
   4723 ****       212.5000  30.2500  70.7500 Du        
   4724 ****       212.5000  30.2500  71.0000 Du        
   4725 ****       212.5000  30.2500  71.2500 Du        
   4726 ****       212.5000  30.2500  71.5000 Du        
   4727 ****       212.5000  30.5000  69.0000 Du        
   4728 ****       212.5000  30.5000  69.2500 Du        
   4729 ****       212.5000  30.5000  69.5000 Du        
   4730 ****       212.5000  30.5000  69.7500 Du        
   4731 ****       212.5000  30.5000  70.0000 Du        
   4732 ****       212.5000  30.5000  70.2500 Du        
   4733 ****       212.5000  30.5000  70.5000 Du        
   4734 ****       212.5000  30.5000  70.7500 Du        
   4735 ****       212.5000  30.5000  71.0000 Du        
   4736 ****       212.5000  30.5000  71.2500 Du        
   4737 ****       212.5000  30.5000  71.5000 Du        
   4738 ****       212.5000  30.7500  69.0000 Du        
   4739 ****       212.5000  30.7500  69.2500 Du        
   4740 ****       212.5000  30.7500  69.5000 Du        
   4741 ****       212.5000  30.7500  69.7500 Du        
   4742 ****       212.5000  30.7500  70.0000 Du        
   4743 ****       212.5000  30.7500  70.2500 Du        
   4744 ****       212.5000  30.7500  70.5000 Du        
   4745 ****       212.5000  30.7500  70.7500 Du        
   4746 ****       212.5000  30.7500  71.0000 Du        
   4747 ****       212.5000  30.7500  71.2500 Du        
   4748 ****       212.7500  27.0000  66.7500 Du        
   4749 ****       212.7500  27.0000  67.0000 Du        
   4750 ****       212.7500  27.2500  66.7500 Du        
   4751 ****       212.7500  27.2500  67.0000 Du        
   4752 ****       212.7500  27.5000  66.2500 Du        
   4753 ****       212.7500  27.5000  67.0000 Du        
   4754 ****       212.7500  28.5000  71.0000 Du        
   4755 ****       212.7500  28.5000  71.2500 Du        
   4756 ****       212.7500  28.7500  70.7500 Du        
   4757 ****       212.7500  28.7500  71.0000 Du        
   4758 ****       212.7500  28.7500  71.2500 Du        
   4759 ****       212.7500  28.7500  71.5000 Du        
   4760 ****       212.7500  29.0000  70.2500 Du        
   4761 ****       212.7500  29.0000  70.5000 Du        
   4762 ****       212.7500  29.0000  70.7500 Du        
   4763 ****       212.7500  29.0000  71.0000 Du        
   4764 ****       212.7500  29.0000  71.2500 Du        
   4765 ****       212.7500  29.0000  71.5000 Du        
   4766 ****       212.7500  29.2500  69.0000 Du        
   4767 ****       212.7500  29.2500  69.7500 Du        
   4768 ****       212.7500  29.2500  70.0000 Du        
   4769 ****       212.7500  29.2500  70.2500 Du        
   4770 ****       212.7500  29.2500  70.5000 Du        
   4771 ****       212.7500  29.2500  70.7500 Du        
   4772 ****       212.7500  29.2500  71.0000 Du        
   4773 ****       212.7500  29.2500  71.2500 Du        
   4774 ****       212.7500  29.2500  71.5000 Du        
   4775 ****       212.7500  29.2500  71.7500 Du        
   4776 ****       212.7500  29.5000  68.7500 Du        
   4777 ****       212.7500  29.5000  69.0000 Du        
   4778 ****       212.7500  29.5000  69.2500 Du        
   4779 ****       212.7500  29.5000  69.5000 Du        
   4780 ****       212.7500  29.5000  69.7500 Du        
   4781 ****       212.7500  29.5000  70.0000 Du        
   4782 ****       212.7500  29.5000  70.2500 Du        
   4783 ****       212.7500  29.5000  70.5000 Du        
   4784 ****       212.7500  29.5000  70.7500 Du        
   4785 ****       212.7500  29.5000  71.0000 Du        
   4786 ****       212.7500  29.5000  71.2500 Du        
   4787 ****       212.7500  29.5000  71.5000 Du        
   4788 ****       212.7500  29.5000  71.7500 Du        
   4789 ****       212.7500  29.7500  68.7500 Du        
   4790 ****       212.7500  29.7500  69.0000 Du        
   4791 ****       212.7500  29.7500  69.2500 Du        
   4792 ****       212.7500  29.7500  69.5000 Du        
   4793 ****       212.7500  29.7500  69.7500 Du        
   4794 ****       212.7500  29.7500  70.0000 Du        
   4795 ****       212.7500  29.7500  70.2500 Du        
   4796 ****       212.7500  29.7500  70.5000 Du        
   4797 ****       212.7500  29.7500  70.7500 Du        
   4798 ****       212.7500  29.7500  71.0000 Du        
   4799 ****       212.7500  29.7500  71.2500 Du        
   4800 ****       212.7500  29.7500  71.5000 Du        
   4801 ****       212.7500  29.7500  71.7500 Du        
   4802 ****       212.7500  30.0000  68.7500 Du        
   4803 ****       212.7500  30.0000  69.0000 Du        
   4804 ****       212.7500  30.0000  69.2500 Du        
   4805 ****       212.7500  30.0000  69.5000 Du        
   4806 ****       212.7500  30.0000  69.7500 Du        
   4807 ****       212.7500  30.0000  70.0000 Du        
   4808 ****       212.7500  30.0000  70.2500 Du        
   4809 ****       212.7500  30.0000  70.5000 Du        
   4810 ****       212.7500  30.0000  70.7500 Du        
   4811 ****       212.7500  30.0000  71.0000 Du        
   4812 ****       212.7500  30.0000  71.2500 Du        
   4813 ****       212.7500  30.0000  71.5000 Du        
   4814 ****       212.7500  30.0000  71.7500 Du        
   4815 ****       212.7500  30.2500  68.7500 Du        
   4816 ****       212.7500  30.2500  69.0000 Du        
   4817 ****       212.7500  30.2500  69.2500 Du        
   4818 ****       212.7500  30.2500  69.5000 Du        
   4819 ****       212.7500  30.2500  69.7500 Du        
   4820 ****       212.7500  30.2500  70.0000 Du        
   4821 ****       212.7500  30.2500  70.2500 Du        
   4822 ****       212.7500  30.2500  70.5000 Du        
   4823 ****       212.7500  30.2500  70.7500 Du        
   4824 ****       212.7500  30.2500  71.0000 Du        
   4825 ****       212.7500  30.2500  71.2500 Du        
   4826 ****       212.7500  30.2500  71.5000 Du        
   4827 ****       212.7500  30.2500  71.7500 Du        
   4828 ****       212.7500  30.5000  68.7500 Du        
   4829 ****       212.7500  30.5000  69.0000 Du        
   4830 ****       212.7500  30.5000  69.2500 Du        
   4831 ****       212.7500  30.5000  69.5000 Du        
   4832 ****       212.7500  30.5000  69.7500 Du        
   4833 ****       212.7500  30.5000  70.0000 Du        
   4834 ****       212.7500  30.5000  70.2500 Du        
   4835 ****       212.7500  30.5000  70.5000 Du        
   4836 ****       212.7500  30.5000  70.7500 Du        
   4837 ****       212.7500  30.5000  71.0000 Du        
   4838 ****       212.7500  30.5000  71.2500 Du        
   4839 ****       212.7500  30.5000  71.5000 Du        
   4840 ****       212.7500  30.7500  68.7500 Du        
   4841 ****       212.7500  30.7500  69.0000 Du        
   4842 ****       212.7500  30.7500  69.2500 Du        
   4843 ****       212.7500  30.7500  69.7500 Du        
   4844 ****       212.7500  30.7500  70.0000 Du        
   4845 ****       212.7500  30.7500  70.2500 Du        
   4846 ****       212.7500  30.7500  70.5000 Du        
   4847 ****       212.7500  30.7500  70.7500 Du        
   4848 ****       212.7500  30.7500  71.0000 Du        
   4849 ****       212.7500  30.7500  71.2500 Du        
   4850 ****       212.7500  30.7500  71.5000 Du        
   4851 ****       213.0000  27.0000  66.7500 Du        
   4852 ****       213.0000  27.0000  67.0000 Du        
   4853 ****       213.0000  27.2500  66.7500 Du        
   4854 ****       213.0000  27.2500  67.0000 Du        
   4855 ****       213.0000  28.7500  70.7500 Du        
   4856 ****       213.0000  28.7500  71.0000 Du        
   4857 ****       213.0000  28.7500  71.2500 Du        
   4858 ****       213.0000  29.0000  70.0000 Du        
   4859 ****       213.0000  29.0000  70.2500 Du        
   4860 ****       213.0000  29.0000  70.5000 Du        
   4861 ****       213.0000  29.0000  70.7500 Du        
   4862 ****       213.0000  29.0000  71.0000 Du        
   4863 ****       213.0000  29.0000  71.2500 Du        
   4864 ****       213.0000  29.2500  69.0000 Du        
   4865 ****       213.0000  29.2500  69.7500 Du        
   4866 ****       213.0000  29.2500  70.0000 Du        
   4867 ****       213.0000  29.2500  70.2500 Du        
   4868 ****       213.0000  29.2500  70.5000 Du        
   4869 ****       213.0000  29.2500  70.7500 Du        
   4870 ****       213.0000  29.2500  71.0000 Du        
   4871 ****       213.0000  29.2500  71.2500 Du        
   4872 ****       213.0000  29.5000  68.7500 Du        
   4873 ****       213.0000  29.5000  69.0000 Du        
   4874 ****       213.0000  29.5000  69.2500 Du        
   4875 ****       213.0000  29.5000  69.5000 Du        
   4876 ****       213.0000  29.5000  69.7500 Du        
   4877 ****       213.0000  29.5000  70.0000 Du        
   4878 ****       213.0000  29.5000  70.2500 Du        
   4879 ****       213.0000  29.5000  70.5000 Du        
   4880 ****       213.0000  29.5000  70.7500 Du        
   4881 ****       213.0000  29.5000  71.0000 Du        
   4882 ****       213.0000  29.5000  71.2500 Du        
   4883 ****       213.0000  29.5000  71.5000 Du        
   4884 ****       213.0000  29.7500  68.7500 Du        
   4885 ****       213.0000  29.7500  69.0000 Du        
   4886 ****       213.0000  29.7500  69.2500 Du        
   4887 ****       213.0000  29.7500  69.5000 Du        
   4888 ****       213.0000  29.7500  69.7500 Du        
   4889 ****       213.0000  29.7500  70.0000 Du        
   4890 ****       213.0000  29.7500  70.2500 Du        
   4891 ****       213.0000  29.7500  70.5000 Du        
   4892 ****       213.0000  29.7500  70.7500 Du        
   4893 ****       213.0000  29.7500  71.0000 Du        
   4894 ****       213.0000  29.7500  71.2500 Du        
   4895 ****       213.0000  29.7500  71.5000 Du        
   4896 ****       213.0000  30.0000  68.5000 Du        
   4897 ****       213.0000  30.0000  68.7500 Du        
   4898 ****       213.0000  30.0000  69.0000 Du        
   4899 ****       213.0000  30.0000  69.2500 Du        
   4900 ****       213.0000  30.0000  69.5000 Du        
   4901 ****       213.0000  30.0000  69.7500 Du        
   4902 ****       213.0000  30.0000  70.0000 Du        
   4903 ****       213.0000  30.0000  70.2500 Du        
   4904 ****       213.0000  30.0000  70.5000 Du        
   4905 ****       213.0000  30.0000  70.7500 Du        
   4906 ****       213.0000  30.0000  71.0000 Du        
   4907 ****       213.0000  30.0000  71.2500 Du        
   4908 ****       213.0000  30.0000  71.5000 Du        
   4909 ****       213.0000  30.2500  68.5000 Du        
   4910 ****       213.0000  30.2500  68.7500 Du        
   4911 ****       213.0000  30.2500  69.0000 Du        
   4912 ****       213.0000  30.2500  69.2500 Du        
   4913 ****       213.0000  30.2500  69.5000 Du        
   4914 ****       213.0000  30.2500  69.7500 Du        
   4915 ****       213.0000  30.2500  70.0000 Du        
   4916 ****       213.0000  30.2500  70.2500 Du        
   4917 ****       213.0000  30.2500  70.5000 Du        
   4918 ****       213.0000  30.2500  70.7500 Du        
   4919 ****       213.0000  30.2500  71.0000 Du        
   4920 ****       213.0000  30.2500  71.2500 Du        
   4921 ****       213.0000  30.2500  71.5000 Du        
   4922 ****       213.0000  30.5000  69.0000 Du        
   4923 ****       213.0000  30.5000  69.2500 Du        
   4924 ****       213.0000  30.5000  69.5000 Du        
   4925 ****       213.0000  30.5000  69.7500 Du        
   4926 ****       213.0000  30.5000  70.0000 Du        
   4927 ****       213.0000  30.5000  70.2500 Du        
   4928 ****       213.0000  30.5000  70.5000 Du        
   4929 ****       213.0000  30.5000  70.7500 Du        
   4930 ****       213.0000  30.5000  71.0000 Du        
   4931 ****       213.0000  30.5000  71.2500 Du        
   4932 ****       213.0000  30.5000  71.5000 Du        
   4933 ****       213.0000  30.7500  70.0000 Du        
   4934 ****       213.0000  30.7500  70.2500 Du        
   4935 ****       213.0000  30.7500  70.5000 Du        
   4936 ****       213.0000  30.7500  70.7500 Du        
   4937 ****       213.0000  30.7500  71.0000 Du        
   4938 ****       213.0000  30.7500  71.2500 Du        
   4939 ****       213.0000  30.7500  71.5000 Du        
   4940 ****       213.0000  31.0000  71.0000 Du        
   4941 ****       213.0000  31.0000  71.2500 Du        
   4942 ****       213.2500  27.0000  66.7500 Du        
   4943 ****       213.2500  27.0000  67.0000 Du        
   4944 ****       213.2500  27.2500  66.7500 Du        
   4945 ****       213.2500  27.2500  67.0000 Du        
   4946 ****       213.2500  27.5000  67.0000 Du        
   4947 ****       213.2500  28.7500  70.7500 Du        
   4948 ****       213.2500  29.0000  70.0000 Du        
   4949 ****       213.2500  29.0000  70.2500 Du        
   4950 ****       213.2500  29.0000  70.5000 Du        
   4951 ****       213.2500  29.0000  70.7500 Du        
   4952 ****       213.2500  29.0000  71.0000 Du        
   4953 ****       213.2500  29.2500  70.0000 Du        
   4954 ****       213.2500  29.2500  70.2500 Du        
   4955 ****       213.2500  29.2500  70.5000 Du        
   4956 ****       213.2500  29.2500  70.7500 Du        
   4957 ****       213.2500  29.2500  71.0000 Du        
   4958 ****       213.2500  29.5000  68.7500 Du        
   4959 ****       213.2500  29.5000  69.0000 Du        
   4960 ****       213.2500  29.5000  69.2500 Du        
   4961 ****       213.2500  29.5000  69.5000 Du        
   4962 ****       213.2500  29.5000  69.7500 Du        
   4963 ****       213.2500  29.5000  70.0000 Du        
   4964 ****       213.2500  29.5000  70.2500 Du        
   4965 ****       213.2500  29.5000  70.5000 Du        
   4966 ****       213.2500  29.5000  70.7500 Du        
   4967 ****       213.2500  29.5000  71.0000 Du        
   4968 ****       213.2500  29.7500  68.5000 Du        
   4969 ****       213.2500  29.7500  68.7500 Du        
   4970 ****       213.2500  29.7500  69.0000 Du        
   4971 ****       213.2500  29.7500  69.2500 Du        
   4972 ****       213.2500  29.7500  69.5000 Du        
   4973 ****       213.2500  29.7500  69.7500 Du        
   4974 ****       213.2500  29.7500  70.0000 Du        
   4975 ****       213.2500  29.7500  70.2500 Du        
   4976 ****       213.2500  29.7500  70.5000 Du        
   4977 ****       213.2500  29.7500  70.7500 Du        
   4978 ****       213.2500  29.7500  71.0000 Du        
   4979 ****       213.2500  29.7500  71.2500 Du        
   4980 ****       213.2500  30.0000  68.5000 Du        
   4981 ****       213.2500  30.0000  68.7500 Du        
   4982 ****       213.2500  30.0000  69.0000 Du        
   4983 ****       213.2500  30.0000  69.2500 Du        
   4984 ****       213.2500  30.0000  69.5000 Du        
   4985 ****       213.2500  30.0000  69.7500 Du        
   4986 ****       213.2500  30.0000  70.0000 Du        
   4987 ****       213.2500  30.0000  70.2500 Du        
   4988 ****       213.2500  30.0000  70.5000 Du        
   4989 ****       213.2500  30.0000  70.7500 Du        
   4990 ****       213.2500  30.0000  71.0000 Du        
   4991 ****       213.2500  30.0000  71.2500 Du        
   4992 ****       213.2500  30.2500  69.7500 Du        
   4993 ****       213.2500  30.2500  70.0000 Du        
   4994 ****       213.2500  30.2500  70.2500 Du        
   4995 ****       213.2500  30.2500  70.5000 Du        
   4996 ****       213.2500  30.2500  70.7500 Du        
   4997 ****       213.2500  30.2500  71.0000 Du        
   4998 ****       213.2500  30.2500  71.2500 Du        
   4999 ****       213.2500  30.5000  70.0000 Du        
   5000 ****       213.2500  30.5000  70.2500 Du        
   5001 ****       213.2500  30.5000  70.5000 Du        
   5002 ****       213.2500  30.5000  70.7500 Du        
   5003 ****       213.2500  30.5000  71.0000 Du        
   5004 ****       213.2500  30.5000  71.2500 Du        
   5005 ****       213.2500  30.7500  70.5000 Du        
   5006 ****       213.2500  30.7500  70.7500 Du        
   5007 ****       213.2500  30.7500  71.0000 Du        
   5008 ****       213.2500  30.7500  71.2500 Du        
   5009 ****       213.2500  31.0000  71.0000 Du        
   5010 ****       213.2500  31.0000  71.2500 Du        
   5011 ****       213.5000  26.5000  67.2500 Du        
   5012 ****       213.5000  27.0000  66.7500 Du        
   5013 ****       213.5000  27.0000  67.0000 Du        
   5014 ****       213.5000  27.0000  67.2500 Du        
   5015 ****       213.5000  27.2500  66.7500 Du        
   5016 ****       213.5000  27.2500  67.0000 Du        
   5017 ****       213.5000  27.2500  67.2500 Du        
   5018 ****       213.5000  29.2500  69.7500 Du        
   5019 ****       213.5000  29.2500  70.0000 Du        
   5020 ****       213.5000  29.2500  70.2500 Du        
   5021 ****       213.5000  29.2500  70.7500 Du        
   5022 ****       213.5000  29.5000  68.2500 Du        
   5023 ****       213.5000  29.5000  69.7500 Du        
   5024 ****       213.5000  29.5000  70.0000 Du        
   5025 ****       213.5000  29.5000  70.2500 Du        
   5026 ****       213.5000  29.5000  70.5000 Du        
   5027 ****       213.5000  29.5000  70.7500 Du        
   5028 ****       213.5000  29.7500  69.7500 Du        
   5029 ****       213.5000  29.7500  70.0000 Du        
   5030 ****       213.5000  29.7500  70.2500 Du        
   5031 ****       213.5000  29.7500  70.5000 Du        
   5032 ****       213.5000  29.7500  70.7500 Du        
   5033 ****       213.5000  30.0000  70.0000 Du        
   5034 ****       213.5000  30.0000  70.2500 Du        
   5035 ****       213.5000  30.0000  70.5000 Du        
   5036 ****       213.5000  30.0000  70.7500 Du        
   5037 ****       213.5000  30.0000  71.0000 Du        
   5038 ****       213.5000  30.2500  70.5000 Du        
   5039 ****       213.5000  30.2500  70.7500 Du        
   5040 ****       213.5000  30.2500  71.0000 Du        
   5041 ****       213.5000  30.5000  70.7500 Du        
   5042 ****       213.5000  30.5000  71.0000 Du        
   5043 ****       213.5000  30.7500  71.0000 Du        
   5044 ****       213.7500  26.5000  67.2500 Du        
   5045 ****       213.7500  26.7500  67.2500 Du        
   5046 ****       213.7500  27.0000  66.7500 Du        
   5047 ****       213.7500  27.0000  67.0000 Du        
   5048 ****       213.7500  27.0000  67.2500 Du        
   5049 ****       213.7500  27.2500  66.7500 Du        
   5050 ****       213.7500  27.2500  67.0000 Du        
   5051 ****       214.0000  26.5000  67.2500 Du        
   5052 ****       214.0000  26.7500  67.2500 Du        
   5053 ****       214.0000  27.0000  66.7500 Du        
   5054 ****       214.0000  27.0000  67.0000 Du        
   5055 ****       214.0000  27.0000  67.2500 Du        
   5056 ****       214.0000  27.2500  66.7500 Du        
   5057 ****       214.0000  27.2500  67.0000 Du        
   5058 ****       214.0000  29.0000  68.0000 Du        
   5059 ****       214.2500  26.7500  67.2500 Du        
   5060 ****       214.2500  27.0000  66.7500 Du        
   5061 ****       214.2500  27.0000  67.0000 Du        
   5062 ****       214.2500  27.2500  67.0000 Du        
   5063 ****       214.5000  27.0000  67.0000 Du        
   5064 ****       215.0000  28.5000  67.7500 Du        
   5065 ****       215.0000  28.7500  67.7500 Du        
   5066 ****       215.2500  27.5000  67.2500 Du        
   5067 ****       215.2500  27.7500  67.2500 Du        
   5068 ****       215.2500  28.5000  67.7500 Du        
   5069 ****       215.2500  28.7500  67.7500 Du        
   5070 ****       215.7500  28.0000  67.2500 Du        
