#       Name:                CT1002167954
#       Creating user name   hitesit
#       Creation time:       Sun Apr 16 22:52:54 2023


#       File generated by GOLD software.
#

@<TRIPOS>MOLECULE
CT1002167954|ligand_prepared|mol2|1|dock4
    29    30     1
SMALL
NO_CHARGES


@<TRIPOS>ATOM
      1 C1         207.4267  29.3757  71.6898 C.3            1 RES1               0.0000
      2 C2         207.6501  30.8088  71.1654 C.ar           1 RES1               0.0000
      3 C3         208.7623  28.9181  72.2687 C.2            1 RES1               0.0000
      4 C4         206.3026  29.4673  72.7158 C.2            1 RES1               0.0000
      5 C5         206.9950  28.3706  70.5966 C.3            1 RES1               0.0000
      6 C6         208.2852  31.0263  69.9463 C.ar           1 RES1               0.0000
      7 C7         207.2252  31.9212  71.8869 C.ar           1 RES1               0.0000
      8 N8         208.8748  28.8575  73.6264 N.am           1 RES1               0.0000
      9 O9         209.7147  28.6526  71.5457 O.2            1 RES1               0.0000
     10 N10        206.6031  29.1909  74.0239 N.am           1 RES1               0.0000
     11 O11        205.1631  29.7924  72.4059 O.2            1 RES1               0.0000
     12 C12        206.4845  27.0481  71.1467 C.3            1 RES1               0.0000
     13 C13        208.4856  32.3093  69.4645 C.ar           1 RES1               0.0000
     14 C14        207.4268  33.2034  71.4033 C.ar           1 RES1               0.0000
     15 C15        207.8450  28.9201  74.5304 C.2            1 RES1               0.0000
     16 C16        208.0562  33.3986  70.1923 C.ar           1 RES1               0.0000
     17 O17        208.0447  28.7359  75.7277 O.2            1 RES1               0.0000
     18 H18        206.2053  28.8283  69.9881 H              1 RES1               0.0000
     19 H19        207.8517  28.1729  69.9405 H              1 RES1               0.0000
     20 H20        208.6322  30.1815  69.3608 H              1 RES1               0.0000
     21 H21        206.7287  31.7917  72.8426 H              1 RES1               0.0000
     22 H22        209.8113  28.7563  74.0046 H              1 RES1               0.0000
     23 H23        205.8293  29.1865  74.6808 H              1 RES1               0.0000
     24 H24        206.1952  26.3800  70.3383 H              1 RES1               0.0000
     25 H25        207.2533  26.5532  71.7367 H              1 RES1               0.0000
     26 H26        205.6166  27.2047  71.7840 H              1 RES1               0.0000
     27 H27        208.9827  32.4575  68.5115 H              1 RES1               0.0000
     28 H28        207.0877  34.0578  71.9798 H              1 RES1               0.0000
     29 H29        208.2129  34.4035  69.8145 H              1 RES1               0.0000
@<TRIPOS>BOND
    1    1    2 1     
    2    1    3 1     
    3    1    4 1     
    4    1    5 1     
    5    2    6 ar    
    6    2    7 ar    
    7    3    8 1     
    8    3    9 2     
    9    4   10 1     
   10    4   11 2     
   11    5   12 1     
   12    5   18 1     
   13    5   19 1     
   14    6   13 ar    
   15    6   20 1     
   16    7   14 ar    
   17    7   21 1     
   18    8   15 1     
   19    8   22 1     
   20   10   15 1     
   21   10   23 1     
   22   12   24 1     
   23   12   25 1     
   24   12   26 1     
   25   13   16 ar    
   26   13   27 1     
   27   14   16 ar    
   28   14   28 1     
   29   15   17 2     
   30   16   29 1     
@<TRIPOS>SUBSTRUCTURE
      1 RES1           1
@<TRIPOS>SET
DONOR_HYDROGENS      STATIC     ATOMS    <user>   **** ""
2 22 23
ATOM$RED        STATIC     ATOMS    COLORGROUP SYSTEM
2 22 23
@<TRIPOS>COMMENT
> <Gold.Version>
2022.3.0

> <Gold.Id.Protein>
unknown|4d1n_clean|pdb

> <Gold.Protein.RotatedTorsions>
[ 16986 16932 16931 16929 ] final   94.96 input   60.00 | X-H torsion
[ 18485 18440 18439 18437 ] final    8.20 input   60.00 | X-H torsion
[ 10113 10082 10081 10078 ] final -139.05 input   59.99 | X-H torsion
[ 18288 18266 18265 18262 ] final  -61.13 input   60.03 | X-H torsion
[ 18643 18615 18613 18610 ] final   61.13 input   59.98 | X-H torsion
[ 11435 11402 11401 11398 ] final   95.65 input   60.03 | X-H torsion

> <Gold.Protein.ActiveResidues>
 TRP414  CYS420  VAL421  GLY422  LEU460  SER462  SER482  GLN483  ILE485  ARG486 
 TYR487  ASP500  ASN503  TRP566  TYR567  LEU569  PRO570  ALA571  VAL572  SER573 
 ASN574  PHE589  SER590  GLY591  TRP592  TYR593  MET594  GLY595  THR596  GLU597 
 ILE598  GLY599  VAL600  ARG601  ASP602  TYR603  ARG608  ILE653  VAL654  TRP683 
 PRO687  HEM750  H4B760 

> <Gold.Protein.RotatedAtoms>
  205.7994   44.2394   68.6928 H   0  0  0  0  0  0  0  0  0  0  0  0  # atno 10113 bound_to 10082
  214.2720   29.2246   74.7113 H   0  0  0  0  0  0  0  0  0  0  0  0  # atno 11435 bound_to 11402
  209.5991   31.4701   77.5406 H   0  0  0  0  0  0  0  0  0  0  0  0  # atno 16986 bound_to 16932
  211.1687   42.5526   73.4597 H   0  0  0  0  0  0  0  0  0  0  0  0  # atno 18288 bound_to 18266
  206.3031   32.1485   75.4571 H   0  0  0  0  0  0  0  0  0  0  0  0  # atno 18485 bound_to 18440
  198.8712   30.0403   69.1381 H   0  0  0  0  0  0  0  0  0  0  0  0  # atno 18643 bound_to 18615
  208.3043   31.9298   76.6688 LP  0  0  0  0  0  0  0  0  0  0  0  0  # atno 27195 bound_to 16932
  208.2361   30.5826   77.5893 LP  0  0  0  0  0  0  0  0  0  0  0  0  # atno 27196 bound_to 16932
  205.6929   32.2194   76.9641 LP  0  0  0  0  0  0  0  0  0  0  0  0  # atno 27197 bound_to 18440
  206.6716   33.4079   76.4197 LP  0  0  0  0  0  0  0  0  0  0  0  0  # atno 27198 bound_to 18440
  205.1223   45.6114   69.2473 LP  0  0  0  0  0  0  0  0  0  0  0  0  # atno 27253 bound_to 10082
  205.6041   44.4543   70.2941 LP  0  0  0  0  0  0  0  0  0  0  0  0  # atno 27254 bound_to 10082
  210.3373   42.4623   74.8557 LP  0  0  0  0  0  0  0  0  0  0  0  0  # atno 27255 bound_to 18266
  209.6010   42.9877   73.4961 LP  0  0  0  0  0  0  0  0  0  0  0  0  # atno 27256 bound_to 18266

> <Gold.Score>
     Fitness  S(hb_ext) S(vdw_ext)  S(hb_int)    S(int)      intcor
     34.06       6.23      21.01       0.00      -1.06      -0.76

> <Gold.Goldscore.Fitness>
34.0558

> <Gold.Goldscore.Internal.Vdw>
-1.2101

> <Gold.Goldscore.Internal.Torsion>
-0.6090

> <Gold.Goldscore.External.Vdw>
21.0057

> <Gold.Goldscore.Internal.HBond>
0.0000

> <Gold.Goldscore.External.HBond>
6.2335

> <Gold.Goldscore.Internal.Correction>
-0.7585

> <Gold.Goldscore.Hbonds>
donor molecule, donor type, donor heavy atom, donor atom, acceptor molecule, acceptor atom, score
      P1  H 11671 11743       L1    17  0.31
      P1  H 19323 19359       L1    17  0.11
      L1  H    10    23       P1 18996  0.62

> <Gold.Goldscore.Internal.Vdw.Weighted>
-1.2101

> <Gold.Goldscore.Internal.Torsion.Weighted>
-0.6090

> <Gold.Goldscore.External.Vdw.Weighted>
28.8828

> <Gold.Goldscore.Internal.HBond.Weighted>
0.0000

> <Gold.Goldscore.External.HBond.Weighted>
6.2335

> <Gold.Goldscore.Internal.Correction.Weighted>
-0.7585

> <Gold.Rescore>
     Score     S(PLP)   S(hbond)     S(cho)   S(metal)  DE(clash)   DE(tors)     intcor
     20.45     -14.80       2.48       0.00       0.00       0.60       0.60       ----

> <Gold.PLP.Fitness>
20.4465

> <Gold.PLP.PLP>
-14.8034

> <Gold.PLP.part.hbond>
-4.0000

> <Gold.PLP.part.metal>
0.0000

> <Gold.PLP.part.buried>
11.0095

> <Gold.PLP.part.nonpolar>
-27.3176

> <Gold.PLP.part.repulsive>
4.5867

> <Gold.PLP.ligand.clash>
0.6000

> <Gold.PLP.ligand.torsion>
0.5985

> <Gold.PLP.Chemscore.Hbond>
2.4800

> <Gold.PLP.Chemscore.CHOScore>
0.0000

> <Gold.PLP.Chemscore.Metal>
0.0000

> <Gold.Chemscore.Hbonds>
donor molecule, donor type, donor heavy atom, donor atom, acceptor molecule, acceptor atom, score
      L1  H    10    23       P1 18996  0.70
      P1  H 11671 11743       L1    17  0.34
      P1  H 19323 19359       L1    17  1.00

> <Gold.PLP.Chemscore.Internal.Correction>
   9.000000E+99

