#       Name:                CT1002167954
#       Creating user name   hitesit
#       Creation time:       Sun Apr 16 22:52:52 2023


#       File generated by GOLD software.
#

@<TRIPOS>MOLECULE
CT1002167954|ligand_prepared|mol2|1|dock1
    29    30     1
SMALL
NO_CHARGES


@<TRIPOS>ATOM
      1 C1         209.1033  28.3175  70.2551 C.3            1 RES1               0.0000
      2 C2         208.9347  29.8311  70.0113 C.ar           1 RES1               0.0000
      3 C3         208.4176  28.0188  71.5851 C.2            1 RES1               0.0000
      4 C4         208.4687  27.6192  69.0575 C.2            1 RES1               0.0000
      5 C5         210.5775  27.8601  70.3489 C.3            1 RES1               0.0000
      6 C6         208.0744  30.5850  70.8039 C.ar           1 RES1               0.0000
      7 C7         209.6335  30.4868  69.0012 C.ar           1 RES1               0.0000
      8 N8         207.2198  27.3680  71.5464 N.am           1 RES1               0.0000
      9 O9         208.9014  28.3838  72.6496 O.2            1 RES1               0.0000
     10 N10        207.3495  26.8593  69.2761 N.am           1 RES1               0.0000
     11 O11        208.9181  27.7336  67.9238 O.2            1 RES1               0.0000
     12 C12        211.4501  28.7731  71.1958 C.3            1 RES1               0.0000
     13 C13        207.9205  31.9457  70.5962 C.ar           1 RES1               0.0000
     14 C14        209.4780  31.8476  68.7950 C.ar           1 RES1               0.0000
     15 C15        206.6785  26.7270  70.4611 C.2            1 RES1               0.0000
     16 C16        208.6224  32.5779  69.5920 C.ar           1 RES1               0.0000
     17 O17        205.6471  26.0694  70.5669 O.2            1 RES1               0.0000
     18 H18        210.6073  26.8493  70.7741 H              1 RES1               0.0000
     19 H19        210.9969  27.8104  69.3364 H              1 RES1               0.0000
     20 H20        207.5119  30.1044  71.5973 H              1 RES1               0.0000
     21 H21        210.3114  29.9321  68.3612 H              1 RES1               0.0000
     22 H22        206.6762  27.3570  72.4035 H              1 RES1               0.0000
     23 H23        206.9828  26.3446  68.4818 H              1 RES1               0.0000
     24 H24        212.4740  28.4068  71.2283 H              1 RES1               0.0000
     25 H25        211.4638  29.7814  70.7872 H              1 RES1               0.0000
     26 H26        211.0764  28.8260  72.2163 H              1 RES1               0.0000
     27 H27        207.2448  32.5158  71.2253 H              1 RES1               0.0000
     28 H28        210.0319  32.3409  68.0032 H              1 RES1               0.0000
     29 H29        208.5019  33.6440  69.4298 H              1 RES1               0.0000
@<TRIPOS>BOND
    1    1    2 1     
    2    1    3 1     
    3    1    4 1     
    4    1    5 1     
    5    2    6 ar    
    6    2    7 ar    
    7    3    8 1     
    8    3    9 2     
    9    4   10 1     
   10    4   11 2     
   11    5   12 1     
   12    5   18 1     
   13    5   19 1     
   14    6   13 ar    
   15    6   20 1     
   16    7   14 ar    
   17    7   21 1     
   18    8   15 1     
   19    8   22 1     
   20   10   15 1     
   21   10   23 1     
   22   12   24 1     
   23   12   25 1     
   24   12   26 1     
   25   13   16 ar    
   26   13   27 1     
   27   14   16 ar    
   28   14   28 1     
   29   15   17 2     
   30   16   29 1     
@<TRIPOS>SUBSTRUCTURE
      1 RES1           1
@<TRIPOS>SET
DONOR_HYDROGENS      STATIC     ATOMS    <user>   **** ""
2 22 23
ATOM$RED        STATIC     ATOMS    COLORGROUP SYSTEM
2 22 23
@<TRIPOS>COMMENT
> <Gold.Version>
2022.3.0

> <Gold.Id.Protein>
unknown|4d1n_clean|pdb

> <Gold.Protein.RotatedTorsions>
[ 16986 16932 16931 16929 ] final  -92.88 input   60.00 | X-H torsion
[ 18485 18440 18439 18437 ] final  -23.03 input   60.00 | X-H torsion
[ 10113 10082 10081 10078 ] final  -55.22 input   59.99 | X-H torsion
[ 18288 18266 18265 18262 ] final   15.10 input   60.03 | X-H torsion
[ 18643 18615 18613 18610 ] final   59.48 input   59.98 | X-H torsion
[ 11435 11402 11401 11398 ] final  120.84 input   60.03 | X-H torsion

> <Gold.Protein.ActiveResidues>
 TRP414  CYS420  VAL421  GLY422  LEU460  SER462  SER482  GLN483  ILE485  ARG486 
 TYR487  ASP500  ASN503  TRP566  TYR567  LEU569  PRO570  ALA571  VAL572  SER573 
 ASN574  PHE589  SER590  GLY591  TRP592  TYR593  MET594  GLY595  THR596  GLU597 
 ILE598  GLY599  VAL600  ARG601  ASP602  TYR603  ARG608  ILE653  VAL654  TRP683 
 PRO687  HEM750  H4B760 

> <Gold.Protein.RotatedAtoms>
  205.8166   44.0515   69.9295 H   0  0  0  0  0  0  0  0  0  0  0  0  # atno 10113 bound_to 10082
  214.2804   28.8439   74.5642 H   0  0  0  0  0  0  0  0  0  0  0  0  # atno 11435 bound_to 11402
  207.8338   31.0828   77.0695 H   0  0  0  0  0  0  0  0  0  0  0  0  # atno 16986 bound_to 16932
  210.1503   42.9314   73.0653 H   0  0  0  0  0  0  0  0  0  0  0  0  # atno 18288 bound_to 18266
  206.0003   31.8594   75.7379 H   0  0  0  0  0  0  0  0  0  0  0  0  # atno 18485 bound_to 18440
  198.8708   30.0585   69.1579 H   0  0  0  0  0  0  0  0  0  0  0  0  # atno 18643 bound_to 18615
  209.2309   30.8009   77.8547 LP  0  0  0  0  0  0  0  0  0  0  0  0  # atno 27195 bound_to 16932
  209.0880   32.1017   76.8780 LP  0  0  0  0  0  0  0  0  0  0  0  0  # atno 27196 bound_to 16932
  205.8795   32.6514   77.1544 LP  0  0  0  0  0  0  0  0  0  0  0  0  # atno 27197 bound_to 18440
  206.7899   33.2670   75.9466 LP  0  0  0  0  0  0  0  0  0  0  0  0  # atno 27198 bound_to 18440
  205.5788   44.7315   68.4702 LP  0  0  0  0  0  0  0  0  0  0  0  0  # atno 27253 bound_to 10082
  205.1303   45.5234   69.8261 LP  0  0  0  0  0  0  0  0  0  0  0  0  # atno 27254 bound_to 10082
  211.2456   42.3761   74.1331 LP  0  0  0  0  0  0  0  0  0  0  0  0  # atno 27255 bound_to 18266
  209.7181   42.6926   74.6159 LP  0  0  0  0  0  0  0  0  0  0  0  0  # atno 27256 bound_to 18266

> <Gold.Score>
     Fitness  S(hb_ext) S(vdw_ext)  S(hb_int)    S(int)      intcor
     31.93       8.19      20.06       0.00      -3.84      -0.76

> <Gold.Goldscore.Fitness>
31.9290

> <Gold.Goldscore.Internal.Vdw>
-3.8349

> <Gold.Goldscore.Internal.Torsion>
-0.7595

> <Gold.Goldscore.External.Vdw>
20.0569

> <Gold.Goldscore.Internal.HBond>
0.0000

> <Gold.Goldscore.External.HBond>
8.1867

> <Gold.Goldscore.Internal.Correction>
-0.7585

> <Gold.Goldscore.Hbonds>
donor molecule, donor type, donor heavy atom, donor atom, acceptor molecule, acceptor atom, score
      L1  H     8    22       P1 18995  0.36
      L1  H    10    23       P1 27071  1.00

> <Gold.Goldscore.Internal.Vdw.Weighted>
-3.8349

> <Gold.Goldscore.Internal.Torsion.Weighted>
-0.7595

> <Gold.Goldscore.External.Vdw.Weighted>
27.5782

> <Gold.Goldscore.Internal.HBond.Weighted>
0.0000

> <Gold.Goldscore.External.HBond.Weighted>
8.1867

> <Gold.Goldscore.Internal.Correction.Weighted>
-0.7585

> <Gold.Rescore>
     Score     S(PLP)   S(hbond)     S(cho)   S(metal)  DE(clash)   DE(tors)     intcor
     19.95     -20.31       0.69       0.00       0.00       2.03       0.20       ----

> <Gold.PLP.Fitness>
19.9480

> <Gold.PLP.PLP>
-20.3106

> <Gold.PLP.part.hbond>
-1.4431

> <Gold.PLP.part.metal>
0.0000

> <Gold.PLP.part.buried>
-0.6864

> <Gold.PLP.part.nonpolar>
-19.5204

> <Gold.PLP.part.repulsive>
1.3051

> <Gold.PLP.ligand.clash>
2.0281

> <Gold.PLP.ligand.torsion>
0.1993

> <Gold.PLP.Chemscore.Hbond>
0.6880

> <Gold.PLP.Chemscore.CHOScore>
0.0000

> <Gold.PLP.Chemscore.Metal>
0.0000

> <Gold.Chemscore.Hbonds>
donor molecule, donor type, donor heavy atom, donor atom, acceptor molecule, acceptor atom, score
      L1  H    10    23       P1 27071  0.28

> <Gold.PLP.Chemscore.Internal.Correction>
   9.000000E+99

