#       Name:                CT1002167954
#       Creating user name   hitesit
#       Creation time:       Sun Apr 16 22:52:56 2023


#       File generated by GOLD software.
#

@<TRIPOS>MOLECULE
CT1002167954|ligand_prepared|mol2|1|dock7
    29    30     1
SMALL
NO_CHARGES


@<TRIPOS>ATOM
      1 C1         206.7248  29.2420  71.8960 C.3            1 RES1               0.0000
      2 C2         206.0304  28.5652  70.6967 C.ar           1 RES1               0.0000
      3 C3         207.5522  28.1576  72.5799 C.2            1 RES1               0.0000
      4 C4         207.5524  30.3856  71.3200 C.2            1 RES1               0.0000
      5 C5         205.7430  29.8374  72.9320 C.3            1 RES1               0.0000
      6 C6         204.8151  29.0455  70.2180 C.ar           1 RES1               0.0000
      7 C7         206.5931  27.4632  70.0582 C.ar           1 RES1               0.0000
      8 N8         208.9057  28.1992  72.4180 N.am           1 RES1               0.0000
      9 O9         207.0222  27.2570  73.2189 O.2            1 RES1               0.0000
     10 N10        208.9166  30.3055  71.4215 N.am           1 RES1               0.0000
     11 O11        207.0362  31.3474  70.7644 O.2            1 RES1               0.0000
     12 C12        206.4177  30.3359  74.2002 C.3            1 RES1               0.0000
     13 C13        204.1865  28.4478  69.1382 C.ar           1 RES1               0.0000
     14 C14        205.9627  26.8668  68.9786 C.ar           1 RES1               0.0000
     15 C15        209.6319  29.2496  71.9170 C.2            1 RES1               0.0000
     16 C16        204.7600  27.3585  68.5176 C.ar           1 RES1               0.0000
     17 O17        210.8594  29.2282  71.9247 O.2            1 RES1               0.0000
     18 H18        205.2032  30.6720  72.4678 H              1 RES1               0.0000
     19 H19        205.0066  29.0705  73.2020 H              1 RES1               0.0000
     20 H20        204.3475  29.9003  70.6952 H              1 RES1               0.0000
     21 H21        207.5381  27.0587  70.4044 H              1 RES1               0.0000
     22 H22        209.4260  27.3728  72.6949 H              1 RES1               0.0000
     23 H23        209.4482  31.1074  71.0978 H              1 RES1               0.0000
     24 H24        205.6842  30.7434  74.8927 H              1 RES1               0.0000
     25 H25        206.9435  29.5259  74.7014 H              1 RES1               0.0000
     26 H26        207.1389  31.1179  73.9716 H              1 RES1               0.0000
     27 H27        203.2395  28.8377  68.7801 H              1 RES1               0.0000
     28 H28        206.4173  26.0094  68.4936 H              1 RES1               0.0000
     29 H29        204.2676  26.8907  67.6715 H              1 RES1               0.0000
@<TRIPOS>BOND
    1    1    2 1     
    2    1    3 1     
    3    1    4 1     
    4    1    5 1     
    5    2    6 ar    
    6    2    7 ar    
    7    3    8 1     
    8    3    9 2     
    9    4   10 1     
   10    4   11 2     
   11    5   12 1     
   12    5   18 1     
   13    5   19 1     
   14    6   13 ar    
   15    6   20 1     
   16    7   14 ar    
   17    7   21 1     
   18    8   15 1     
   19    8   22 1     
   20   10   15 1     
   21   10   23 1     
   22   12   24 1     
   23   12   25 1     
   24   12   26 1     
   25   13   16 ar    
   26   13   27 1     
   27   14   16 ar    
   28   14   28 1     
   29   15   17 2     
   30   16   29 1     
@<TRIPOS>SUBSTRUCTURE
      1 RES1           1
@<TRIPOS>SET
DONOR_HYDROGENS      STATIC     ATOMS    <user>   **** ""
2 22 23
ATOM$RED        STATIC     ATOMS    COLORGROUP SYSTEM
2 22 23
@<TRIPOS>COMMENT
> <Gold.Version>
2022.3.0

> <Gold.Id.Protein>
unknown|4d1n_clean|pdb

> <Gold.Protein.RotatedTorsions>
[ 16986 16932 16931 16929 ] final    5.15 input   60.00 | X-H torsion
[ 18485 18440 18439 18437 ] final  127.57 input   60.00 | X-H torsion
[ 10113 10082 10081 10078 ] final   99.89 input   59.99 | X-H torsion
[ 18288 18266 18265 18262 ] final  -24.40 input   60.03 | X-H torsion
[ 18643 18615 18613 18610 ] final  120.65 input   59.98 | X-H torsion
[ 11435 11402 11401 11398 ] final  110.88 input   60.03 | X-H torsion

> <Gold.Protein.ActiveResidues>
 TRP414  CYS420  VAL421  GLY422  LEU460  SER462  SER482  GLN483  ILE485  ARG486 
 TYR487  ASP500  ASN503  TRP566  TYR567  LEU569  PRO570  ALA571  VAL572  SER573 
 ASN574  PHE589  SER590  GLY591  TRP592  TYR593  MET594  GLY595  THR596  GLU597 
 ILE598  GLY599  VAL600  ARG601  ASP602  TYR603  ARG608  ILE653  VAL654  TRP683 
 PRO687  HEM750  H4B760 

> <Gold.Protein.RotatedAtoms>
  205.1253   45.6090   69.2658 H   0  0  0  0  0  0  0  0  0  0  0  0  # atno 10113 bound_to 10082
  214.2584   28.9976   74.6121 H   0  0  0  0  0  0  0  0  0  0  0  0  # atno 11435 bound_to 11402
  208.7570   32.1011   76.7410 H   0  0  0  0  0  0  0  0  0  0  0  0  # atno 16986 bound_to 16932
  210.7577   42.7553   73.0880 H   0  0  0  0  0  0  0  0  0  0  0  0  # atno 18288 bound_to 18266
  206.6709   33.4026   76.4084 H   0  0  0  0  0  0  0  0  0  0  0  0  # atno 18485 bound_to 18440
  198.4547   29.6385   68.4107 H   0  0  0  0  0  0  0  0  0  0  0  0  # atno 18643 bound_to 18615
  207.9233   30.8170   77.2923 LP  0  0  0  0  0  0  0  0  0  0  0  0  # atno 27195 bound_to 16932
  209.4655   31.0597   77.7713 LP  0  0  0  0  0  0  0  0  0  0  0  0  # atno 27196 bound_to 16932
  206.2988   32.1369   75.4555 LP  0  0  0  0  0  0  0  0  0  0  0  0  # atno 27197 bound_to 18440
  205.6952   32.2274   76.9702 LP  0  0  0  0  0  0  0  0  0  0  0  0  # atno 27198 bound_to 18440
  205.6114   44.4396   70.2879 LP  0  0  0  0  0  0  0  0  0  0  0  0  # atno 27253 bound_to 10082
  205.7937   44.2472   68.6766 LP  0  0  0  0  0  0  0  0  0  0  0  0  # atno 27254 bound_to 10082
  210.8874   42.3535   74.6597 LP  0  0  0  0  0  0  0  0  0  0  0  0  # atno 27255 bound_to 18266
  209.4647   42.8925   74.0665 LP  0  0  0  0  0  0  0  0  0  0  0  0  # atno 27256 bound_to 18266

> <Gold.Score>
     Fitness  S(hb_ext) S(vdw_ext)  S(hb_int)    S(int)      intcor
     36.69       5.42      23.52       0.00      -1.07      -0.76

> <Gold.Goldscore.Fitness>
36.6864

> <Gold.Goldscore.Internal.Vdw>
-1.3597

> <Gold.Goldscore.Internal.Torsion>
-0.4691

> <Gold.Goldscore.External.Vdw>
23.5233

> <Gold.Goldscore.Internal.HBond>
0.0000

> <Gold.Goldscore.External.HBond>
5.4152

> <Gold.Goldscore.Internal.Correction>
-0.7553

> <Gold.Goldscore.Hbonds>
donor molecule, donor type, donor heavy atom, donor atom, acceptor molecule, acceptor atom, score
      P1  H 11448 11500       L1    17  0.17
      P1  H 19322 19357       L1     9  0.85

> <Gold.Goldscore.Internal.Vdw.Weighted>
-1.3597

> <Gold.Goldscore.Internal.Torsion.Weighted>
-0.4691

> <Gold.Goldscore.External.Vdw.Weighted>
32.3446

> <Gold.Goldscore.Internal.HBond.Weighted>
0.0000

> <Gold.Goldscore.External.HBond.Weighted>
5.4152

> <Gold.Goldscore.Internal.Correction.Weighted>
-0.7553

> <Gold.Rescore>
     Score     S(PLP)   S(hbond)     S(cho)   S(metal)  DE(clash)   DE(tors)     intcor
     19.84     -21.08       0.52       0.00       0.00       0.66       1.07       ----

> <Gold.PLP.Fitness>
19.8431

> <Gold.PLP.PLP>
-21.0835

> <Gold.PLP.part.hbond>
-2.9207

> <Gold.PLP.part.metal>
0.0000

> <Gold.PLP.part.buried>
2.9784

> <Gold.PLP.part.nonpolar>
-24.3789

> <Gold.PLP.part.repulsive>
2.9474

> <Gold.PLP.ligand.clash>
0.6597

> <Gold.PLP.ligand.torsion>
1.0728

> <Gold.PLP.Chemscore.Hbond>
0.5216

> <Gold.PLP.Chemscore.CHOScore>
0.0000

> <Gold.PLP.Chemscore.Metal>
0.0000

> <Gold.Chemscore.Hbonds>
donor molecule, donor type, donor heavy atom, donor atom, acceptor molecule, acceptor atom, score
      P1  H 19322 19357       L1     9  0.54

> <Gold.PLP.Chemscore.Internal.Correction>
   9.000000E+99

