#       Name:                CT1002167954
#       Creating user name   hitesit
#       Creation time:       Sun Apr 16 22:52:54 2023


#       File generated by GOLD software.
#

@<TRIPOS>MOLECULE
CT1002167954|ligand_prepared|mol2|1|dock5
    29    30     1
SMALL
NO_CHARGES


@<TRIPOS>ATOM
      1 C1         207.4294  28.1729  70.6579 C.3            1 RES1               0.0000
      2 C2         207.8740  29.6460  70.5527 C.ar           1 RES1               0.0000
      3 C3         205.9738  28.1963  71.1147 C.2            1 RES1               0.0000
      4 C4         207.6380  27.5646  69.2755 C.2            1 RES1               0.0000
      5 C5         208.2497  27.3437  71.6734 C.3            1 RES1               0.0000
      6 C6         209.1923  29.9681  70.2444 C.ar           1 RES1               0.0000
      7 C7         206.9783  30.6920  70.7584 C.ar           1 RES1               0.0000
      8 N8         205.0168  27.8939  70.1913 N.am           1 RES1               0.0000
      9 O9         205.6676  28.5137  72.2575 O.2            1 RES1               0.0000
     10 N10        206.5298  27.1604  68.5781 N.am           1 RES1               0.0000
     11 O11        208.7506  27.4471  68.7769 O.2            1 RES1               0.0000
     12 C12        208.1120  25.8404  71.4909 C.3            1 RES1               0.0000
     13 C13        209.5998  31.2879  70.1423 C.ar           1 RES1               0.0000
     14 C14        207.3879  32.0111  70.6561 C.ar           1 RES1               0.0000
     15 C15        205.2265  27.3256  68.9605 C.2            1 RES1               0.0000
     16 C16        208.6980  32.3102  70.3477 C.ar           1 RES1               0.0000
     17 O17        204.2821  26.9851  68.2540 O.2            1 RES1               0.0000
     18 H18        209.3082  27.6155  71.5780 H              1 RES1               0.0000
     19 H19        207.9259  27.6073  72.6879 H              1 RES1               0.0000
     20 H20        209.9168  29.1770  70.0819 H              1 RES1               0.0000
     21 H21        205.9429  30.4804  71.0032 H              1 RES1               0.0000
     22 H22        204.0565  28.1103  70.4387 H              1 RES1               0.0000
     23 H23        206.6915  26.6928  67.6917 H              1 RES1               0.0000
     24 H24        208.7073  25.3062  72.2284 H              1 RES1               0.0000
     25 H25        207.0749  25.5315  71.6043 H              1 RES1               0.0000
     26 H26        208.4489  25.5396  70.5010 H              1 RES1               0.0000
     27 H27        210.6322  31.5179  69.9007 H              1 RES1               0.0000
     28 H28        206.6749  32.8125  70.8191 H              1 RES1               0.0000
     29 H29        209.0173  33.3440  70.2673 H              1 RES1               0.0000
@<TRIPOS>BOND
    1    1    2 1     
    2    1    3 1     
    3    1    4 1     
    4    1    5 1     
    5    2    6 ar    
    6    2    7 ar    
    7    3    8 1     
    8    3    9 2     
    9    4   10 1     
   10    4   11 2     
   11    5   12 1     
   12    5   18 1     
   13    5   19 1     
   14    6   13 ar    
   15    6   20 1     
   16    7   14 ar    
   17    7   21 1     
   18    8   15 1     
   19    8   22 1     
   20   10   15 1     
   21   10   23 1     
   22   12   24 1     
   23   12   25 1     
   24   12   26 1     
   25   13   16 ar    
   26   13   27 1     
   27   14   16 ar    
   28   14   28 1     
   29   15   17 2     
   30   16   29 1     
@<TRIPOS>SUBSTRUCTURE
      1 RES1           1
@<TRIPOS>SET
DONOR_HYDROGENS      STATIC     ATOMS    <user>   **** ""
2 22 23
ATOM$RED        STATIC     ATOMS    COLORGROUP SYSTEM
2 22 23
@<TRIPOS>COMMENT
> <Gold.Version>
2022.3.0

> <Gold.Id.Protein>
unknown|4d1n_clean|pdb

> <Gold.Protein.RotatedTorsions>
[ 16986 16932 16931 16929 ] final  -96.95 input   60.00 | X-H torsion
[ 18485 18440 18439 18437 ] final   67.35 input   60.00 | X-H torsion
[ 10113 10082 10081 10078 ] final   53.92 input   59.99 | X-H torsion
[ 18288 18266 18265 18262 ] final  -29.58 input   60.03 | X-H torsion
[ 18643 18615 18613 18610 ] final  156.95 input   59.98 | X-H torsion
[ 11435 11402 11401 11398 ] final  -97.21 input   60.03 | X-H torsion

> <Gold.Protein.ActiveResidues>
 TRP414  CYS420  VAL421  GLY422  LEU460  SER462  SER482  GLN483  ILE485  ARG486 
 TYR487  ASP500  ASN503  TRP566  TYR567  LEU569  PRO570  ALA571  VAL572  SER573 
 ASN574  PHE589  SER590  GLY591  TRP592  TYR593  MET594  GLY595  THR596  GLU597 
 ILE598  GLY599  VAL600  ARG601  ASP602  TYR603  ARG608  ILE653  VAL654  TRP683 
 PRO687  HEM750  H4B760 

> <Gold.Protein.RotatedAtoms>
  205.1677   45.4319   69.9740 H   0  0  0  0  0  0  0  0  0  0  0  0  # atno 10113 bound_to 10082
  215.8088   28.3724   75.3220 H   0  0  0  0  0  0  0  0  0  0  0  0  # atno 11435 bound_to 11402
  207.8418   31.0305   77.1097 H   0  0  0  0  0  0  0  0  0  0  0  0  # atno 16986 bound_to 16932
  210.8297   42.7270   73.1221 H   0  0  0  0  0  0  0  0  0  0  0  0  # atno 18288 bound_to 18266
  206.7452   32.9492   75.5890 H   0  0  0  0  0  0  0  0  0  0  0  0  # atno 18485 bound_to 18440
  197.9370   29.7288   68.1577 H   0  0  0  0  0  0  0  0  0  0  0  0  # atno 18643 bound_to 18615
  209.2811   30.8440   77.8455 LP  0  0  0  0  0  0  0  0  0  0  0  0  # atno 27195 bound_to 16932
  209.0296   32.1112   76.8467 LP  0  0  0  0  0  0  0  0  0  0  0  0  # atno 27196 bound_to 16932
  205.7695   31.7740   76.1506 LP  0  0  0  0  0  0  0  0  0  0  0  0  # atno 27197 bound_to 18440
  206.1497   33.0468   77.1004 LP  0  0  0  0  0  0  0  0  0  0  0  0  # atno 27198 bound_to 18440
  205.8595   43.9722   69.7761 LP  0  0  0  0  0  0  0  0  0  0  0  0  # atno 27253 bound_to 10082
  205.5029   44.8929   68.4754 LP  0  0  0  0  0  0  0  0  0  0  0  0  # atno 27254 bound_to 10082
  210.8178   42.3618   74.7079 LP  0  0  0  0  0  0  0  0  0  0  0  0  # atno 27255 bound_to 18266
  209.4618   42.9127   73.9838 LP  0  0  0  0  0  0  0  0  0  0  0  0  # atno 27256 bound_to 18266

> <Gold.Score>
     Fitness  S(hb_ext) S(vdw_ext)  S(hb_int)    S(int)      intcor
     30.06       6.00      20.54       0.00      -4.18      -0.76

> <Gold.Goldscore.Fitness>
30.0635

> <Gold.Goldscore.Internal.Vdw>
-4.1273

> <Gold.Goldscore.Internal.Torsion>
-0.8117

> <Gold.Goldscore.External.Vdw>
20.5410

> <Gold.Goldscore.Internal.HBond>
0.0000

> <Gold.Goldscore.External.HBond>
6.0000

> <Gold.Goldscore.Internal.Correction>
-0.7585

> <Gold.Goldscore.Hbonds>
donor molecule, donor type, donor heavy atom, donor atom, acceptor molecule, acceptor atom, score
      L1  H    10    23       P1 27071  1.00

> <Gold.Goldscore.Internal.Vdw.Weighted>
-4.1273

> <Gold.Goldscore.Internal.Torsion.Weighted>
-0.8117

> <Gold.Goldscore.External.Vdw.Weighted>
28.2439

> <Gold.Goldscore.Internal.HBond.Weighted>
0.0000

> <Gold.Goldscore.External.HBond.Weighted>
6.0000

> <Gold.Goldscore.Internal.Correction.Weighted>
-0.7585

> <Gold.Rescore>
     Score     S(PLP)   S(hbond)     S(cho)   S(metal)  DE(clash)   DE(tors)     intcor
     21.23     -18.79       1.37       0.00       0.00       1.25       0.22       ----

> <Gold.PLP.Fitness>
21.2293

> <Gold.PLP.PLP>
-18.7873

> <Gold.PLP.part.hbond>
-3.6951

> <Gold.PLP.part.metal>
0.0000

> <Gold.PLP.part.buried>
-5.6348

> <Gold.PLP.part.nonpolar>
-10.9559

> <Gold.PLP.part.repulsive>
0.6243

> <Gold.PLP.ligand.clash>
1.2481

> <Gold.PLP.ligand.torsion>
0.2152

> <Gold.PLP.Chemscore.Hbond>
1.3735

> <Gold.PLP.Chemscore.CHOScore>
0.0000

> <Gold.PLP.Chemscore.Metal>
0.0000

> <Gold.Chemscore.Hbonds>
donor molecule, donor type, donor heavy atom, donor atom, acceptor molecule, acceptor atom, score
      L1  H    10    23       P1 27071  1.00
      P1  H 18902 18947       L1    17  0.08

> <Gold.PLP.Chemscore.Internal.Correction>
   9.000000E+99

