#       Name:                CT1002167954
#       Creating user name   hitesit
#       Creation time:       Sun Apr 16 22:52:53 2023


#       File generated by GOLD software.
#

@<TRIPOS>MOLECULE
CT1002167954|ligand_prepared|mol2|1|dock3
    29    30     1
SMALL
NO_CHARGES


@<TRIPOS>ATOM
      1 C1         206.8430  29.8277  72.1998 C.3            1 RES1               0.0000
      2 C2         206.1922  28.7711  71.2840 C.ar           1 RES1               0.0000
      3 C3         206.0328  29.8316  73.4927 C.2            1 RES1               0.0000
      4 C4         208.2961  29.4015  72.3774 C.2            1 RES1               0.0000
      5 C5         206.8332  31.2572  71.6097 C.3            1 RES1               0.0000
      6 C6         205.1758  29.1268  70.4024 C.ar           1 RES1               0.0000
      7 C7         206.5986  27.4396  71.3075 C.ar           1 RES1               0.0000
      8 N8         206.5984  29.2606  74.5945 N.am           1 RES1               0.0000
      9 O9         204.8990  30.2932  73.5350 O.2            1 RES1               0.0000
     10 N10        208.7061  29.0243  73.6294 N.am           1 RES1               0.0000
     11 O11        209.0853  29.3729  71.4412 O.2            1 RES1               0.0000
     12 C12        207.7797  32.2173  72.3129 C.3            1 RES1               0.0000
     13 C13        204.5890  28.1862  69.5722 C.ar           1 RES1               0.0000
     14 C14        206.0102  26.5005  70.4766 C.ar           1 RES1               0.0000
     15 C15        207.9153  28.9052  74.7396 C.2            1 RES1               0.0000
     16 C16        205.0060  26.8727  69.6084 C.ar           1 RES1               0.0000
     17 O17        208.3459  28.5070  75.8182 O.2            1 RES1               0.0000
     18 H18        207.1085  31.2033  70.5492 H              1 RES1               0.0000
     19 H19        205.8138  31.6577  71.6715 H              1 RES1               0.0000
     20 H20        204.8328  30.1553  70.3617 H              1 RES1               0.0000
     21 H21        207.3861  27.1238  71.9832 H              1 RES1               0.0000
     22 H22        205.9855  29.0812  75.3835 H              1 RES1               0.0000
     23 H23        209.6922  28.8129  73.7443 H              1 RES1               0.0000
     24 H24        207.7337  33.2053  71.8598 H              1 RES1               0.0000
     25 H25        207.5194  32.3144  73.3648 H              1 RES1               0.0000
     26 H26        208.8064  31.8627  72.2491 H              1 RES1               0.0000
     27 H27        203.7981  28.4840  68.8918 H              1 RES1               0.0000
     28 H28        206.3411  25.4677  70.5088 H              1 RES1               0.0000
     29 H29        204.5464  26.1361  68.9577 H              1 RES1               0.0000
@<TRIPOS>BOND
    1    1    2 1     
    2    1    3 1     
    3    1    4 1     
    4    1    5 1     
    5    2    6 ar    
    6    2    7 ar    
    7    3    8 1     
    8    3    9 2     
    9    4   10 1     
   10    4   11 2     
   11    5   12 1     
   12    5   18 1     
   13    5   19 1     
   14    6   13 ar    
   15    6   20 1     
   16    7   14 ar    
   17    7   21 1     
   18    8   15 1     
   19    8   22 1     
   20   10   15 1     
   21   10   23 1     
   22   12   24 1     
   23   12   25 1     
   24   12   26 1     
   25   13   16 ar    
   26   13   27 1     
   27   14   16 ar    
   28   14   28 1     
   29   15   17 2     
   30   16   29 1     
@<TRIPOS>SUBSTRUCTURE
      1 RES1           1
@<TRIPOS>SET
DONOR_HYDROGENS      STATIC     ATOMS    <user>   **** ""
2 22 23
ATOM$RED        STATIC     ATOMS    COLORGROUP SYSTEM
2 22 23
@<TRIPOS>COMMENT
> <Gold.Version>
2022.3.0

> <Gold.Id.Protein>
unknown|4d1n_clean|pdb

> <Gold.Protein.RotatedTorsions>
[ 16986 16932 16931 16929 ] final   -9.89 input   60.00 | X-H torsion
[ 18485 18440 18439 18437 ] final   87.58 input   60.00 | X-H torsion
[ 10113 10082 10081 10078 ] final  -15.98 input   59.99 | X-H torsion
[ 18288 18266 18265 18262 ] final -135.36 input   60.03 | X-H torsion
[ 18643 18615 18613 18610 ] final   76.37 input   59.98 | X-H torsion
[ 11435 11402 11401 11398 ] final -114.66 input   60.03 | X-H torsion

> <Gold.Protein.ActiveResidues>
 TRP414  CYS420  VAL421  GLY422  LEU460  SER462  SER482  GLN483  ILE485  ARG486 
 TYR487  ASP500  ASN503  TRP566  TYR567  LEU569  PRO570  ALA571  VAL572  SER573 
 ASN574  PHE589  SER590  GLY591  TRP592  TYR593  MET594  GLY595  THR596  GLU597 
 ILE598  GLY599  VAL600  ARG601  ASP602  TYR603  ARG608  ILE653  VAL654  TRP683 
 PRO687  HEM750  H4B760 

> <Gold.Protein.RotatedAtoms>
  205.5850   44.5003   70.3042 H   0  0  0  0  0  0  0  0  0  0  0  0  # atno 10113 bound_to 10082
  215.6754   28.1793   75.1621 H   0  0  0  0  0  0  0  0  0  0  0  0  # atno 11435 bound_to 11402
  208.5262   32.0385   76.6878 H   0  0  0  0  0  0  0  0  0  0  0  0  # atno 16986 bound_to 16932
  210.9937   42.3451   74.5565 H   0  0  0  0  0  0  0  0  0  0  0  0  # atno 18288 bound_to 18266
  206.7882   33.1796   75.8198 H   0  0  0  0  0  0  0  0  0  0  0  0  # atno 18485 bound_to 18440
  198.8422   29.8848   68.9467 H   0  0  0  0  0  0  0  0  0  0  0  0  # atno 18643 bound_to 18615
  208.0564   30.6778   77.4465 LP  0  0  0  0  0  0  0  0  0  0  0  0  # atno 27195 bound_to 16932
  209.5648   31.2619   77.6707 LP  0  0  0  0  0  0  0  0  0  0  0  0  # atno 27196 bound_to 16932
  205.9174   31.8052   75.8559 LP  0  0  0  0  0  0  0  0  0  0  0  0  # atno 27197 bound_to 18440
  205.9584   32.7837   77.1626 LP  0  0  0  0  0  0  0  0  0  0  0  0  # atno 27198 bound_to 18440
  205.8134   44.1996   68.7212 LP  0  0  0  0  0  0  0  0  0  0  0  0  # atno 27253 bound_to 10082
  205.1288   45.6034   69.1980 LP  0  0  0  0  0  0  0  0  0  0  0  0  # atno 27254 bound_to 10082
  209.4874   42.8530   74.2080 LP  0  0  0  0  0  0  0  0  0  0  0  0  # atno 27255 bound_to 18266
  210.6271   42.8060   73.0395 LP  0  0  0  0  0  0  0  0  0  0  0  0  # atno 27256 bound_to 18266

> <Gold.Score>
     Fitness  S(hb_ext) S(vdw_ext)  S(hb_int)    S(int)      intcor
     35.40       4.44      23.02       0.00      -0.69      -0.76

> <Gold.Goldscore.Fitness>
35.4019

> <Gold.Goldscore.Internal.Vdw>
-0.7213

> <Gold.Goldscore.Internal.Torsion>
-0.7240

> <Gold.Goldscore.External.Vdw>
23.0177

> <Gold.Goldscore.Internal.HBond>
0.0000

> <Gold.Goldscore.External.HBond>
4.4394

> <Gold.Goldscore.Internal.Correction>
-0.7585

> <Gold.Goldscore.Hbonds>
donor molecule, donor type, donor heavy atom, donor atom, acceptor molecule, acceptor atom, score
      P1  H 11668 11739       L1    17  0.02
      P1  H 11671 11743       L1    17  0.47
      P1  H 19323 19359       L1    17  0.09
      L1  H     8    22       P1 18996  0.17

> <Gold.Goldscore.Internal.Vdw.Weighted>
-0.7213

> <Gold.Goldscore.Internal.Torsion.Weighted>
-0.7240

> <Gold.Goldscore.External.Vdw.Weighted>
31.6494

> <Gold.Goldscore.Internal.HBond.Weighted>
0.0000

> <Gold.Goldscore.External.HBond.Weighted>
4.4394

> <Gold.Goldscore.Internal.Correction.Weighted>
-0.7585

> <Gold.Rescore>
     Score     S(PLP)   S(hbond)     S(cho)   S(metal)  DE(clash)   DE(tors)     intcor
     16.02     -12.00       2.03       0.00       0.00       1.00       0.54       ----

> <Gold.PLP.Fitness>
16.0159

> <Gold.PLP.PLP>
-11.9979

> <Gold.PLP.part.hbond>
-5.8939

> <Gold.PLP.part.metal>
0.0000

> <Gold.PLP.part.buried>
8.2057

> <Gold.PLP.part.nonpolar>
-23.9008

> <Gold.PLP.part.repulsive>
8.0500

> <Gold.PLP.ligand.clash>
0.9959

> <Gold.PLP.ligand.torsion>
0.5403

> <Gold.PLP.Chemscore.Hbond>
2.0315

> <Gold.PLP.Chemscore.CHOScore>
0.0000

> <Gold.PLP.Chemscore.Metal>
0.0000

> <Gold.Chemscore.Hbonds>
donor molecule, donor type, donor heavy atom, donor atom, acceptor molecule, acceptor atom, score
      L1  H     8    22       P1 18996  0.50
      P1  H 11671 11743       L1    17  1.00
      P1  H 19323 19359       L1    17  0.80

> <Gold.PLP.Chemscore.Internal.Correction>
   9.000000E+99

