#       Name:                CT1002167954
#       Creating user name   hitesit
#       Creation time:       Sun Apr 16 22:52:56 2023


#       File generated by GOLD software.
#

@<TRIPOS>MOLECULE
CT1002167954|ligand_prepared|mol2|1|dock8
    29    30     1
SMALL
NO_CHARGES


@<TRIPOS>ATOM
      1 C1         207.5661  32.7716  70.9312 C.3            1 RES1               0.0000
      2 C2         206.7336  33.9856  70.4709 C.ar           1 RES1               0.0000
      3 C3         208.2031  33.1680  72.2599 C.2            1 RES1               0.0000
      4 C4         206.5940  31.6013  71.0320 C.2            1 RES1               0.0000
      5 C5         208.6905  32.3753  69.9462 C.3            1 RES1               0.0000
      6 C6         206.9331  34.5455  69.2125 C.ar           1 RES1               0.0000
      7 C7         205.7624  34.5539  71.2909 C.ar           1 RES1               0.0000
      8 N8         207.6933  32.6118  73.3959 N.am           1 RES1               0.0000
      9 O9         209.1130  33.9863  72.3133 O.2            1 RES1               0.0000
     10 N10        206.3539  31.0711  72.2725 N.am           1 RES1               0.0000
     11 O11        206.0213  31.1443  70.0505 O.2            1 RES1               0.0000
     12 C12        209.5061  31.1742  70.3979 C.3            1 RES1               0.0000
     13 C13        206.1867  35.6323  68.7880 C.ar           1 RES1               0.0000
     14 C14        205.0173  35.6409  70.8645 C.ar           1 RES1               0.0000
     15 C15        206.8359  31.5432  73.4629 C.2            1 RES1               0.0000
     16 C16        205.2281  36.1804  69.6134 C.ar           1 RES1               0.0000
     17 O17        206.5311  31.0460  74.5433 O.2            1 RES1               0.0000
     18 H18        208.2422  32.1510  68.9704 H              1 RES1               0.0000
     19 H19        209.3644  33.2312  69.8168 H              1 RES1               0.0000
     20 H20        207.6847  34.1292  68.5501 H              1 RES1               0.0000
     21 H21        205.5800  34.1467  72.2796 H              1 RES1               0.0000
     22 H22        207.9755  33.0291  74.2771 H              1 RES1               0.0000
     23 H23        205.7609  30.2482  72.3123 H              1 RES1               0.0000
     24 H24        210.2809  30.9387  69.6713 H              1 RES1               0.0000
     25 H25        209.9868  31.3717  71.3538 H              1 RES1               0.0000
     26 H26        208.8713  30.2979  70.5125 H              1 RES1               0.0000
     27 H27        206.3575  36.0540  67.8030 H              1 RES1               0.0000
     28 H28        204.2643  36.0694  71.5176 H              1 RES1               0.0000
     29 H29        204.6433  37.0315  69.2805 H              1 RES1               0.0000
@<TRIPOS>BOND
    1    1    2 1     
    2    1    3 1     
    3    1    4 1     
    4    1    5 1     
    5    2    6 ar    
    6    2    7 ar    
    7    3    8 1     
    8    3    9 2     
    9    4   10 1     
   10    4   11 2     
   11    5   12 1     
   12    5   18 1     
   13    5   19 1     
   14    6   13 ar    
   15    6   20 1     
   16    7   14 ar    
   17    7   21 1     
   18    8   15 1     
   19    8   22 1     
   20   10   15 1     
   21   10   23 1     
   22   12   24 1     
   23   12   25 1     
   24   12   26 1     
   25   13   16 ar    
   26   13   27 1     
   27   14   16 ar    
   28   14   28 1     
   29   15   17 2     
   30   16   29 1     
@<TRIPOS>SUBSTRUCTURE
      1 RES1           1
@<TRIPOS>SET
DONOR_HYDROGENS      STATIC     ATOMS    <user>   **** ""
2 22 23
ATOM$RED        STATIC     ATOMS    COLORGROUP SYSTEM
2 22 23
@<TRIPOS>COMMENT
> <Gold.Version>
2022.3.0

> <Gold.Id.Protein>
unknown|4d1n_clean|pdb

> <Gold.Protein.RotatedTorsions>
[ 16986 16932 16931 16929 ] final  -95.28 input   60.00 | X-H torsion
[ 18485 18440 18439 18437 ] final -133.18 input   60.00 | X-H torsion
[ 10113 10082 10081 10078 ] final   69.62 input   59.99 | X-H torsion
[ 18288 18266 18265 18262 ] final  174.24 input   60.03 | X-H torsion
[ 18643 18615 18613 18610 ] final   68.07 input   59.98 | X-H torsion
[ 11435 11402 11401 11398 ] final  -77.49 input   60.03 | X-H torsion

> <Gold.Protein.ActiveResidues>
 TRP414  CYS420  VAL421  GLY422  LEU460  SER462  SER482  GLN483  ILE485  ARG486 
 TYR487  ASP500  ASN503  TRP566  TYR567  LEU569  PRO570  ALA571  VAL572  SER573 
 ASN574  PHE589  SER590  GLY591  TRP592  TYR593  MET594  GLY595  THR596  GLU597 
 ILE598  GLY599  VAL600  ARG601  ASP602  TYR603  ARG608  ILE653  VAL654  TRP683 
 PRO687  HEM750  H4B760 

> <Gold.Protein.RotatedAtoms>
  205.1252   45.5500   69.7511 H   0  0  0  0  0  0  0  0  0  0  0  0  # atno 10113 bound_to 10082
  215.8771   28.6463   75.4739 H   0  0  0  0  0  0  0  0  0  0  0  0  # atno 11435 bound_to 11402
  207.8380   31.0518   77.0931 H   0  0  0  0  0  0  0  0  0  0  0  0  # atno 16986 bound_to 16932
  210.2641   42.4821   74.8477 H   0  0  0  0  0  0  0  0  0  0  0  0  # atno 18288 bound_to 18266
  205.8080   32.5124   77.1141 H   0  0  0  0  0  0  0  0  0  0  0  0  # atno 18485 bound_to 18440
  198.8654   29.9663   69.0524 H   0  0  0  0  0  0  0  0  0  0  0  0  # atno 18643 bound_to 18615
  209.2609   30.8261   77.8497 LP  0  0  0  0  0  0  0  0  0  0  0  0  # atno 27195 bound_to 16932
  209.0537   32.1078   76.8593 LP  0  0  0  0  0  0  0  0  0  0  0  0  # atno 27196 bound_to 16932
  206.7696   33.3358   76.0915 LP  0  0  0  0  0  0  0  0  0  0  0  0  # atno 27197 bound_to 18440
  206.0934   31.9250   75.6235 LP  0  0  0  0  0  0  0  0  0  0  0  0  # atno 27198 bound_to 18440
  205.7933   44.0866   69.9972 LP  0  0  0  0  0  0  0  0  0  0  0  0  # atno 27253 bound_to 10082
  205.6119   44.6596   68.4788 LP  0  0  0  0  0  0  0  0  0  0  0  0  # atno 27254 bound_to 10082
  209.6425   42.9909   73.4324 LP  0  0  0  0  0  0  0  0  0  0  0  0  # atno 27255 bound_to 18266
  211.2066   42.5301   73.5219 LP  0  0  0  0  0  0  0  0  0  0  0  0  # atno 27256 bound_to 18266

> <Gold.Score>
     Fitness  S(hb_ext) S(vdw_ext)  S(hb_int)    S(int)      intcor
     40.89       0.73      30.06       0.00      -1.17      -0.76

> <Gold.Goldscore.Fitness>
40.8871

> <Gold.Goldscore.Internal.Vdw>
-1.5540

> <Gold.Goldscore.Internal.Torsion>
-0.3676

> <Gold.Goldscore.External.Vdw>
30.0556

> <Gold.Goldscore.Internal.HBond>
0.0000

> <Gold.Goldscore.External.HBond>
0.7269

> <Gold.Goldscore.Internal.Correction>
-0.7553

> <Gold.Goldscore.Hbonds>
donor molecule, donor type, donor heavy atom, donor atom, acceptor molecule, acceptor atom, score
      P1  H 11448 11499       L1    17  0.35
      L1  H     8    22       P1 11449  0.01

> <Gold.Goldscore.Internal.Vdw.Weighted>
-1.5540

> <Gold.Goldscore.Internal.Torsion.Weighted>
-0.3676

> <Gold.Goldscore.External.Vdw.Weighted>
41.3265

> <Gold.Goldscore.Internal.HBond.Weighted>
0.0000

> <Gold.Goldscore.External.HBond.Weighted>
0.7269

> <Gold.Goldscore.Internal.Correction.Weighted>
-0.7553

> <Gold.Rescore>
     Score     S(PLP)   S(hbond)     S(cho)   S(metal)  DE(clash)   DE(tors)     intcor
     25.73     -29.00       0.64       0.00       0.00       1.99       1.60       ----

> <Gold.PLP.Fitness>
25.7343

> <Gold.PLP.PLP>
-29.0014

> <Gold.PLP.part.hbond>
-3.5215

> <Gold.PLP.part.metal>
0.0000

> <Gold.PLP.part.buried>
15.1426

> <Gold.PLP.part.nonpolar>
-44.4532

> <Gold.PLP.part.repulsive>
3.3345

> <Gold.PLP.ligand.clash>
1.9887

> <Gold.PLP.ligand.torsion>
1.5967

> <Gold.PLP.Chemscore.Hbond>
0.6383

> <Gold.PLP.Chemscore.CHOScore>
0.0000

> <Gold.PLP.Chemscore.Metal>
0.0000

> <Gold.Chemscore.Hbonds>
donor molecule, donor type, donor heavy atom, donor atom, acceptor molecule, acceptor atom, score
      L1  H     8    22       P1 11449  0.31

> <Gold.PLP.Chemscore.Internal.Correction>
   9.000000E+99

