#       Name:                CT1002167954
#       Creating user name   hitesit
#       Creation time:       Sun Apr 16 22:52:55 2023


#       File generated by GOLD software.
#

@<TRIPOS>MOLECULE
CT1002167954|ligand_prepared|mol2|1|dock6
    29    30     1
SMALL
NO_CHARGES


@<TRIPOS>ATOM
      1 C1         207.6655  32.6731  70.8394 C.3            1 RES1               0.0000
      2 C2         206.9242  33.9303  70.3406 C.ar           1 RES1               0.0000
      3 C3         208.3669  33.0746  72.1336 C.2            1 RES1               0.0000
      4 C4         206.6035  31.5936  71.0163 C.2            1 RES1               0.0000
      5 C5         208.7279  32.1405  69.8498 C.3            1 RES1               0.0000
      6 C6         205.9325  34.5227  71.1166 C.ar           1 RES1               0.0000
      7 C7         207.2222  34.5095  69.1100 C.ar           1 RES1               0.0000
      8 N8         207.8423  32.6147  73.3055 N.am           1 RES1               0.0000
      9 O9         209.3420  33.8158  72.1287 O.2            1 RES1               0.0000
     10 N10        206.3524  31.1418  72.2854 N.am           1 RES1               0.0000
     11 O11        205.9701  31.1421  70.0701 O.2            1 RES1               0.0000
     12 C12        209.4125  30.8643  70.3134 C.3            1 RES1               0.0000
     13 C13        205.2649  35.6549  70.6798 C.ar           1 RES1               0.0000
     14 C14        206.5533  35.6416  68.6749 C.ar           1 RES1               0.0000
     15 C15        206.9019  31.6253  73.4414 C.2            1 RES1               0.0000
     16 C16        205.5751  36.2153  69.4590 C.ar           1 RES1               0.0000
     17 O17        206.5851  31.2045  74.5503 O.2            1 RES1               0.0000
     18 H18        208.2462  31.9515  68.8826 H              1 RES1               0.0000
     19 H19        209.4900  32.9151  69.6992 H              1 RES1               0.0000
     20 H20        205.6730  34.0944  72.0791 H              1 RES1               0.0000
     21 H21        207.9874  34.0746  68.4760 H              1 RES1               0.0000
     22 H22        208.1804  33.0463  74.1597 H              1 RES1               0.0000
     23 H23        205.6950  30.3738  72.3767 H              1 RES1               0.0000
     24 H24        210.1480  30.5339  69.5830 H              1 RES1               0.0000
     25 H25        209.9233  31.0229  71.2609 H              1 RES1               0.0000
     26 H26        208.6869  30.0649  70.4492 H              1 RES1               0.0000
     27 H27        204.4949  36.1018  71.3000 H              1 RES1               0.0000
     28 H28        206.8003  36.0790  67.7132 H              1 RES1               0.0000
     29 H29        205.0523  37.1025  69.1172 H              1 RES1               0.0000
@<TRIPOS>BOND
    1    1    2 1     
    2    1    3 1     
    3    1    4 1     
    4    1    5 1     
    5    2    6 ar    
    6    2    7 ar    
    7    3    8 1     
    8    3    9 2     
    9    4   10 1     
   10    4   11 2     
   11    5   12 1     
   12    5   18 1     
   13    5   19 1     
   14    6   13 ar    
   15    6   20 1     
   16    7   14 ar    
   17    7   21 1     
   18    8   15 1     
   19    8   22 1     
   20   10   15 1     
   21   10   23 1     
   22   12   24 1     
   23   12   25 1     
   24   12   26 1     
   25   13   16 ar    
   26   13   27 1     
   27   14   16 ar    
   28   14   28 1     
   29   15   17 2     
   30   16   29 1     
@<TRIPOS>SUBSTRUCTURE
      1 RES1           1
@<TRIPOS>SET
DONOR_HYDROGENS      STATIC     ATOMS    <user>   **** ""
2 22 23
ATOM$RED        STATIC     ATOMS    COLORGROUP SYSTEM
2 22 23
@<TRIPOS>COMMENT
> <Gold.Version>
2022.3.0

> <Gold.Id.Protein>
unknown|4d1n_clean|pdb

> <Gold.Protein.RotatedTorsions>
[ 16986 16932 16931 16929 ] final   30.52 input   60.00 | X-H torsion
[ 18485 18440 18439 18437 ] final -104.64 input   60.00 | X-H torsion
[ 10113 10082 10081 10078 ] final -142.32 input   59.99 | X-H torsion
[ 18288 18266 18265 18262 ] final  -50.39 input   60.03 | X-H torsion
[ 18643 18615 18613 18610 ] final  -40.11 input   59.98 | X-H torsion
[ 11435 11402 11401 11398 ] final  -54.23 input   60.03 | X-H torsion

> <Gold.Protein.ActiveResidues>
 TRP414  CYS420  VAL421  GLY422  LEU460  SER462  SER482  GLN483  ILE485  ARG486 
 TYR487  ASP500  ASN503  TRP566  TYR567  LEU569  PRO570  ALA571  VAL572  SER573 
 ASN574  PHE589  SER590  GLY591  TRP592  TYR593  MET594  GLY595  THR596  GLU597 
 ILE598  GLY599  VAL600  ARG601  ASP602  TYR603  ARG608  ILE653  VAL654  TRP683 
 PRO687  HEM750  H4B760 

> <Gold.Protein.RotatedAtoms>
  205.7832   44.2781   68.6597 H   0  0  0  0  0  0  0  0  0  0  0  0  # atno 10113 bound_to 10082
  215.8358   29.0028   75.5909 H   0  0  0  0  0  0  0  0  0  0  0  0  # atno 11435 bound_to 11402
  209.1317   32.0862   76.9094 H   0  0  0  0  0  0  0  0  0  0  0  0  # atno 16986 bound_to 16932
  211.0760   42.6108   73.3227 H   0  0  0  0  0  0  0  0  0  0  0  0  # atno 18288 bound_to 18266
  205.6730   32.1354   76.8842 H   0  0  0  0  0  0  0  0  0  0  0  0  # atno 18485 bound_to 18440
  197.8501   30.9996   69.5020 H   0  0  0  0  0  0  0  0  0  0  0  0  # atno 18643 bound_to 18615
  207.8246   31.1249   77.0338 LP  0  0  0  0  0  0  0  0  0  0  0  0  # atno 27195 bound_to 16932
  209.1867   30.7668   77.8602 LP  0  0  0  0  0  0  0  0  0  0  0  0  # atno 27196 bound_to 16932
  206.6241   33.4069   76.5273 LP  0  0  0  0  0  0  0  0  0  0  0  0  # atno 27197 bound_to 18440
  206.3749   32.2335   75.4192 LP  0  0  0  0  0  0  0  0  0  0  0  0  # atno 27198 bound_to 18440
  205.1165   45.6173   69.3005 LP  0  0  0  0  0  0  0  0  0  0  0  0  # atno 27253 bound_to 10082
  205.6263   44.4095   70.2742 LP  0  0  0  0  0  0  0  0  0  0  0  0  # atno 27254 bound_to 10082
  210.5073   42.4193   74.8354 LP  0  0  0  0  0  0  0  0  0  0  0  0  # atno 27255 bound_to 18266
  209.5243   42.9722   73.6544 LP  0  0  0  0  0  0  0  0  0  0  0  0  # atno 27256 bound_to 18266

> <Gold.Score>
     Fitness  S(hb_ext) S(vdw_ext)  S(hb_int)    S(int)      intcor
     41.14       0.93      29.35       0.00      -0.15      -0.76

> <Gold.Goldscore.Fitness>
41.1424

> <Gold.Goldscore.Internal.Vdw>
-0.5298

> <Gold.Goldscore.Internal.Torsion>
-0.3778

> <Gold.Goldscore.External.Vdw>
29.3533

> <Gold.Goldscore.Internal.HBond>
0.0000

> <Gold.Goldscore.External.HBond>
0.9339

> <Gold.Goldscore.Internal.Correction>
-0.7553

> <Gold.Goldscore.Hbonds>
donor molecule, donor type, donor heavy atom, donor atom, acceptor molecule, acceptor atom, score
      P1  H 11448 11499       L1    17  0.38
      P1  H 16835 16897       L1    17  0.02
      L1  H     8    22       P1 11449  0.07

> <Gold.Goldscore.Internal.Vdw.Weighted>
-0.5298

> <Gold.Goldscore.Internal.Torsion.Weighted>
-0.3778

> <Gold.Goldscore.External.Vdw.Weighted>
40.3608

> <Gold.Goldscore.Internal.HBond.Weighted>
0.0000

> <Gold.Goldscore.External.HBond.Weighted>
0.9339

> <Gold.Goldscore.Internal.Correction.Weighted>
-0.7553

> <Gold.Rescore>
     Score     S(PLP)   S(hbond)     S(cho)   S(metal)  DE(clash)   DE(tors)     intcor
     21.84     -21.85       0.61       0.00       0.00       0.00       0.91       ----

> <Gold.PLP.Fitness>
21.8429

> <Gold.PLP.PLP>
-21.8473

> <Gold.PLP.part.hbond>
-3.2526

> <Gold.PLP.part.metal>
0.0000

> <Gold.PLP.part.buried>
11.0945

> <Gold.PLP.part.nonpolar>
-33.6969

> <Gold.PLP.part.repulsive>
3.7262

> <Gold.PLP.ligand.clash>
0.0000

> <Gold.PLP.ligand.torsion>
0.9119

> <Gold.PLP.Chemscore.Hbond>
0.6065

> <Gold.PLP.Chemscore.CHOScore>
0.0000

> <Gold.PLP.Chemscore.Metal>
0.0000

> <Gold.Chemscore.Hbonds>
donor molecule, donor type, donor heavy atom, donor atom, acceptor molecule, acceptor atom, score
      L1  H     8    22       P1 11449  0.39

> <Gold.PLP.Chemscore.Internal.Correction>
   9.000000E+99

