#       Name:                CT1002167954
#       Creating user name   hitesit
#       Creation time:       Sun Apr 16 22:52:53 2023


#       File generated by GOLD software.
#

@<TRIPOS>MOLECULE
CT1002167954|ligand_prepared|mol2|1|dock2
    29    30     1
SMALL
NO_CHARGES


@<TRIPOS>ATOM
      1 C1         207.4070  29.3832  71.7113 C.3            1 RES1               0.0000
      2 C2         207.6210  30.8193  71.1911 C.ar           1 RES1               0.0000
      3 C3         208.7480  28.9295  72.2807 C.2            1 RES1               0.0000
      4 C4         206.2885  29.4658  72.7442 C.2            1 RES1               0.0000
      5 C5         206.9735  28.3804  70.6168 C.3            1 RES1               0.0000
      6 C6         208.2633  31.0450  69.9774 C.ar           1 RES1               0.0000
      7 C7         207.1802  31.9264  71.9113 C.ar           1 RES1               0.0000
      8 N8         208.8687  28.8641  73.6375 N.am           1 RES1               0.0000
      9 O9         209.6974  28.6710  71.5512 O.2            1 RES1               0.0000
     10 N10        206.5979  29.1858  74.0494 N.am           1 RES1               0.0000
     11 O11        205.1458  29.7871  72.4421 O.2            1 RES1               0.0000
     12 C12        206.4607  27.0581  71.1652 C.3            1 RES1               0.0000
     13 C13        208.4553  32.3306  69.4993 C.ar           1 RES1               0.0000
     14 C14        207.3734  33.2113  71.4315 C.ar           1 RES1               0.0000
     15 C15        207.8439  28.9187  74.5477 C.2            1 RES1               0.0000
     16 C16        208.0102  33.4145  70.2257 C.ar           1 RES1               0.0000
     17 O17        208.0514  28.7308  75.7430 O.2            1 RES1               0.0000
     18 H18        206.1846  28.8403  70.0090 H              1 RES1               0.0000
     19 H19        207.8298  28.1820  69.9604 H              1 RES1               0.0000
     20 H20        208.6227  30.2045  69.3930 H              1 RES1               0.0000
     21 H21        206.6776  31.7905  72.8629 H              1 RES1               0.0000
     22 H22        209.8079  28.7657  74.0099 H              1 RES1               0.0000
     23 H23        205.8280  29.1755  74.7108 H              1 RES1               0.0000
     24 H24        206.1702  26.3915  70.3558 H              1 RES1               0.0000
     25 H25        207.2286  26.5610  71.7544 H              1 RES1               0.0000
     26 H26        205.5931  27.2154  71.8027 H              1 RES1               0.0000
     27 H27        208.9583  32.4853  68.5504 H              1 RES1               0.0000
     28 H28        207.0220  34.0614  72.0069 H              1 RES1               0.0000
     29 H29        208.1604  34.4216  69.8508 H              1 RES1               0.0000
@<TRIPOS>BOND
    1    1    2 1     
    2    1    3 1     
    3    1    4 1     
    4    1    5 1     
    5    2    6 ar    
    6    2    7 ar    
    7    3    8 1     
    8    3    9 2     
    9    4   10 1     
   10    4   11 2     
   11    5   12 1     
   12    5   18 1     
   13    5   19 1     
   14    6   13 ar    
   15    6   20 1     
   16    7   14 ar    
   17    7   21 1     
   18    8   15 1     
   19    8   22 1     
   20   10   15 1     
   21   10   23 1     
   22   12   24 1     
   23   12   25 1     
   24   12   26 1     
   25   13   16 ar    
   26   13   27 1     
   27   14   16 ar    
   28   14   28 1     
   29   15   17 2     
   30   16   29 1     
@<TRIPOS>SUBSTRUCTURE
      1 RES1           1
@<TRIPOS>SET
DONOR_HYDROGENS      STATIC     ATOMS    <user>   **** ""
2 22 23
ATOM$RED        STATIC     ATOMS    COLORGROUP SYSTEM
2 22 23
@<TRIPOS>COMMENT
> <Gold.Version>
2022.3.0

> <Gold.Id.Protein>
unknown|4d1n_clean|pdb

> <Gold.Protein.RotatedTorsions>
[ 16986 16932 16931 16929 ] final -103.46 input   60.00 | X-H torsion
[ 18485 18440 18439 18437 ] final    0.45 input   60.00 | X-H torsion
[ 10113 10082 10081 10078 ] final  138.27 input   59.99 | X-H torsion
[ 18288 18266 18265 18262 ] final  -72.02 input   60.03 | X-H torsion
[ 18643 18615 18613 18610 ] final    6.50 input   59.98 | X-H torsion
[ 11435 11402 11401 11398 ] final   54.73 input   60.03 | X-H torsion

> <Gold.Protein.ActiveResidues>
 TRP414  CYS420  VAL421  GLY422  LEU460  SER462  SER482  GLN483  ILE485  ARG486 
 TYR487  ASP500  ASN503  TRP566  TYR567  LEU569  PRO570  ALA571  VAL572  SER573 
 ASN574  PHE589  SER590  GLY591  TRP592  TYR593  MET594  GLY595  THR596  GLU597 
 ILE598  GLY599  VAL600  ARG601  ASP602  TYR603  ARG608  ILE653  VAL654  TRP683 
 PRO687  HEM750  H4B760 

> <Gold.Protein.RotatedAtoms>
  205.2736   45.3587   68.7232 H   0  0  0  0  0  0  0  0  0  0  0  0  # atno 10113 bound_to 10082
  214.5700   29.6780   75.0773 H   0  0  0  0  0  0  0  0  0  0  0  0  # atno 11435 bound_to 11402
  207.8638   30.9500   77.1757 H   0  0  0  0  0  0  0  0  0  0  0  0  # atno 16986 bound_to 16932
  211.2341   42.4978   73.6155 H   0  0  0  0  0  0  0  0  0  0  0  0  # atno 18288 bound_to 18266
  206.2266   32.0605   75.5067 H   0  0  0  0  0  0  0  0  0  0  0  0  # atno 18485 bound_to 18440
  198.5097   30.6742   69.5919 H   0  0  0  0  0  0  0  0  0  0  0  0  # atno 18643 bound_to 18615
  209.3557   30.9182   77.8247 LP  0  0  0  0  0  0  0  0  0  0  0  0  # atno 27195 bound_to 16932
  208.9329   32.1182   76.8010 LP  0  0  0  0  0  0  0  0  0  0  0  0  # atno 27196 bound_to 16932
  205.7263   32.3213   77.0332 LP  0  0  0  0  0  0  0  0  0  0  0  0  # atno 27197 bound_to 18440
  206.7152   33.3945   76.3006 LP  0  0  0  0  0  0  0  0  0  0  0  0  # atno 27198 bound_to 18440
  205.3477   45.0002   70.3089 LP  0  0  0  0  0  0  0  0  0  0  0  0  # atno 27253 bound_to 10082
  205.9081   43.9386   69.2019 LP  0  0  0  0  0  0  0  0  0  0  0  0  # atno 27254 bound_to 10082
  210.1663   42.5133   74.8435 LP  0  0  0  0  0  0  0  0  0  0  0  0  # atno 27255 bound_to 18266
  209.7062   42.9919   73.3516 LP  0  0  0  0  0  0  0  0  0  0  0  0  # atno 27256 bound_to 18266

> <Gold.Score>
     Fitness  S(hb_ext) S(vdw_ext)  S(hb_int)    S(int)      intcor
     34.50       6.28      21.37       0.00      -1.16      -0.76

> <Gold.Goldscore.Fitness>
34.5033

> <Gold.Goldscore.Internal.Vdw>
-1.2890

> <Gold.Goldscore.Internal.Torsion>
-0.6284

> <Gold.Goldscore.External.Vdw>
21.3699

> <Gold.Goldscore.Internal.HBond>
0.0000

> <Gold.Goldscore.External.HBond>
6.2786

> <Gold.Goldscore.Internal.Correction>
-0.7585

> <Gold.Goldscore.Hbonds>
donor molecule, donor type, donor heavy atom, donor atom, acceptor molecule, acceptor atom, score
      P1  H 11671 11743       L1    17  0.31
      P1  H 19323 19359       L1    17  0.10
      L1  H    10    23       P1 18996  0.63

> <Gold.Goldscore.Internal.Vdw.Weighted>
-1.2890

> <Gold.Goldscore.Internal.Torsion.Weighted>
-0.6284

> <Gold.Goldscore.External.Vdw.Weighted>
29.3836

> <Gold.Goldscore.Internal.HBond.Weighted>
0.0000

> <Gold.Goldscore.External.HBond.Weighted>
6.2786

> <Gold.Goldscore.Internal.Correction.Weighted>
-0.7585

> <Gold.Rescore>
     Score     S(PLP)   S(hbond)     S(cho)   S(metal)  DE(clash)   DE(tors)     intcor
     20.37     -14.84       2.46       0.00       0.00       0.62       0.62       ----

> <Gold.PLP.Fitness>
20.3665

> <Gold.PLP.PLP>
-14.8413

> <Gold.PLP.part.hbond>
-4.0000

> <Gold.PLP.part.metal>
0.0000

> <Gold.PLP.part.buried>
11.0659

> <Gold.PLP.part.nonpolar>
-27.6066

> <Gold.PLP.part.repulsive>
4.7309

> <Gold.PLP.ligand.clash>
0.6225

> <Gold.PLP.ligand.torsion>
0.6221

> <Gold.PLP.Chemscore.Hbond>
2.4640

> <Gold.PLP.Chemscore.CHOScore>
0.0000

> <Gold.PLP.Chemscore.Metal>
0.0000

> <Gold.Chemscore.Hbonds>
donor molecule, donor type, donor heavy atom, donor atom, acceptor molecule, acceptor atom, score
      L1  H    10    23       P1 18996  0.70
      P1  H 11671 11743       L1    17  0.35
      P1  H 19323 19359       L1    17  1.00

> <Gold.PLP.Chemscore.Internal.Correction>
   9.000000E+99

