#       Name:                CT1002167954
#       Creating user name   hitesit
#       Creation time:       Sun Apr 16 22:52:58 2023


#       File generated by GOLD software.
#

@<TRIPOS>MOLECULE
CT1002167954|ligand_prepared|mol2|1|dock10
    29    30     1
SMALL
NO_CHARGES


@<TRIPOS>ATOM
      1 C1         206.8608  29.9102  72.1373 C.3            1 RES1               0.0000
      2 C2         206.1951  28.8923  71.1889 C.ar           1 RES1               0.0000
      3 C3         206.0401  29.8977  73.4236 C.2            1 RES1               0.0000
      4 C4         208.3029  29.4479  72.3150 C.2            1 RES1               0.0000
      5 C5         206.8868  31.3545  71.5851 C.3            1 RES1               0.0000
      6 C6         205.1936  29.2929  70.3096 C.ar           1 RES1               0.0000
      7 C7         206.5730  27.5522  71.1800 C.ar           1 RES1               0.0000
      8 N8         206.5840  29.2859  74.5143 N.am           1 RES1               0.0000
      9 O9         204.9162  30.3826  73.4691 O.2            1 RES1               0.0000
     10 N10        208.6942  29.0292  73.5597 N.am           1 RES1               0.0000
     11 O11        209.0992  29.4267  71.3846 O.2            1 RES1               0.0000
     12 C12        207.9057  32.2536  72.2675 C.3            1 RES1               0.0000
     13 C13        204.5937  28.3874  69.4503 C.ar           1 RES1               0.0000
     14 C14        205.9715  26.6483  70.3200 C.ar           1 RES1               0.0000
     15 C15        207.8917  28.8982  74.6602 C.2            1 RES1               0.0000
     16 C16        204.9824  27.0647  69.4546 C.ar           1 RES1               0.0000
     17 O17        208.3045  28.4627  75.7312 O.2            1 RES1               0.0000
     18 H18        207.1106  31.3182  70.5118 H              1 RES1               0.0000
     19 H19        205.8898  31.7963  71.7050 H              1 RES1               0.0000
     20 H20        204.8729  30.3292  70.2936 H              1 RES1               0.0000
     21 H21        207.3482  27.2019  71.8529 H              1 RES1               0.0000
     22 H22        205.9608  29.0992  75.2934 H              1 RES1               0.0000
     23 H23        209.6745  28.7934  73.6768 H              1 RES1               0.0000
     24 H24        207.8824  33.2548  71.8425 H              1 RES1               0.0000
     25 H25        207.6983  32.3327  73.3326 H              1 RES1               0.0000
     26 H26        208.9118  31.8574  72.1466 H              1 RES1               0.0000
     27 H27        203.8148  28.7199  68.7721 H              1 RES1               0.0000
     28 H28        206.2802  25.6081  70.3272 H              1 RES1               0.0000
     29 H29        204.5125  26.3556  68.7810 H              1 RES1               0.0000
@<TRIPOS>BOND
    1    1    2 1     
    2    1    3 1     
    3    1    4 1     
    4    1    5 1     
    5    2    6 ar    
    6    2    7 ar    
    7    3    8 1     
    8    3    9 2     
    9    4   10 1     
   10    4   11 2     
   11    5   12 1     
   12    5   18 1     
   13    5   19 1     
   14    6   13 ar    
   15    6   20 1     
   16    7   14 ar    
   17    7   21 1     
   18    8   15 1     
   19    8   22 1     
   20   10   15 1     
   21   10   23 1     
   22   12   24 1     
   23   12   25 1     
   24   12   26 1     
   25   13   16 ar    
   26   13   27 1     
   27   14   16 ar    
   28   14   28 1     
   29   15   17 2     
   30   16   29 1     
@<TRIPOS>SUBSTRUCTURE
      1 RES1           1
@<TRIPOS>SET
DONOR_HYDROGENS      STATIC     ATOMS    <user>   **** ""
2 22 23
ATOM$RED        STATIC     ATOMS    COLORGROUP SYSTEM
2 22 23
@<TRIPOS>COMMENT
> <Gold.Version>
2022.3.0

> <Gold.Id.Protein>
unknown|4d1n_clean|pdb

> <Gold.Protein.RotatedTorsions>
[ 16986 16932 16931 16929 ] final  174.83 input   60.00 | X-H torsion
[ 18485 18440 18439 18437 ] final  -61.97 input   60.00 | X-H torsion
[ 10113 10082 10081 10078 ] final   38.99 input   59.99 | X-H torsion
[ 18288 18266 18265 18262 ] final  -54.50 input   60.03 | X-H torsion
[ 18643 18615 18613 18610 ] final  176.95 input   59.98 | X-H torsion
[ 11435 11402 11401 11398 ] final   36.14 input   60.03 | X-H torsion

> <Gold.Protein.ActiveResidues>
 TRP414  CYS420  VAL421  GLY422  LEU460  SER462  SER482  GLN483  ILE485  ARG486 
 TYR487  ASP500  ASN503  TRP566  TYR567  LEU569  PRO570  ALA571  VAL572  SER573 
 ASN574  PHE589  SER590  GLY591  TRP592  TYR593  MET594  GLY595  THR596  GLU597 
 ILE598  GLY599  VAL600  ARG601  ASP602  TYR603  ARG608  ILE653  VAL654  TRP683 
 PRO687  HEM750  H4B760 

> <Gold.Protein.RotatedAtoms>
  205.2320   45.2734   70.1471 H   0  0  0  0  0  0  0  0  0  0  0  0  # atno 10113 bound_to 10082
  214.8003   29.7630   75.2539 H   0  0  0  0  0  0  0  0  0  0  0  0  # atno 11435 bound_to 11402
  208.8320   30.5932   77.8351 H   0  0  0  0  0  0  0  0  0  0  0  0  # atno 16986 bound_to 16932
  211.1146   42.5882   73.3728 H   0  0  0  0  0  0  0  0  0  0  0  0  # atno 18288 bound_to 18266
  205.7215   31.8002   76.2931 H   0  0  0  0  0  0  0  0  0  0  0  0  # atno 18485 bound_to 18440
  197.6520   29.8840   68.1350 H   0  0  0  0  0  0  0  0  0  0  0  0  # atno 18643 bound_to 18615
  209.4218   31.9380   77.1340 LP  0  0  0  0  0  0  0  0  0  0  0  0  # atno 27195 bound_to 16932
  207.8914   31.4578   76.8273 LP  0  0  0  0  0  0  0  0  0  0  0  0  # atno 27196 bound_to 16932
  206.2424   33.1509   77.0366 LP  0  0  0  0  0  0  0  0  0  0  0  0  # atno 27197 bound_to 18440
  206.7078   32.8272   75.5052 LP  0  0  0  0  0  0  0  0  0  0  0  0  # atno 27198 bound_to 18440
  205.8982   43.9184   69.5402 LP  0  0  0  0  0  0  0  0  0  0  0  0  # atno 27253 bound_to 10082
  205.3994   45.1064   68.5370 LP  0  0  0  0  0  0  0  0  0  0  0  0  # atno 27254 bound_to 10082
  210.4425   42.4348   74.8470 LP  0  0  0  0  0  0  0  0  0  0  0  0  # atno 27255 bound_to 18266
  209.5503   42.9794   73.5924 LP  0  0  0  0  0  0  0  0  0  0  0  0  # atno 27256 bound_to 18266

> <Gold.Score>
     Fitness  S(hb_ext) S(vdw_ext)  S(hb_int)    S(int)      intcor
     35.92       4.97      23.25       0.00      -1.02      -0.76

> <Gold.Goldscore.Fitness>
35.9250

> <Gold.Goldscore.Internal.Vdw>
-0.8897

> <Gold.Goldscore.Internal.Torsion>
-0.8848

> <Gold.Goldscore.External.Vdw>
23.2520

> <Gold.Goldscore.Internal.HBond>
0.0000

> <Gold.Goldscore.External.HBond>
4.9727

> <Gold.Goldscore.Internal.Correction>
-0.7553

> <Gold.Goldscore.Hbonds>
donor molecule, donor type, donor heavy atom, donor atom, acceptor molecule, acceptor atom, score
      P1  H 11671 11743       L1    17  0.49
      P1  H 19323 19359       L1    17  0.11
      L1  H     8    22       P1 18996  0.23

> <Gold.Goldscore.Internal.Vdw.Weighted>
-0.8897

> <Gold.Goldscore.Internal.Torsion.Weighted>
-0.8848

> <Gold.Goldscore.External.Vdw.Weighted>
31.9714

> <Gold.Goldscore.Internal.HBond.Weighted>
0.0000

> <Gold.Goldscore.External.HBond.Weighted>
4.9727

> <Gold.Goldscore.Internal.Correction.Weighted>
-0.7553

> <Gold.Rescore>
     Score     S(PLP)   S(hbond)     S(cho)   S(metal)  DE(clash)   DE(tors)     intcor
     16.82     -12.07       2.31       0.00       0.00       1.35       0.41       ----

> <Gold.PLP.Fitness>
16.8197

> <Gold.PLP.PLP>
-12.0746

> <Gold.PLP.part.hbond>
-5.2028

> <Gold.PLP.part.metal>
0.0000

> <Gold.PLP.part.buried>
7.1329

> <Gold.PLP.part.nonpolar>
-23.5133

> <Gold.PLP.part.repulsive>
7.0851

> <Gold.PLP.ligand.clash>
1.3544

> <Gold.PLP.ligand.torsion>
0.4095

> <Gold.PLP.Chemscore.Hbond>
2.3062

> <Gold.PLP.Chemscore.CHOScore>
0.0000

> <Gold.PLP.Chemscore.Metal>
0.0000

> <Gold.Chemscore.Hbonds>
donor molecule, donor type, donor heavy atom, donor atom, acceptor molecule, acceptor atom, score
      L1  H     8    22       P1 18996  0.56
      P1  H 11671 11743       L1    17  1.00
      P1  H 19323 19359       L1    17  0.83

> <Gold.PLP.Chemscore.Internal.Correction>
   9.000000E+99

