#       Name:                CT1002167954
#       Creating user name   hitesit
#       Creation time:       Sun Apr 16 22:52:57 2023


#       File generated by GOLD software.
#

@<TRIPOS>MOLECULE
CT1002167954|ligand_prepared|mol2|1|dock9
    29    30     1
SMALL
NO_CHARGES


@<TRIPOS>ATOM
      1 C1         208.5902  28.0958  70.8767 C.3            1 RES1               0.0000
      2 C2         208.4116  29.6258  70.7991 C.ar           1 RES1               0.0000
      3 C3         207.6396  27.6082  71.9661 C.2            1 RES1               0.0000
      4 C4         208.2710  27.5580  69.4861 C.2            1 RES1               0.0000
      5 C5         210.0257  27.6521  71.2426 C.3            1 RES1               0.0000
      6 C6         209.2861  30.4041  70.0466 C.ar           1 RES1               0.0000
      7 C7         207.3774  30.2718  71.4713 C.ar           1 RES1               0.0000
      8 N8         206.5114  26.9508  71.5725 N.am           1 RES1               0.0000
      9 O9         207.8568  27.8317  73.1507 O.2            1 RES1               0.0000
     10 N10        207.1670  26.7587  69.3447 N.am           1 RES1               0.0000
     11 O11        208.9561  27.8328  68.5087 O.2            1 RES1               0.0000
     12 C12        210.1720  26.1515  71.4401 C.3            1 RES1               0.0000
     13 C13        209.1306  31.7780  69.9664 C.ar           1 RES1               0.0000
     14 C14        207.2239  31.6459  71.3899 C.ar           1 RES1               0.0000
     15 C15        206.2554  26.4558  70.3191 C.2            1 RES1               0.0000
     16 C16        208.0993  32.3998  70.6376 C.ar           1 RES1               0.0000
     17 O17        205.2575  25.7745  70.1018 O.2            1 RES1               0.0000
     18 H18        210.7081  27.9715  70.4453 H              1 RES1               0.0000
     19 H19        210.3279  28.1608  72.1663 H              1 RES1               0.0000
     20 H20        210.1050  29.9327  69.5136 H              1 RES1               0.0000
     21 H21        206.6773  29.6990  72.0700 H              1 RES1               0.0000
     22 H22        205.7915  26.8147  72.2750 H              1 RES1               0.0000
     23 H23        207.0103  26.3517  68.4281 H              1 RES1               0.0000
     24 H24        211.1980  25.8942  71.6951 H              1 RES1               0.0000
     25 H25        209.5258  25.8033  72.2432 H              1 RES1               0.0000
     26 H26        209.9037  25.6150  70.5323 H              1 RES1               0.0000
     27 H27        209.8231  32.3669  69.3741 H              1 RES1               0.0000
     28 H28        206.4112  32.1311  71.9203 H              1 RES1               0.0000
     29 H29        207.9776  33.4761  70.5743 H              1 RES1               0.0000
@<TRIPOS>BOND
    1    1    2 1     
    2    1    3 1     
    3    1    4 1     
    4    1    5 1     
    5    2    6 ar    
    6    2    7 ar    
    7    3    8 1     
    8    3    9 2     
    9    4   10 1     
   10    4   11 2     
   11    5   12 1     
   12    5   18 1     
   13    5   19 1     
   14    6   13 ar    
   15    6   20 1     
   16    7   14 ar    
   17    7   21 1     
   18    8   15 1     
   19    8   22 1     
   20   10   15 1     
   21   10   23 1     
   22   12   24 1     
   23   12   25 1     
   24   12   26 1     
   25   13   16 ar    
   26   13   27 1     
   27   14   16 ar    
   28   14   28 1     
   29   15   17 2     
   30   16   29 1     
@<TRIPOS>SUBSTRUCTURE
      1 RES1           1
@<TRIPOS>SET
DONOR_HYDROGENS      STATIC     ATOMS    <user>   **** ""
2 22 23
ATOM$RED        STATIC     ATOMS    COLORGROUP SYSTEM
2 22 23
@<TRIPOS>COMMENT
> <Gold.Version>
2022.3.0

> <Gold.Id.Protein>
unknown|4d1n_clean|pdb

> <Gold.Protein.RotatedTorsions>
[ 16986 16932 16931 16929 ] final   40.00 input   60.00 | X-H torsion
[ 18485 18440 18439 18437 ] final  -24.29 input   60.00 | X-H torsion
[ 10113 10082 10081 10078 ] final  138.81 input   59.99 | X-H torsion
[ 18288 18266 18265 18262 ] final -167.05 input   60.03 | X-H torsion
[ 18643 18615 18613 18610 ] final  143.74 input   59.98 | X-H torsion
[ 11435 11402 11401 11398 ] final -171.00 input   60.03 | X-H torsion

> <Gold.Protein.ActiveResidues>
 TRP414  CYS420  VAL421  GLY422  LEU460  SER462  SER482  GLN483  ILE485  ARG486 
 TYR487  ASP500  ASN503  TRP566  TYR567  LEU569  PRO570  ALA571  VAL572  SER573 
 ASN574  PHE589  SER590  GLY591  TRP592  TYR593  MET594  GLY595  THR596  GLU597 
 ILE598  GLY599  VAL600  ARG601  ASP602  TYR603  ARG608  ILE653  VAL654  TRP683 
 PRO687  HEM750  H4B760 

> <Gold.Protein.RotatedAtoms>
  205.2766   45.3530   68.7172 H   0  0  0  0  0  0  0  0  0  0  0  0  # atno 10113 bound_to 10082
  214.9567   28.0482   74.6646 H   0  0  0  0  0  0  0  0  0  0  0  0  # atno 11435 bound_to 11402
  209.2546   32.0420   76.9923 H   0  0  0  0  0  0  0  0  0  0  0  0  # atno 16986 bound_to 16932
  210.5574   42.4071   74.8160 H   0  0  0  0  0  0  0  0  0  0  0  0  # atno 18288 bound_to 18266
  205.9889   31.8517   75.7533 H   0  0  0  0  0  0  0  0  0  0  0  0  # atno 18485 bound_to 18440
  198.1327   29.6650   68.2206 H   0  0  0  0  0  0  0  0  0  0  0  0  # atno 18643 bound_to 18615
  207.8318   31.2536   76.9461 LP  0  0  0  0  0  0  0  0  0  0  0  0  # atno 27195 bound_to 16932
  209.0556   30.6826   77.8643 LP  0  0  0  0  0  0  0  0  0  0  0  0  # atno 27196 bound_to 16932
  205.8896   32.6694   77.1569 LP  0  0  0  0  0  0  0  0  0  0  0  0  # atno 27197 bound_to 18440
  206.7913   33.2567   75.9286 LP  0  0  0  0  0  0  0  0  0  0  0  0  # atno 27198 bound_to 18440
  205.3442   45.0080   70.3062 LP  0  0  0  0  0  0  0  0  0  0  0  0  # atno 27253 bound_to 10082
  205.9085   43.9367   69.2105 LP  0  0  0  0  0  0  0  0  0  0  0  0  # atno 27254 bound_to 10082
  209.5065   42.9652   73.7058 LP  0  0  0  0  0  0  0  0  0  0  0  0  # atno 27255 bound_to 18266
  211.0473   42.6314   73.2804 LP  0  0  0  0  0  0  0  0  0  0  0  0  # atno 27256 bound_to 18266

> <Gold.Score>
     Fitness  S(hb_ext) S(vdw_ext)  S(hb_int)    S(int)      intcor
     33.43       7.15      20.26       0.00      -1.58      -0.76

> <Gold.Goldscore.Fitness>
33.4257

> <Gold.Goldscore.Internal.Vdw>
-1.9237

> <Gold.Goldscore.Internal.Torsion>
-0.4125

> <Gold.Goldscore.External.Vdw>
20.2585

> <Gold.Goldscore.Internal.HBond>
0.0000

> <Gold.Goldscore.External.HBond>
7.1511

> <Gold.Goldscore.Internal.Correction>
-0.7553

> <Gold.Goldscore.Hbonds>
donor molecule, donor type, donor heavy atom, donor atom, acceptor molecule, acceptor atom, score
      P1  H 19322 19357       L1     9  0.02
      L1  H     8    22       P1 18995  0.18
      L1  H    10    23       P1 27071  0.99

> <Gold.Goldscore.Internal.Vdw.Weighted>
-1.9237

> <Gold.Goldscore.Internal.Torsion.Weighted>
-0.4125

> <Gold.Goldscore.External.Vdw.Weighted>
27.8555

> <Gold.Goldscore.Internal.HBond.Weighted>
0.0000

> <Gold.Goldscore.External.HBond.Weighted>
7.1511

> <Gold.Goldscore.Internal.Correction.Weighted>
-0.7553

> <Gold.Rescore>
     Score     S(PLP)   S(hbond)     S(cho)   S(metal)  DE(clash)   DE(tors)     intcor
     16.41     -15.39       0.84       0.00       0.00       1.19       0.15       ----

> <Gold.PLP.Fitness>
16.4130

> <Gold.PLP.PLP>
-15.3917

> <Gold.PLP.part.hbond>
-4.6251

> <Gold.PLP.part.metal>
0.0000

> <Gold.PLP.part.buried>
-0.7173

> <Gold.PLP.part.nonpolar>
-12.2304

> <Gold.PLP.part.repulsive>
0.5930

> <Gold.PLP.ligand.clash>
1.1947

> <Gold.PLP.ligand.torsion>
0.1460

> <Gold.PLP.Chemscore.Hbond>
0.8360

> <Gold.PLP.Chemscore.CHOScore>
0.0000

> <Gold.PLP.Chemscore.Metal>
0.0000

> <Gold.Chemscore.Hbonds>
donor molecule, donor type, donor heavy atom, donor atom, acceptor molecule, acceptor atom, score
      L1  H     8    22       P1 18995  0.45
      L1  H    10    23       P1 27071  0.39
      P1  H 19322 19357       L1     9  0.56

> <Gold.PLP.Chemscore.Internal.Correction>
   9.000000E+99

