#       Name:                CT1002167954
#       Creating user name   hitesit
#       Creation time:       Sun Apr 16 23:04:03 2023


#       File generated by GOLD software.
#

@<TRIPOS>MOLECULE
CT1002167954|ligand_prepared|mol2|1|dock7
    29    30     1
SMALL
NO_CHARGES


@<TRIPOS>ATOM
      1 C1         143.7483 143.0342 168.7434 C.3            1 RES1               0.0000
      2 C2         144.9590 142.4577 169.5055 C.ar           1 RES1               0.0000
      3 C3         144.2524 144.2770 168.0156 C.2            1 RES1               0.0000
      4 C4         143.2601 141.9259 167.8171 C.2            1 RES1               0.0000
      5 C5         142.5715 143.4447 169.6589 C.3            1 RES1               0.0000
      6 C6         144.8801 141.2133 170.1234 C.ar           1 RES1               0.0000
      7 C7         146.1600 143.1561 169.5968 C.ar           1 RES1               0.0000
      8 N8         144.4232 144.1926 166.6651 N.am           1 RES1               0.0000
      9 O9         144.5336 145.3030 168.6226 O.2            1 RES1               0.0000
     10 N10        143.3674 142.1249 166.4656 N.am           1 RES1               0.0000
     11 O11        142.7989 140.8753 168.2456 O.2            1 RES1               0.0000
     12 C12        141.3799 144.0161 168.9067 C.3            1 RES1               0.0000
     13 C13        145.9636 140.6848 170.8054 C.ar           1 RES1               0.0000
     14 C14        147.2422 142.6259 170.2795 C.ar           1 RES1               0.0000
     15 C15        143.9551 143.1952 165.8480 C.2            1 RES1               0.0000
     16 C16        147.1454 141.3904 170.8835 C.ar           1 RES1               0.0000
     17 O17        144.0624 143.2772 164.6278 O.2            1 RES1               0.0000
     18 H18        142.2423 142.5655 170.2264 H              1 RES1               0.0000
     19 H19        142.9275 144.1934 170.3773 H              1 RES1               0.0000
     20 H20        143.9575 140.6445 170.0747 H              1 RES1               0.0000
     21 H21        146.2587 144.1304 169.1302 H              1 RES1               0.0000
     22 H22        144.9475 144.9402 166.2219 H              1 RES1               0.0000
     23 H23        142.9724 141.4089 165.8642 H              1 RES1               0.0000
     24 H24        140.5830 144.2877 169.5958 H              1 RES1               0.0000
     25 H25        141.6656 144.9068 168.3510 H              1 RES1               0.0000
     26 H26        140.9844 143.2885 168.2010 H              1 RES1               0.0000
     27 H27        145.8818 139.7126 171.2802 H              1 RES1               0.0000
     28 H28        148.1702 143.1850 170.3390 H              1 RES1               0.0000
     29 H29        147.9941 140.9760 171.4175 H              1 RES1               0.0000
@<TRIPOS>BOND
    1    1    2 1     
    2    1    3 1     
    3    1    4 1     
    4    1    5 1     
    5    2    6 ar    
    6    2    7 ar    
    7    3    8 1     
    8    3    9 2     
    9    4   10 1     
   10    4   11 2     
   11    5   12 1     
   12    5   18 1     
   13    5   19 1     
   14    6   13 ar    
   15    6   20 1     
   16    7   14 ar    
   17    7   21 1     
   18    8   15 1     
   19    8   22 1     
   20   10   15 1     
   21   10   23 1     
   22   12   24 1     
   23   12   25 1     
   24   12   26 1     
   25   13   16 ar    
   26   13   27 1     
   27   14   16 ar    
   28   14   28 1     
   29   15   17 2     
   30   16   29 1     
@<TRIPOS>SUBSTRUCTURE
      1 RES1           1
@<TRIPOS>SET
DONOR_HYDROGENS      STATIC     ATOMS    <user>   **** ""
2 22 23
ATOM$RED        STATIC     ATOMS    COLORGROUP SYSTEM
2 22 23
@<TRIPOS>COMMENT
> <Gold.Version>
2022.3.0

> <Gold.Id.Protein>
unknown|7rmh_cavity_clean|pdb

> <Gold.Protein.RotatedTorsions>
[ 2038 2027 2028 2029 ] final  -98.95 input  103.58 | X-H torsion
[ 4286 4281 4282 4283 ] final  156.06 input  108.09 | X-H torsion
[  535  513  514  515 ] final   -7.12 input  105.58 | X-H torsion
[ 2069 2062 2060 2057 ] final -118.95 input   60.00 | X-H torsion
[ 4334 4326 4327 4328 ] final  174.63 input   45.76 | X-H torsion
[ 5109 5102 5100 5097 ] final -144.41 input   60.01 | X-H torsion
[ 2099 2094 2093 2090 ] final  -38.59 input   60.02 | X-H torsion
[ 4376 4367 4366 4364 ] final -114.11 input   59.97 | X-H torsion
[ 1144 1124 1125 1126 ] final  176.17 input   64.50 | X-H torsion
[  249  231  232  233 ] final  146.80 input  105.30 | X-H torsion
[ 3038 3033 3034 3035 ] final  -55.02 input   60.01 | X-H torsion
[  280  266  267  268 ] final  143.09 input  114.84 | X-H torsion
[ 4687 4679 4680 4681 ] final  128.20 input   46.48 | X-H torsion
[ 3081 3072 3071 3069 ] final  126.28 input   59.99 | X-H torsion
[  336  328  327  326 ] final  129.61 input   59.97 | X-H torsion
[ 1444 1430 1431 1432 ] final   78.17 input   54.63 | X-H torsion
[ 3113 3104 3103 3101 ] final  -54.13 input   60.00 | X-H torsion
[ 3627 3618 3617 3615 ] final -157.26 input   60.02 | X-H torsion
[  387  379  378  376 ] final  -89.08 input   59.98 | X-H torsion
[ 1488 1482 1480 1477 ] final  -36.44 input   59.97 | X-H torsion
[  421  400  401  402 ] final  -63.83 input   82.00 | X-H torsion
[  472  463  461  458 ] final -161.26 input   59.98 | X-H torsion
[  478  464  465  466 ] final  162.41 input  115.28 | X-H torsion
[  484  470  468  465 ] final  -14.96 input   59.99 | X-H torsion
[ 14714 2030 2029 2028 ] final  122.95 input    0.00 | X-H torsion
[ 14723 4284 4283 4282 ] final    9.21 input    0.00 | X-H torsion
[ 14732  516  515  514 ] final  -50.49 input    0.00 | X-H torsion
[ 14755 4329 4328 4327 ] final   52.92 input    0.00 | X-H torsion
[ 14795 1127 1126 1125 ] final -159.64 input   -0.00 | X-H torsion
[ 14802  234  233  232 ] final -131.53 input   -0.00 | X-H torsion
[ 14817  269  268  267 ] final  114.48 input    0.00 | X-H torsion
[ 14824 4682 4681 4680 ] final   71.98 input   -0.00 | X-H torsion
[ 14854 1433 1432 1431 ] final  130.83 input   -0.00 | X-H torsion
[ 14913  403  402  401 ] final -149.12 input   -0.00 | X-H torsion
[ 14928  467  466  465 ] final -174.79 input    0.00 | X-H torsion

> <Gold.Protein.ActiveResidues>
 GLU27   LEU30   GLN31   ASP33   LYS34   GLN35   VAL36   TYR37   ARG38   THR40  
 HIS41   ARG42   ILE207  GLU209  HIS220  PHE222  CYS237  PHE238  ASN239  ASP240 
 VAL241  THR242  ARG280  TRP281  ARG283  THR284  ILE285  SER286  ARG356  HIS357 
 TYR358  TYR360  ASP381  ILE382  ILE383  GLN384  ARG385  MET386  HIS387  LEU388 
 ARG389  GLN390  TYR391  GLU392  LEU393  LEU394  ALA56   LYS57   ILE58   TYR59  
 ALA60   MET61   LEU79   ILE80   ILE81   TRP82   ILE93   VAL100  MET101  THR102 
 CYS103  CYS121  ASP312  ASN313  TRP332  ASP333  SER334  PHE335 

> <Gold.Protein.RotatedAtoms>
  122.9376  155.4392  186.7814 H   0  0  0  0  0  0  0  0  0  0  0  0  # atno 249  bound_to 231 
  110.5133  140.2125  101.2770 H   0  0  0  0  0  0  0  0  0  0  0  0  # atno 280  bound_to 266 
  149.7848  144.8266  147.0721 H   0  0  0  0  0  0  0  0  0  0  0  0  # atno 336  bound_to 328 
  148.8080  144.6803  145.7416 H   0  0  0  0  0  0  0  0  0  0  0  0  # atno 337  bound_to 328 
  149.7464  143.4035  146.2249 H   0  0  0  0  0  0  0  0  0  0  0  0  # atno 338  bound_to 328 
  150.4304  136.9148  153.6780 H   0  0  0  0  0  0  0  0  0  0  0  0  # atno 387  bound_to 379 
  136.9500  116.7717  184.1409 H   0  0  0  0  0  0  0  0  0  0  0  0  # atno 421  bound_to 400 
  157.3840  131.9166  151.4075 H   0  0  0  0  0  0  0  0  0  0  0  0  # atno 472  bound_to 463 
  117.0399  143.2019  113.2107 H   0  0  0  0  0  0  0  0  0  0  0  0  # atno 478  bound_to 464 
  116.2449  144.8711  113.4434 H   0  0  0  0  0  0  0  0  0  0  0  0  # atno 484  bound_to 470 
  122.2589  164.1204  166.0079 H   0  0  0  0  0  0  0  0  0  0  0  0  # atno 535  bound_to 513 
  138.2600  146.4673  190.0175 H   0  0  0  0  0  0  0  0  0  0  0  0  # atno 1144 bound_to 1124
  138.5962  160.6673  185.2159 H   0  0  0  0  0  0  0  0  0  0  0  0  # atno 1444 bound_to 1430
  148.1760  129.7565  150.9837 H   0  0  0  0  0  0  0  0  0  0  0  0  # atno 1488 bound_to 1482
  132.3418  163.1128  176.3952 H   0  0  0  0  0  0  0  0  0  0  0  0  # atno 2038 bound_to 2027
  138.8773  130.6900  153.0827 H   0  0  0  0  0  0  0  0  0  0  0  0  # atno 2069 bound_to 2062
  143.1230  124.6148  153.0447 H   0  0  0  0  0  0  0  0  0  0  0  0  # atno 2099 bound_to 2094
  134.3244  124.4430  150.0248 H   0  0  0  0  0  0  0  0  0  0  0  0  # atno 3038 bound_to 3033
  133.7478  124.0365  151.5251 H   0  0  0  0  0  0  0  0  0  0  0  0  # atno 3039 bound_to 3033
  134.8868  119.1875  146.6441 H   0  0  0  0  0  0  0  0  0  0  0  0  # atno 3081 bound_to 3072
  141.0466  120.4869  149.1860 H   0  0  0  0  0  0  0  0  0  0  0  0  # atno 3113 bound_to 3104
  143.9787  134.8126  136.1476 H   0  0  0  0  0  0  0  0  0  0  0  0  # atno 3627 bound_to 3618
  119.6191  120.6691  172.5688 H   0  0  0  0  0  0  0  0  0  0  0  0  # atno 4286 bound_to 4281
  123.6931  116.9906  172.4918 H   0  0  0  0  0  0  0  0  0  0  0  0  # atno 4334 bound_to 4326
  144.4264  140.2266  167.1014 H   0  0  0  0  0  0  0  0  0  0  0  0  # atno 4376 bound_to 4367
  123.6970  123.4586  186.0301 H   0  0  0  0  0  0  0  0  0  0  0  0  # atno 4687 bound_to 4679
  151.6934  147.6631  171.7225 H   0  0  0  0  0  0  0  0  0  0  0  0  # atno 5109 bound_to 5102
  132.6162  163.7703  174.7991 LP  0  0  0  0  0  0  0  0  0  0  0  0  # atno 14713 bound_to 2027
  128.6483  161.1372  173.8136 LP  0  0  0  0  0  0  0  0  0  0  0  0  # atno 14714 bound_to 2030
  129.0762  160.9636  175.4830 LP  0  0  0  0  0  0  0  0  0  0  0  0  # atno 14715 bound_to 2030
  120.8896  119.6052  173.1199 LP  0  0  0  0  0  0  0  0  0  0  0  0  # atno 14722 bound_to 4281
  120.1490  116.5927  170.3580 LP  0  0  0  0  0  0  0  0  0  0  0  0  # atno 14723 bound_to 4284
  121.8611  116.3737  170.5028 LP  0  0  0  0  0  0  0  0  0  0  0  0  # atno 14724 bound_to 4284
  120.7397  163.2725  165.8444 LP  0  0  0  0  0  0  0  0  0  0  0  0  # atno 14731 bound_to 513 
  123.3358  164.7237  163.3746 LP  0  0  0  0  0  0  0  0  0  0  0  0  # atno 14732 bound_to 516 
  124.6729  164.6601  164.4738 LP  0  0  0  0  0  0  0  0  0  0  0  0  # atno 14733 bound_to 516 
  137.3688  130.2641  152.6465 LP  0  0  0  0  0  0  0  0  0  0  0  0  # atno 14736 bound_to 2062
  138.4768  129.1156  152.9932 LP  0  0  0  0  0  0  0  0  0  0  0  0  # atno 14737 bound_to 2062
  124.8691  116.1133  171.5327 LP  0  0  0  0  0  0  0  0  0  0  0  0  # atno 14754 bound_to 4326
  125.4640  114.1205  171.6102 LP  0  0  0  0  0  0  0  0  0  0  0  0  # atno 14755 bound_to 4329
  126.0913  112.9812  172.7541 LP  0  0  0  0  0  0  0  0  0  0  0  0  # atno 14756 bound_to 4329
  150.1441  147.8035  171.2453 LP  0  0  0  0  0  0  0  0  0  0  0  0  # atno 14759 bound_to 5102
  151.3519  148.2948  170.2623 LP  0  0  0  0  0  0  0  0  0  0  0  0  # atno 14760 bound_to 5102
  142.7738  123.6224  151.8032 LP  0  0  0  0  0  0  0  0  0  0  0  0  # atno 14769 bound_to 2094
  143.8131  123.1431  152.9680 LP  0  0  0  0  0  0  0  0  0  0  0  0  # atno 14770 bound_to 2094
  145.8525  139.4492  167.2034 LP  0  0  0  0  0  0  0  0  0  0  0  0  # atno 14775 bound_to 4367
  144.8596  139.1764  165.9361 LP  0  0  0  0  0  0  0  0  0  0  0  0  # atno 14776 bound_to 4367
  138.4077  144.8491  189.3617 LP  0  0  0  0  0  0  0  0  0  0  0  0  # atno 14794 bound_to 1124
  136.5205  143.4837  186.6768 LP  0  0  0  0  0  0  0  0  0  0  0  0  # atno 14795 bound_to 1127
  137.8375  144.3705  187.3690 LP  0  0  0  0  0  0  0  0  0  0  0  0  # atno 14796 bound_to 1127
  121.2799  155.9542  186.5887 LP  0  0  0  0  0  0  0  0  0  0  0  0  # atno 14801 bound_to 231 
  120.5936  159.1278  184.1164 LP  0  0  0  0  0  0  0  0  0  0  0  0  # atno 14802 bound_to 234 
  122.3078  159.3207  183.9604 LP  0  0  0  0  0  0  0  0  0  0  0  0  # atno 14803 bound_to 234 
  132.9464  125.1353  150.5994 LP  0  0  0  0  0  0  0  0  0  0  0  0  # atno 14808 bound_to 3033
  110.3520  140.8552  102.8931 LP  0  0  0  0  0  0  0  0  0  0  0  0  # atno 14816 bound_to 266 
  114.6966  140.7935  104.2780 LP  0  0  0  0  0  0  0  0  0  0  0  0  # atno 14817 bound_to 269 
  113.3375  140.0919  105.0908 LP  0  0  0  0  0  0  0  0  0  0  0  0  # atno 14818 bound_to 269 
  122.3929  122.4447  186.6080 LP  0  0  0  0  0  0  0  0  0  0  0  0  # atno 14823 bound_to 4679
  124.3395  120.7115  187.8234 LP  0  0  0  0  0  0  0  0  0  0  0  0  # atno 14824 bound_to 4682
  125.4735  119.7332  186.9533 LP  0  0  0  0  0  0  0  0  0  0  0  0  # atno 14825 bound_to 4682
  134.0238  120.2159  147.5643 LP  0  0  0  0  0  0  0  0  0  0  0  0  # atno 14843 bound_to 3072
  133.9168  118.6058  147.8145 LP  0  0  0  0  0  0  0  0  0  0  0  0  # atno 14844 bound_to 3072
  140.0351  159.7208  185.5245 LP  0  0  0  0  0  0  0  0  0  0  0  0  # atno 14853 bound_to 1430
  135.7128  157.6783  187.1426 LP  0  0  0  0  0  0  0  0  0  0  0  0  # atno 14854 bound_to 1433
  137.0682  157.4373  188.1937 LP  0  0  0  0  0  0  0  0  0  0  0  0  # atno 14855 bound_to 1433
  141.5204  119.6397  147.8805 LP  0  0  0  0  0  0  0  0  0  0  0  0  # atno 14860 bound_to 3104
  142.4743  120.8211  148.4814 LP  0  0  0  0  0  0  0  0  0  0  0  0  # atno 14861 bound_to 3104
  144.4702  133.3853  136.7542 LP  0  0  0  0  0  0  0  0  0  0  0  0  # atno 14880 bound_to 3618
  144.0355  134.5968  137.7591 LP  0  0  0  0  0  0  0  0  0  0  0  0  # atno 14881 bound_to 3618
  149.9247  138.4616  153.6555 LP  0  0  0  0  0  0  0  0  0  0  0  0  # atno 14898 bound_to 379 
  151.0912  137.9962  154.6992 LP  0  0  0  0  0  0  0  0  0  0  0  0  # atno 14899 bound_to 379 
  149.3871  128.9361  150.2698 LP  0  0  0  0  0  0  0  0  0  0  0  0  # atno 14902 bound_to 1482
  149.6232  129.6475  151.7206 LP  0  0  0  0  0  0  0  0  0  0  0  0  # atno 14903 bound_to 1482
  136.5372  115.2288  183.4278 LP  0  0  0  0  0  0  0  0  0  0  0  0  # atno 14912 bound_to 400 
  140.5840  115.5792  184.4819 LP  0  0  0  0  0  0  0  0  0  0  0  0  # atno 14913 bound_to 403 
  139.1984  116.4740  183.9533 LP  0  0  0  0  0  0  0  0  0  0  0  0  # atno 14914 bound_to 403 
  157.4945  130.8007  150.2282 LP  0  0  0  0  0  0  0  0  0  0  0  0  # atno 14925 bound_to 463 
  156.0474  131.1350  150.9070 LP  0  0  0  0  0  0  0  0  0  0  0  0  # atno 14926 bound_to 463 
  117.8369  142.0177  114.2210 LP  0  0  0  0  0  0  0  0  0  0  0  0  # atno 14927 bound_to 464 
  117.5741  142.7036  118.4387 LP  0  0  0  0  0  0  0  0  0  0  0  0  # atno 14928 bound_to 467 
  117.6332  144.2572  117.6752 LP  0  0  0  0  0  0  0  0  0  0  0  0  # atno 14929 bound_to 467 
  114.8769  145.6120  113.9209 LP  0  0  0  0  0  0  0  0  0  0  0  0  # atno 14930 bound_to 470 
  114.8138  144.1161  113.2690 LP  0  0  0  0  0  0  0  0  0  0  0  0  # atno 14931 bound_to 470 

> <Gold.Score>
     Fitness  S(hb_ext) S(vdw_ext)  S(hb_int)    S(int)      intcor
     32.97       4.48      25.37       0.00      -6.39      -0.76

> <Gold.Goldscore.Fitness>
32.9711

> <Gold.Goldscore.Internal.Vdw>
-6.7812

> <Gold.Goldscore.Internal.Torsion>
-0.3667

> <Gold.Goldscore.External.Vdw>
25.3662

> <Gold.Goldscore.Internal.HBond>
0.0000

> <Gold.Goldscore.External.HBond>
4.4821

> <Gold.Goldscore.Internal.Correction>
-0.7585

> <Gold.Goldscore.Hbonds>
donor molecule, donor type, donor heavy atom, donor atom, acceptor molecule, acceptor atom, score
      P1  H  8313  8323       L1    17  1.00
      P1  H  4367  4376       L1    11  0.24
      L1  H     8    22       P1  4359  1.00

> <Gold.Goldscore.Internal.Vdw.Weighted>
-6.7812

> <Gold.Goldscore.Internal.Torsion.Weighted>
-0.3667

> <Gold.Goldscore.External.Vdw.Weighted>
34.8785

> <Gold.Goldscore.Internal.HBond.Weighted>
0.0000

> <Gold.Goldscore.External.HBond.Weighted>
4.4821

> <Gold.Goldscore.Internal.Correction.Weighted>
-0.7585

> <Gold.Rescore>
     Score     S(PLP)   S(hbond)     S(cho)   S(metal)  DE(clash)   DE(tors)     intcor
     35.48     -31.48       2.03       0.00       0.00       0.17       0.96       ----

> <Gold.PLP.Fitness>
35.4774

> <Gold.PLP.PLP>
-31.4792

> <Gold.PLP.part.hbond>
-5.7028

> <Gold.PLP.part.metal>
0.0000

> <Gold.PLP.part.buried>
1.1348

> <Gold.PLP.part.nonpolar>
-29.3448

> <Gold.PLP.part.repulsive>
0.5246

> <Gold.PLP.ligand.clash>
0.1669

> <Gold.PLP.ligand.torsion>
0.9561

> <Gold.PLP.Chemscore.Hbond>
2.0258

> <Gold.PLP.Chemscore.CHOScore>
0.0000

> <Gold.PLP.Chemscore.Metal>
0.0000

> <Gold.Chemscore.Hbonds>
donor molecule, donor type, donor heavy atom, donor atom, acceptor molecule, acceptor atom, score
      L1  H     8    22       P1  4359  1.00
      P1  H  8313  8323       L1    17  0.84

> <Gold.PLP.Chemscore.Internal.Correction>
   9.000000E+99

#       Name:                CT1002167954
#       Creating user name   hitesit
#       Creation time:       Sun Apr 16 23:02:52 2023


#       File generated by GOLD software.
#

@<TRIPOS>MOLECULE
CT1002167954|ligand_prepared|mol2|1|dock1
    29    30     1
SMALL
NO_CHARGES


@<TRIPOS>ATOM
      1 C1         144.8304 147.9268 170.3425 C.3            1 RES1               0.0000
      2 C2         144.2479 146.8347 169.4223 C.ar           1 RES1               0.0000
      3 C3         146.0851 147.3307 170.9738 C.2            1 RES1               0.0000
      4 C4         145.0959 149.1367 169.4535 C.2            1 RES1               0.0000
      5 C5         143.8725 148.3664 171.4742 C.3            1 RES1               0.0000
      6 C6         144.9752 146.3637 168.3332 C.ar           1 RES1               0.0000
      7 C7         142.9881 146.2876 169.6508 C.ar           1 RES1               0.0000
      8 N8         147.2924 147.7761 170.5220 N.am           1 RES1               0.0000
      9 O9         146.0167 146.4547 171.8271 O.2            1 RES1               0.0000
     10 N10        146.3969 149.5260 169.2708 N.am           1 RES1               0.0000
     11 O11        144.1913 149.7463 168.8963 O.2            1 RES1               0.0000
     12 C12        144.4283 149.4776 172.3508 C.3            1 RES1               0.0000
     13 C13        144.4630 145.3794 167.5044 C.ar           1 RES1               0.0000
     14 C14        142.4776 145.3035 168.8205 C.ar           1 RES1               0.0000
     15 C15        147.5093 148.8820 169.7399 C.2            1 RES1               0.0000
     16 C16        143.2142 144.8483 167.7476 C.ar           1 RES1               0.0000
     17 O17        148.6489 149.2624 169.4878 O.2            1 RES1               0.0000
     18 H18        142.9305 148.7071 171.0270 H              1 RES1               0.0000
     19 H19        143.6490 147.4973 172.1052 H              1 RES1               0.0000
     20 H20        145.9587 146.7714 168.1247 H              1 RES1               0.0000
     21 H21        142.3904 146.6311 170.4882 H              1 RES1               0.0000
     22 H22        148.1094 147.2369 170.7903 H              1 RES1               0.0000
     23 H23        146.5504 150.3747 168.7355 H              1 RES1               0.0000
     24 H24        143.7169 149.7480 173.1283 H              1 RES1               0.0000
     25 H25        145.3526 149.1640 172.8314 H              1 RES1               0.0000
     26 H26        144.6384 150.3666 171.7597 H              1 RES1               0.0000
     27 H27        145.0461 145.0256 166.6605 H              1 RES1               0.0000
     28 H28        141.4941 144.8888 169.0153 H              1 RES1               0.0000
     29 H29        142.8133 144.0770 167.0984 H              1 RES1               0.0000
@<TRIPOS>BOND
    1    1    2 1     
    2    1    3 1     
    3    1    4 1     
    4    1    5 1     
    5    2    6 ar    
    6    2    7 ar    
    7    3    8 1     
    8    3    9 2     
    9    4   10 1     
   10    4   11 2     
   11    5   12 1     
   12    5   18 1     
   13    5   19 1     
   14    6   13 ar    
   15    6   20 1     
   16    7   14 ar    
   17    7   21 1     
   18    8   15 1     
   19    8   22 1     
   20   10   15 1     
   21   10   23 1     
   22   12   24 1     
   23   12   25 1     
   24   12   26 1     
   25   13   16 ar    
   26   13   27 1     
   27   14   16 ar    
   28   14   28 1     
   29   15   17 2     
   30   16   29 1     
@<TRIPOS>SUBSTRUCTURE
      1 RES1           1
@<TRIPOS>SET
DONOR_HYDROGENS      STATIC     ATOMS    <user>   **** ""
2 22 23
ATOM$RED        STATIC     ATOMS    COLORGROUP SYSTEM
2 22 23
@<TRIPOS>COMMENT
> <Gold.Version>
2022.3.0

> <Gold.Id.Protein>
unknown|7rmh_cavity_clean|pdb

> <Gold.Protein.RotatedTorsions>
[ 2038 2027 2028 2029 ] final  -68.56 input  103.58 | X-H torsion
[ 4286 4281 4282 4283 ] final  -19.33 input  108.09 | X-H torsion
[  535  513  514  515 ] final -108.54 input  105.58 | X-H torsion
[ 2069 2062 2060 2057 ] final  145.23 input   60.00 | X-H torsion
[ 4334 4326 4327 4328 ] final  153.49 input   45.76 | X-H torsion
[ 5109 5102 5100 5097 ] final   45.67 input   60.01 | X-H torsion
[ 2099 2094 2093 2090 ] final  172.84 input   60.02 | X-H torsion
[ 4376 4367 4366 4364 ] final -118.63 input   59.97 | X-H torsion
[ 1144 1124 1125 1126 ] final  -51.35 input   64.50 | X-H torsion
[  249  231  232  233 ] final   15.54 input  105.30 | X-H torsion
[ 3038 3033 3034 3035 ] final  169.05 input   60.01 | X-H torsion
[  280  266  267  268 ] final -143.22 input  114.84 | X-H torsion
[ 4687 4679 4680 4681 ] final   -5.99 input   46.48 | X-H torsion
[ 3081 3072 3071 3069 ] final  132.15 input   59.99 | X-H torsion
[  336  328  327  326 ] final  -99.89 input   59.97 | X-H torsion
[ 1444 1430 1431 1432 ] final  -30.52 input   54.63 | X-H torsion
[ 3113 3104 3103 3101 ] final  134.77 input   60.00 | X-H torsion
[ 3627 3618 3617 3615 ] final   55.32 input   60.02 | X-H torsion
[  387  379  378  376 ] final   32.27 input   59.98 | X-H torsion
[ 1488 1482 1480 1477 ] final   93.45 input   59.97 | X-H torsion
[  421  400  401  402 ] final  -60.40 input   82.00 | X-H torsion
[  472  463  461  458 ] final  147.25 input   59.98 | X-H torsion
[  478  464  465  466 ] final   46.34 input  115.28 | X-H torsion
[  484  470  468  465 ] final   -4.76 input   59.99 | X-H torsion
[ 14714 2030 2029 2028 ] final  -82.53 input    0.00 | X-H torsion
[ 14723 4284 4283 4282 ] final  -75.95 input    0.00 | X-H torsion
[ 14732  516  515  514 ] final    2.83 input    0.00 | X-H torsion
[ 14755 4329 4328 4327 ] final  164.60 input    0.00 | X-H torsion
[ 14795 1127 1126 1125 ] final -171.48 input   -0.00 | X-H torsion
[ 14802  234  233  232 ] final   27.38 input   -0.00 | X-H torsion
[ 14817  269  268  267 ] final  105.97 input    0.00 | X-H torsion
[ 14824 4682 4681 4680 ] final -113.58 input   -0.00 | X-H torsion
[ 14854 1433 1432 1431 ] final  -45.91 input   -0.00 | X-H torsion
[ 14913  403  402  401 ] final  139.05 input   -0.00 | X-H torsion
[ 14928  467  466  465 ] final -118.07 input    0.00 | X-H torsion

> <Gold.Protein.ActiveResidues>
 GLU27   LEU30   GLN31   ASP33   LYS34   GLN35   VAL36   TYR37   ARG38   THR40  
 HIS41   ARG42   ILE207  GLU209  HIS220  PHE222  CYS237  PHE238  ASN239  ASP240 
 VAL241  THR242  ARG280  TRP281  ARG283  THR284  ILE285  SER286  ARG356  HIS357 
 TYR358  TYR360  ASP381  ILE382  ILE383  GLN384  ARG385  MET386  HIS387  LEU388 
 ARG389  GLN390  TYR391  GLU392  LEU393  LEU394  ALA56   LYS57   ILE58   TYR59  
 ALA60   MET61   LEU79   ILE80   ILE81   TRP82   ILE93   VAL100  MET101  THR102 
 CYS103  CYS121  ASP312  ASN313  TRP332  ASP333  SER334  PHE335 

> <Gold.Protein.RotatedAtoms>
  121.4979  155.5027  186.0707 H   0  0  0  0  0  0  0  0  0  0  0  0  # atno 249  bound_to 231 
  110.1621  139.6981  102.1321 H   0  0  0  0  0  0  0  0  0  0  0  0  # atno 280  bound_to 266 
  148.8142  144.5246  145.6628 H   0  0  0  0  0  0  0  0  0  0  0  0  # atno 336  bound_to 328 
  149.8443  143.4341  146.3666 H   0  0  0  0  0  0  0  0  0  0  0  0  # atno 337  bound_to 328 
  149.6802  144.9524  147.0087 H   0  0  0  0  0  0  0  0  0  0  0  0  # atno 338  bound_to 328 
  151.0816  138.0163  154.6927 H   0  0  0  0  0  0  0  0  0  0  0  0  # atno 387  bound_to 379 
  136.9976  116.7681  184.1172 H   0  0  0  0  0  0  0  0  0  0  0  0  # atno 421  bound_to 400 
  157.8793  131.5290  150.8916 H   0  0  0  0  0  0  0  0  0  0  0  0  # atno 472  bound_to 463 
  116.9432  141.9240  113.9965 H   0  0  0  0  0  0  0  0  0  0  0  0  # atno 478  bound_to 464 
  116.2237  144.7191  113.3789 H   0  0  0  0  0  0  0  0  0  0  0  0  # atno 484  bound_to 470 
  121.5822  163.0514  166.5273 H   0  0  0  0  0  0  0  0  0  0  0  0  # atno 535  bound_to 513 
  138.1511  144.8352  190.0207 H   0  0  0  0  0  0  0  0  0  0  0  0  # atno 1144 bound_to 1124
  139.2671  159.4236  184.9224 H   0  0  0  0  0  0  0  0  0  0  0  0  # atno 1444 bound_to 1430
  149.7304  129.5602  151.6360 H   0  0  0  0  0  0  0  0  0  0  0  0  # atno 1488 bound_to 1482
  132.4400  162.7467  176.1282 H   0  0  0  0  0  0  0  0  0  0  0  0  # atno 2038 bound_to 2027
  137.5463  130.6123  152.6938 H   0  0  0  0  0  0  0  0  0  0  0  0  # atno 2069 bound_to 2062
  143.0199  123.2381  151.8857 H   0  0  0  0  0  0  0  0  0  0  0  0  # atno 2099 bound_to 2094
  132.8693  125.0532  150.8379 H   0  0  0  0  0  0  0  0  0  0  0  0  # atno 3038 bound_to 3033
  134.1699  124.6218  149.9046 H   0  0  0  0  0  0  0  0  0  0  0  0  # atno 3039 bound_to 3033
  134.8773  119.0939  146.6624 H   0  0  0  0  0  0  0  0  0  0  0  0  # atno 3081 bound_to 3072
  142.2202  120.0412  147.8059 H   0  0  0  0  0  0  0  0  0  0  0  0  # atno 3113 bound_to 3104
  144.4457  133.4310  137.1963 H   0  0  0  0  0  0  0  0  0  0  0  0  # atno 3627 bound_to 3618
  120.9473  119.6329  173.0860 H   0  0  0  0  0  0  0  0  0  0  0  0  # atno 4286 bound_to 4281
  123.5348  116.7066  172.4474 H   0  0  0  0  0  0  0  0  0  0  0  0  # atno 4334 bound_to 4326
  144.4732  140.2370  167.1576 H   0  0  0  0  0  0  0  0  0  0  0  0  # atno 4376 bound_to 4367
  122.9502  122.3631  186.9926 H   0  0  0  0  0  0  0  0  0  0  0  0  # atno 4687 bound_to 4679
  150.3245  148.1200  170.5410 H   0  0  0  0  0  0  0  0  0  0  0  0  # atno 5109 bound_to 5102
  132.5204  164.1278  175.0598 LP  0  0  0  0  0  0  0  0  0  0  0  0  # atno 14713 bound_to 2027
  129.2395  160.6581  175.3220 LP  0  0  0  0  0  0  0  0  0  0  0  0  # atno 14714 bound_to 2030
  128.4850  161.4426  173.9747 LP  0  0  0  0  0  0  0  0  0  0  0  0  # atno 14715 bound_to 2030
  119.5874  120.6211  172.6128 LP  0  0  0  0  0  0  0  0  0  0  0  0  # atno 14722 bound_to 4281
  120.8302  116.2286  171.2394 LP  0  0  0  0  0  0  0  0  0  0  0  0  # atno 14723 bound_to 4284
  121.1800  116.7378  169.6213 LP  0  0  0  0  0  0  0  0  0  0  0  0  # atno 14724 bound_to 4284
  121.4013  164.3176  165.3366 LP  0  0  0  0  0  0  0  0  0  0  0  0  # atno 14731 bound_to 513 
  123.1817  164.8783  164.1205 LP  0  0  0  0  0  0  0  0  0  0  0  0  # atno 14732 bound_to 516 
  124.8270  164.5055  163.7279 LP  0  0  0  0  0  0  0  0  0  0  0  0  # atno 14733 bound_to 516 
  138.0983  129.0936  152.8826 LP  0  0  0  0  0  0  0  0  0  0  0  0  # atno 14736 bound_to 2062
  139.0885  130.3644  153.1490 LP  0  0  0  0  0  0  0  0  0  0  0  0  # atno 14737 bound_to 2062
  125.0210  116.3858  171.5752 LP  0  0  0  0  0  0  0  0  0  0  0  0  # atno 14754 bound_to 4326
  126.6235  113.4094  172.0616 LP  0  0  0  0  0  0  0  0  0  0  0  0  # atno 14755 bound_to 4329
  124.9318  113.6923  172.3027 LP  0  0  0  0  0  0  0  0  0  0  0  0  # atno 14756 bound_to 4329
  151.9359  148.0999  170.7662 LP  0  0  0  0  0  0  0  0  0  0  0  0  # atno 14759 bound_to 5102
  150.9386  147.5383  171.9310 LP  0  0  0  0  0  0  0  0  0  0  0  0  # atno 14760 bound_to 5102
  143.8397  123.4983  153.2671 LP  0  0  0  0  0  0  0  0  0  0  0  0  # atno 14769 bound_to 2094
  142.8510  124.6532  152.6711 LP  0  0  0  0  0  0  0  0  0  0  0  0  # atno 14770 bound_to 2094
  145.8700  139.4018  167.1488 LP  0  0  0  0  0  0  0  0  0  0  0  0  # atno 14775 bound_to 4367
  144.7950  139.2133  165.9341 LP  0  0  0  0  0  0  0  0  0  0  0  0  # atno 14776 bound_to 4367
  138.5122  146.4169  189.3587 LP  0  0  0  0  0  0  0  0  0  0  0  0  # atno 14794 bound_to 1124
  136.5760  143.3528  186.7849 LP  0  0  0  0  0  0  0  0  0  0  0  0  # atno 14795 bound_to 1127
  137.7820  144.5014  187.2609 LP  0  0  0  0  0  0  0  0  0  0  0  0  # atno 14796 bound_to 1127
  122.6911  155.8919  187.2853 LP  0  0  0  0  0  0  0  0  0  0  0  0  # atno 14801 bound_to 231 
  122.2673  159.4047  184.2634 LP  0  0  0  0  0  0  0  0  0  0  0  0  # atno 14802 bound_to 234 
  120.6341  159.0438  183.8134 LP  0  0  0  0  0  0  0  0  0  0  0  0  # atno 14803 bound_to 234 
  133.9634  123.9576  151.3955 LP  0  0  0  0  0  0  0  0  0  0  0  0  # atno 14808 bound_to 3033
  110.6962  141.3593  102.0550 LP  0  0  0  0  0  0  0  0  0  0  0  0  # atno 14816 bound_to 266 
  114.7090  140.6793  104.2205 LP  0  0  0  0  0  0  0  0  0  0  0  0  # atno 14817 bound_to 269 
  113.3251  140.2062  105.1484 LP  0  0  0  0  0  0  0  0  0  0  0  0  # atno 14818 bound_to 269 
  123.1157  123.5049  185.6766 LP  0  0  0  0  0  0  0  0  0  0  0  0  # atno 14823 bound_to 4679
  125.4330  119.6663  186.9840 LP  0  0  0  0  0  0  0  0  0  0  0  0  # atno 14824 bound_to 4682
  124.3800  120.7785  187.7927 LP  0  0  0  0  0  0  0  0  0  0  0  0  # atno 14825 bound_to 4682
  134.0824  120.2456  147.4937 LP  0  0  0  0  0  0  0  0  0  0  0  0  # atno 14843 bound_to 3072
  133.8676  118.6703  147.8666 LP  0  0  0  0  0  0  0  0  0  0  0  0  # atno 14844 bound_to 3072
  139.3843  160.9273  185.8093 LP  0  0  0  0  0  0  0  0  0  0  0  0  # atno 14853 bound_to 1430
  137.0599  157.4821  188.2124 LP  0  0  0  0  0  0  0  0  0  0  0  0  # atno 14854 bound_to 1433
  135.7212  157.6335  187.1238 LP  0  0  0  0  0  0  0  0  0  0  0  0  # atno 14855 bound_to 1433
  141.9627  121.0154  149.0830 LP  0  0  0  0  0  0  0  0  0  0  0  0  # atno 14860 bound_to 3104
  140.8494  119.8946  148.6696 LP  0  0  0  0  0  0  0  0  0  0  0  0  # atno 14861 bound_to 3104
  143.9193  134.9404  137.4983 LP  0  0  0  0  0  0  0  0  0  0  0  0  # atno 14880 bound_to 3618
  144.1158  134.4337  135.9584 LP  0  0  0  0  0  0  0  0  0  0  0  0  # atno 14881 bound_to 3618
  150.4445  136.9023  153.6916 LP  0  0  0  0  0  0  0  0  0  0  0  0  # atno 14898 bound_to 379 
  149.9158  138.4466  153.6417 LP  0  0  0  0  0  0  0  0  0  0  0  0  # atno 14899 bound_to 379 
  148.2076  129.8263  151.1265 LP  0  0  0  0  0  0  0  0  0  0  0  0  # atno 14902 bound_to 1482
  149.2383  128.9549  150.2074 LP  0  0  0  0  0  0  0  0  0  0  0  0  # atno 14903 bound_to 1482
  136.4910  115.2323  183.4507 LP  0  0  0  0  0  0  0  0  0  0  0  0  # atno 14912 bound_to 400 
  140.3218  116.5104  184.7925 LP  0  0  0  0  0  0  0  0  0  0  0  0  # atno 14913 bound_to 403 
  139.4605  115.5428  183.6428 LP  0  0  0  0  0  0  0  0  0  0  0  0  # atno 14914 bound_to 403 
  156.6936  130.6292  150.2339 LP  0  0  0  0  0  0  0  0  0  0  0  0  # atno 14925 bound_to 463 
  156.3496  131.6968  151.4207 LP  0  0  0  0  0  0  0  0  0  0  0  0  # atno 14926 bound_to 463 
  117.9310  143.2620  113.4558 LP  0  0  0  0  0  0  0  0  0  0  0  0  # atno 14927 bound_to 464 
  118.2685  142.9256  118.0574 LP  0  0  0  0  0  0  0  0  0  0  0  0  # atno 14928 bound_to 467 
  116.9387  144.0353  118.0565 LP  0  0  0  0  0  0  0  0  0  0  0  0  # atno 14929 bound_to 467 
  115.0308  145.6775  113.9325 LP  0  0  0  0  0  0  0  0  0  0  0  0  # atno 14930 bound_to 470 
  114.6812  144.2036  113.3224 LP  0  0  0  0  0  0  0  0  0  0  0  0  # atno 14931 bound_to 470 

> <Gold.Score>
     Fitness  S(hb_ext) S(vdw_ext)  S(hb_int)    S(int)      intcor
     32.12       4.71      19.96       0.00      -0.03      -0.77

> <Gold.Goldscore.Fitness>
32.1167

> <Gold.Goldscore.Internal.Vdw>
-0.4239

> <Gold.Goldscore.Internal.Torsion>
-0.3732

> <Gold.Goldscore.External.Vdw>
19.9552

> <Gold.Goldscore.Internal.HBond>
0.0000

> <Gold.Goldscore.External.HBond>
4.7100

> <Gold.Goldscore.Internal.Correction>
-0.7653

> <Gold.Goldscore.Hbonds>
donor molecule, donor type, donor heavy atom, donor atom, acceptor molecule, acceptor atom, score
      P1  H  5110  5116       L1    17  0.79
      P1  H  5102  5109       L1    17  1.00
      L1  H    10    23       P1  4390  0.57

> <Gold.Goldscore.Internal.Vdw.Weighted>
-0.4239

> <Gold.Goldscore.Internal.Torsion.Weighted>
-0.3732

> <Gold.Goldscore.External.Vdw.Weighted>
27.4384

> <Gold.Goldscore.Internal.HBond.Weighted>
0.0000

> <Gold.Goldscore.External.HBond.Weighted>
4.7100

> <Gold.Goldscore.Internal.Correction.Weighted>
-0.7653

> <Gold.Rescore>
     Score     S(PLP)   S(hbond)     S(cho)   S(metal)  DE(clash)   DE(tors)     intcor
     28.09     -22.36       1.93       0.00       0.00       0.00       0.03       ----

> <Gold.PLP.Fitness>
28.0900

> <Gold.PLP.PLP>
-22.3640

> <Gold.PLP.part.hbond>
-1.9192

> <Gold.PLP.part.metal>
0.0000

> <Gold.PLP.part.buried>
-5.7527

> <Gold.PLP.part.nonpolar>
-16.7534

> <Gold.PLP.part.repulsive>
0.7993

> <Gold.PLP.ligand.clash>
0.0000

> <Gold.PLP.ligand.torsion>
0.0264

> <Gold.PLP.Chemscore.Hbond>
1.9263

> <Gold.PLP.Chemscore.CHOScore>
0.0000

> <Gold.PLP.Chemscore.Metal>
0.0000

> <Gold.Chemscore.Hbonds>
donor molecule, donor type, donor heavy atom, donor atom, acceptor molecule, acceptor atom, score
      P1  H  5110  5116       L1    17  0.50
      P1  H  5102  5109       L1    17  0.54

> <Gold.PLP.Chemscore.Internal.Correction>
   9.000000E+99

#       Name:                CT1002167954
#       Creating user name   hitesit
#       Creation time:       Sun Apr 16 23:03:51 2023


#       File generated by GOLD software.
#

@<TRIPOS>MOLECULE
CT1002167954|ligand_prepared|mol2|1|dock6
    29    30     1
SMALL
NO_CHARGES


@<TRIPOS>ATOM
      1 C1         142.7283 128.8246 150.6979 C.3            1 RES1               0.0000
      2 C2         141.7769 127.6107 150.6914 C.ar           1 RES1               0.0000
      3 C3         141.8409 130.0647 150.6433 C.2            1 RES1               0.0000
      4 C4         143.5584 128.7092 151.9716 C.2            1 RES1               0.0000
      5 C5         143.7005 128.8629 149.4959 C.3            1 RES1               0.0000
      6 C6         141.3963 127.0151 149.4926 C.ar           1 RES1               0.0000
      7 C7         141.2746 127.0746 151.8742 C.ar           1 RES1               0.0000
      8 N8         141.7099 130.7987 151.7852 N.am           1 RES1               0.0000
      9 O9         141.2340 130.3718 149.6246 O.2            1 RES1               0.0000
     10 N10        143.3931 129.6697 152.9350 N.am           1 RES1               0.0000
     11 O11        144.3419 127.7862 152.1568 O.2            1 RES1               0.0000
     12 C12        144.7866 129.9200 149.6192 C.3            1 RES1               0.0000
     13 C13        140.5467 125.9213 149.4769 C.ar           1 RES1               0.0000
     14 C14        140.4250 125.9809 151.8562 C.ar           1 RES1               0.0000
     15 C15        142.4841 130.6921 152.9126 C.2            1 RES1               0.0000
     16 C16        140.0609 125.4032 150.6585 C.ar           1 RES1               0.0000
     17 O17        142.3574 131.4844 153.8418 O.2            1 RES1               0.0000
     18 H18        144.1751 127.8792 149.3942 H              1 RES1               0.0000
     19 H19        143.1246 129.0534 148.5819 H              1 RES1               0.0000
     20 H20        141.7665 127.4105 148.5526 H              1 RES1               0.0000
     21 H21        141.5467 127.5134 152.8282 H              1 RES1               0.0000
     22 H22        140.9676 131.4908 151.8025 H              1 RES1               0.0000
     23 H23        144.0043 129.6176 153.7436 H              1 RES1               0.0000
     24 H24        145.4408 129.9040 148.7500 H              1 RES1               0.0000
     25 H25        144.3506 130.9138 149.6970 H              1 RES1               0.0000
     26 H26        145.3949 129.7465 150.5044 H              1 RES1               0.0000
     27 H27        140.2621 125.4712 148.5315 H              1 RES1               0.0000
     28 H28        140.0446 125.5768 152.7885 H              1 RES1               0.0000
     29 H29        139.3957 124.5462 150.6459 H              1 RES1               0.0000
@<TRIPOS>BOND
    1    1    2 1     
    2    1    3 1     
    3    1    4 1     
    4    1    5 1     
    5    2    6 ar    
    6    2    7 ar    
    7    3    8 1     
    8    3    9 2     
    9    4   10 1     
   10    4   11 2     
   11    5   12 1     
   12    5   18 1     
   13    5   19 1     
   14    6   13 ar    
   15    6   20 1     
   16    7   14 ar    
   17    7   21 1     
   18    8   15 1     
   19    8   22 1     
   20   10   15 1     
   21   10   23 1     
   22   12   24 1     
   23   12   25 1     
   24   12   26 1     
   25   13   16 ar    
   26   13   27 1     
   27   14   16 ar    
   28   14   28 1     
   29   15   17 2     
   30   16   29 1     
@<TRIPOS>SUBSTRUCTURE
      1 RES1           1
@<TRIPOS>SET
DONOR_HYDROGENS      STATIC     ATOMS    <user>   **** ""
2 22 23
ATOM$RED        STATIC     ATOMS    COLORGROUP SYSTEM
2 22 23
@<TRIPOS>COMMENT
> <Gold.Version>
2022.3.0

> <Gold.Id.Protein>
unknown|7rmh_cavity_clean|pdb

> <Gold.Protein.RotatedTorsions>
[ 2038 2027 2028 2029 ] final  148.88 input  103.58 | X-H torsion
[ 4286 4281 4282 4283 ] final -173.51 input  108.09 | X-H torsion
[  535  513  514  515 ] final  166.09 input  105.58 | X-H torsion
[ 2069 2062 2060 2057 ] final   65.20 input   60.00 | X-H torsion
[ 4334 4326 4327 4328 ] final   36.51 input   45.76 | X-H torsion
[ 5109 5102 5100 5097 ] final   87.29 input   60.01 | X-H torsion
[ 2099 2094 2093 2090 ] final  -88.46 input   60.02 | X-H torsion
[ 4376 4367 4366 4364 ] final  165.67 input   59.97 | X-H torsion
[ 1144 1124 1125 1126 ] final   59.87 input   64.50 | X-H torsion
[  249  231  232  233 ] final  -16.68 input  105.30 | X-H torsion
[ 3038 3033 3034 3035 ] final -149.32 input   60.01 | X-H torsion
[  280  266  267  268 ] final  -25.64 input  114.84 | X-H torsion
[ 4687 4679 4680 4681 ] final  163.28 input   46.48 | X-H torsion
[ 3081 3072 3071 3069 ] final  157.12 input   59.99 | X-H torsion
[  336  328  327  326 ] final  121.93 input   59.97 | X-H torsion
[ 1444 1430 1431 1432 ] final   20.63 input   54.63 | X-H torsion
[ 3113 3104 3103 3101 ] final  129.40 input   60.00 | X-H torsion
[ 3627 3618 3617 3615 ] final   88.43 input   60.02 | X-H torsion
[  387  379  378  376 ] final   91.01 input   59.98 | X-H torsion
[ 1488 1482 1480 1477 ] final  -81.88 input   59.97 | X-H torsion
[  421  400  401  402 ] final  -61.17 input   82.00 | X-H torsion
[  472  463  461  458 ] final   58.40 input   59.98 | X-H torsion
[  478  464  465  466 ] final   26.78 input  115.28 | X-H torsion
[  484  470  468  465 ] final   87.63 input   59.99 | X-H torsion
[ 14714 2030 2029 2028 ] final   85.41 input    0.00 | X-H torsion
[ 14723 4284 4283 4282 ] final  161.35 input    0.00 | X-H torsion
[ 14732  516  515  514 ] final -162.05 input    0.00 | X-H torsion
[ 14755 4329 4328 4327 ] final   51.52 input    0.00 | X-H torsion
[ 14795 1127 1126 1125 ] final   72.26 input   -0.00 | X-H torsion
[ 14802  234  233  232 ] final   84.85 input   -0.00 | X-H torsion
[ 14817  269  268  267 ] final -147.16 input    0.00 | X-H torsion
[ 14824 4682 4681 4680 ] final   11.88 input   -0.00 | X-H torsion
[ 14854 1433 1432 1431 ] final  160.81 input   -0.00 | X-H torsion
[ 14913  403  402  401 ] final  -12.38 input   -0.00 | X-H torsion
[ 14928  467  466  465 ] final  -70.05 input    0.00 | X-H torsion

> <Gold.Protein.ActiveResidues>
 GLU27   LEU30   GLN31   ASP33   LYS34   GLN35   VAL36   TYR37   ARG38   THR40  
 HIS41   ARG42   ILE207  GLU209  HIS220  PHE222  CYS237  PHE238  ASN239  ASP240 
 VAL241  THR242  ARG280  TRP281  ARG283  THR284  ILE285  SER286  ARG356  HIS357 
 TYR358  TYR360  ASP381  ILE382  ILE383  GLN384  ARG385  MET386  HIS387  LEU388 
 ARG389  GLN390  TYR391  GLU392  LEU393  LEU394  ALA56   LYS57   ILE58   TYR59  
 ALA60   MET61   LEU79   ILE80   ILE81   TRP82   ILE93   VAL100  MET101  THR102 
 CYS103  CYS121  ASP312  ASN313  TRP332  ASP333  SER334  PHE335 

> <Gold.Protein.RotatedAtoms>
  121.2788  155.8095  186.3830 H   0  0  0  0  0  0  0  0  0  0  0  0  # atno 249  bound_to 231 
  110.4118  141.0075  102.8391 H   0  0  0  0  0  0  0  0  0  0  0  0  # atno 280  bound_to 266 
  149.8542  144.7234  147.1028 H   0  0  0  0  0  0  0  0  0  0  0  0  # atno 336  bound_to 328 
  148.8167  144.7867  145.8123 H   0  0  0  0  0  0  0  0  0  0  0  0  # atno 337  bound_to 328 
  149.6684  143.4003  146.1234 H   0  0  0  0  0  0  0  0  0  0  0  0  # atno 338  bound_to 328 
  150.5344  138.6641  154.3394 H   0  0  0  0  0  0  0  0  0  0  0  0  # atno 387  bound_to 379 
  136.9869  116.7692  184.1227 H   0  0  0  0  0  0  0  0  0  0  0  0  # atno 421  bound_to 400 
  157.1913  130.6798  150.1682 H   0  0  0  0  0  0  0  0  0  0  0  0  # atno 472  bound_to 463 
  117.2039  141.8519  114.1290 H   0  0  0  0  0  0  0  0  0  0  0  0  # atno 478  bound_to 464 
  115.0762  144.0277  113.2029 H   0  0  0  0  0  0  0  0  0  0  0  0  # atno 484  bound_to 470 
  120.7002  163.3304  165.7657 H   0  0  0  0  0  0  0  0  0  0  0  0  # atno 535  bound_to 513 
  138.6001  145.5830  188.8314 H   0  0  0  0  0  0  0  0  0  0  0  0  # atno 1144 bound_to 1124
  138.6758  159.9045  184.8383 H   0  0  0  0  0  0  0  0  0  0  0  0  # atno 1444 bound_to 1430
  148.3431  129.3731  150.3933 H   0  0  0  0  0  0  0  0  0  0  0  0  # atno 1488 bound_to 1482
  132.3843  164.3242  175.5678 H   0  0  0  0  0  0  0  0  0  0  0  0  # atno 2038 bound_to 2027
  137.5629  129.4094  152.7214 H   0  0  0  0  0  0  0  0  0  0  0  0  # atno 2069 bound_to 2062
  142.7072  124.5334  152.3786 H   0  0  0  0  0  0  0  0  0  0  0  0  # atno 2099 bound_to 2094
  133.1496  125.1833  150.2316 H   0  0  0  0  0  0  0  0  0  0  0  0  # atno 3038 bound_to 3033
  134.4632  124.1763  150.3264 H   0  0  0  0  0  0  0  0  0  0  0  0  # atno 3039 bound_to 3033
  134.7693  118.7352  146.8160 H   0  0  0  0  0  0  0  0  0  0  0  0  # atno 3081 bound_to 3072
  142.2776  120.1026  147.8312 H   0  0  0  0  0  0  0  0  0  0  0  0  # atno 3113 bound_to 3104
  144.4607  133.4079  136.6638 H   0  0  0  0  0  0  0  0  0  0  0  0  # atno 3627 bound_to 3618
  119.4102  120.3650  172.8483 H   0  0  0  0  0  0  0  0  0  0  0  0  # atno 4286 bound_to 4281
  124.3833  115.7299  171.6402 H   0  0  0  0  0  0  0  0  0  0  0  0  # atno 4334 bound_to 4326
  145.5012  139.8769  167.5235 H   0  0  0  0  0  0  0  0  0  0  0  0  # atno 4376 bound_to 4367
  123.2791  123.5303  185.7020 H   0  0  0  0  0  0  0  0  0  0  0  0  # atno 4687 bound_to 4679
  150.1316  147.8553  171.1198 H   0  0  0  0  0  0  0  0  0  0  0  0  # atno 5109 bound_to 5102
  132.5748  162.5872  175.6072 LP  0  0  0  0  0  0  0  0  0  0  0  0  # atno 14713 bound_to 2027
  128.4318  161.5638  174.0995 LP  0  0  0  0  0  0  0  0  0  0  0  0  # atno 14714 bound_to 2030
  129.2926  160.5370  175.1971 LP  0  0  0  0  0  0  0  0  0  0  0  0  # atno 14715 bound_to 2030
  121.0945  119.9034  172.8458 LP  0  0  0  0  0  0  0  0  0  0  0  0  # atno 14722 bound_to 4281
  121.8100  116.5101  170.1121 LP  0  0  0  0  0  0  0  0  0  0  0  0  # atno 14723 bound_to 4284
  120.2001  116.4563  170.7486 LP  0  0  0  0  0  0  0  0  0  0  0  0  # atno 14724 bound_to 4284
  122.2635  164.0448  166.0811 LP  0  0  0  0  0  0  0  0  0  0  0  0  # atno 14731 bound_to 513 
  124.7409  164.4861  163.5178 LP  0  0  0  0  0  0  0  0  0  0  0  0  # atno 14732 bound_to 516 
  123.2678  164.8977  164.3305 LP  0  0  0  0  0  0  0  0  0  0  0  0  # atno 14733 bound_to 516 
  139.0974  129.7204  153.1638 LP  0  0  0  0  0  0  0  0  0  0  0  0  # atno 14736 bound_to 2062
  138.0727  130.9499  152.8399 LP  0  0  0  0  0  0  0  0  0  0  0  0  # atno 14737 bound_to 2062
  124.2069  117.3230  172.3497 LP  0  0  0  0  0  0  0  0  0  0  0  0  # atno 14754 bound_to 4326
  125.4449  114.1185  171.6191 LP  0  0  0  0  0  0  0  0  0  0  0  0  # atno 14755 bound_to 4329
  126.1105  112.9832  172.7452 LP  0  0  0  0  0  0  0  0  0  0  0  0  # atno 14756 bound_to 4329
  151.4784  148.2792  170.3111 LP  0  0  0  0  0  0  0  0  0  0  0  0  # atno 14759 bound_to 5102
  151.5903  147.6256  171.8033 LP  0  0  0  0  0  0  0  0  0  0  0  0  # atno 14760 bound_to 5102
  143.2425  123.0313  152.0538 LP  0  0  0  0  0  0  0  0  0  0  0  0  # atno 14769 bound_to 2094
  143.7630  123.8160  153.3880 LP  0  0  0  0  0  0  0  0  0  0  0  0  # atno 14770 bound_to 2094
  145.4309  138.9906  166.1604 LP  0  0  0  0  0  0  0  0  0  0  0  0  # atno 14775 bound_to 4367
  144.1987  139.9873  166.5540 LP  0  0  0  0  0  0  0  0  0  0  0  0  # atno 14776 bound_to 4367
  138.0810  145.6986  190.5011 LP  0  0  0  0  0  0  0  0  0  0  0  0  # atno 14794 bound_to 1124
  137.7446  143.6624  187.6229 LP  0  0  0  0  0  0  0  0  0  0  0  0  # atno 14795 bound_to 1127
  136.6134  144.1918  186.4229 LP  0  0  0  0  0  0  0  0  0  0  0  0  # atno 14796 bound_to 1127
  122.9059  155.5912  186.9792 LP  0  0  0  0  0  0  0  0  0  0  0  0  # atno 14801 bound_to 231 
  122.1129  159.1528  183.4848 LP  0  0  0  0  0  0  0  0  0  0  0  0  # atno 14802 bound_to 234 
  120.7885  159.2957  184.5919 LP  0  0  0  0  0  0  0  0  0  0  0  0  # atno 14803 bound_to 234 
  133.3983  124.2686  151.5769 LP  0  0  0  0  0  0  0  0  0  0  0  0  # atno 14808 bound_to 3033
  110.4515  140.0760  101.3621 LP  0  0  0  0  0  0  0  0  0  0  0  0  # atno 14816 bound_to 266 
  113.7851  141.1298  105.1579 LP  0  0  0  0  0  0  0  0  0  0  0  0  # atno 14817 bound_to 269 
  114.2491  139.7557  104.2110 LP  0  0  0  0  0  0  0  0  0  0  0  0  # atno 14818 bound_to 269 
  122.7973  122.3754  186.9255 LP  0  0  0  0  0  0  0  0  0  0  0  0  # atno 14823 bound_to 4679
  124.9620  121.0857  187.3495 LP  0  0  0  0  0  0  0  0  0  0  0  0  # atno 14824 bound_to 4682
  124.8509  119.3590  187.4273 LP  0  0  0  0  0  0  0  0  0  0  0  0  # atno 14825 bound_to 4682
  134.3472  120.2634  147.1844 LP  0  0  0  0  0  0  0  0  0  0  0  0  # atno 14843 bound_to 3072
  133.7115  119.0136  148.0213 LP  0  0  0  0  0  0  0  0  0  0  0  0  # atno 14844 bound_to 3072
  139.9580  160.4608  185.8909 LP  0  0  0  0  0  0  0  0  0  0  0  0  # atno 14853 bound_to 1430
  135.8672  157.2703  187.0409 LP  0  0  0  0  0  0  0  0  0  0  0  0  # atno 14854 bound_to 1433
  136.9139  157.8454  188.2954 LP  0  0  0  0  0  0  0  0  0  0  0  0  # atno 14855 bound_to 1433
  141.8871  121.0044  149.1277 LP  0  0  0  0  0  0  0  0  0  0  0  0  # atno 14860 bound_to 3104
  140.8671  119.8437  148.5994 LP  0  0  0  0  0  0  0  0  0  0  0  0  # atno 14861 bound_to 3104
  144.0642  134.5131  137.7899 LP  0  0  0  0  0  0  0  0  0  0  0  0  # atno 14880 bound_to 3618
  143.9558  134.8843  136.2033 LP  0  0  0  0  0  0  0  0  0  0  0  0  # atno 14881 bound_to 3618
  151.0389  137.1169  154.3667 LP  0  0  0  0  0  0  0  0  0  0  0  0  # atno 14898 bound_to 379 
  149.8723  137.5798  153.3221 LP  0  0  0  0  0  0  0  0  0  0  0  0  # atno 14899 bound_to 379 
  149.8871  129.0423  150.7885 LP  0  0  0  0  0  0  0  0  0  0  0  0  # atno 14902 bound_to 1482
  148.9551  129.9271  151.7961 LP  0  0  0  0  0  0  0  0  0  0  0  0  # atno 14903 bound_to 1482
  136.5014  115.2313  183.4454 LP  0  0  0  0  0  0  0  0  0  0  0  0  # atno 14912 bound_to 400 
  139.2318  115.9028  183.6700 LP  0  0  0  0  0  0  0  0  0  0  0  0  # atno 14913 bound_to 403 
  140.5505  116.1503  184.7653 LP  0  0  0  0  0  0  0  0  0  0  0  0  # atno 14914 bound_to 403 
  156.0838  131.3687  151.1412 LP  0  0  0  0  0  0  0  0  0  0  0  0  # atno 14925 bound_to 463 
  157.6522  131.8124  151.2419 LP  0  0  0  0  0  0  0  0  0  0  0  0  # atno 14926 bound_to 463 
  117.6772  143.3321  113.3268 LP  0  0  0  0  0  0  0  0  0  0  0  0  # atno 14927 bound_to 464 
  118.3991  143.5293  117.7181 LP  0  0  0  0  0  0  0  0  0  0  0  0  # atno 14928 bound_to 467 
  116.8082  143.4316  118.3959 LP  0  0  0  0  0  0  0  0  0  0  0  0  # atno 14929 bound_to 467 
  116.2191  145.1302  113.5583 LP  0  0  0  0  0  0  0  0  0  0  0  0  # atno 14930 bound_to 470 
  114.6486  145.4472  113.8739 LP  0  0  0  0  0  0  0  0  0  0  0  0  # atno 14931 bound_to 470 

> <Gold.Score>
     Fitness  S(hb_ext) S(vdw_ext)  S(hb_int)    S(int)      intcor
     32.00       0.53      23.41       0.00      -0.71      -0.76

> <Gold.Goldscore.Fitness>
32.0009

> <Gold.Goldscore.Internal.Vdw>
-0.9614

> <Gold.Goldscore.Internal.Torsion>
-0.5101

> <Gold.Goldscore.External.Vdw>
23.4083

> <Gold.Goldscore.Internal.HBond>
0.0000

> <Gold.Goldscore.External.HBond>
0.5276

> <Gold.Goldscore.Internal.Correction>
-0.7585

> <Gold.Goldscore.Hbonds>
donor molecule, donor type, donor heavy atom, donor atom, acceptor molecule, acceptor atom, score
      L1  H    10    23       P1  1463  0.26

> <Gold.Goldscore.Internal.Vdw.Weighted>
-0.9614

> <Gold.Goldscore.Internal.Torsion.Weighted>
-0.5101

> <Gold.Goldscore.External.Vdw.Weighted>
32.1864

> <Gold.Goldscore.Internal.HBond.Weighted>
0.0000

> <Gold.Goldscore.External.HBond.Weighted>
0.5276

> <Gold.Goldscore.Internal.Correction.Weighted>
-0.7585

> <Gold.Rescore>
     Score     S(PLP)   S(hbond)     S(cho)   S(metal)  DE(clash)   DE(tors)     intcor
     23.10     -25.28       0.08       0.00       0.00       0.00       1.21       ----

> <Gold.PLP.Fitness>
23.0980

> <Gold.PLP.PLP>
-25.2815

> <Gold.PLP.part.hbond>
-0.9095

> <Gold.PLP.part.metal>
0.0000

> <Gold.PLP.part.buried>
0.5507

> <Gold.PLP.part.nonpolar>
-31.6473

> <Gold.PLP.part.repulsive>
6.7722

> <Gold.PLP.ligand.clash>
0.0000

> <Gold.PLP.ligand.torsion>
1.2146

> <Gold.PLP.Chemscore.Hbond>
0.0819

> <Gold.PLP.Chemscore.CHOScore>
0.0000

> <Gold.PLP.Chemscore.Metal>
0.0000

> <Gold.Chemscore.Hbonds>
donor molecule, donor type, donor heavy atom, donor atom, acceptor molecule, acceptor atom, score
      L1  H    10    23       P1  1463  0.94

> <Gold.PLP.Chemscore.Internal.Correction>
   9.000000E+99

#       Name:                CT1002167954
#       Creating user name   hitesit
#       Creation time:       Sun Apr 16 23:03:40 2023


#       File generated by GOLD software.
#

@<TRIPOS>MOLECULE
CT1002167954|ligand_prepared|mol2|1|dock5
    29    30     1
SMALL
NO_CHARGES


@<TRIPOS>ATOM
      1 C1         145.3462 132.1009 150.5083 C.3            1 RES1               0.0000
      2 C2         144.2027 131.7190 151.4703 C.ar           1 RES1               0.0000
      3 C3         145.7817 133.5103 150.8985 C.2            1 RES1               0.0000
      4 C4         146.4284 131.0425 150.6906 C.2            1 RES1               0.0000
      5 C5         144.9325 132.1095 149.0182 C.3            1 RES1               0.0000
      6 C6         144.3682 131.8307 152.8475 C.ar           1 RES1               0.0000
      7 C7         142.9779 131.2569 150.9961 C.ar           1 RES1               0.0000
      8 N8         146.9678 133.6453 151.5578 N.am           1 RES1               0.0000
      9 O9         145.0762 134.4843 150.6664 O.2            1 RES1               0.0000
     10 N10        147.6294 131.4367 151.2198 N.am           1 RES1               0.0000
     11 O11        146.2462 129.8676 150.3962 O.2            1 RES1               0.0000
     12 C12        146.0309 132.5836 148.0797 C.3            1 RES1               0.0000
     13 C13        143.3454 131.4954 153.7192 C.ar           1 RES1               0.0000
     14 C14        141.9564 130.9219 151.8696 C.ar           1 RES1               0.0000
     15 C15        147.9375 132.6841 151.6902 C.2            1 RES1               0.0000
     16 C16        142.1388 131.0413 153.2309 C.ar           1 RES1               0.0000
     17 O17        149.0214 132.9481 152.2027 O.2            1 RES1               0.0000
     18 H18        144.6344 131.0943 148.7287 H              1 RES1               0.0000
     19 H19        144.0592 132.7625 148.8980 H              1 RES1               0.0000
     20 H20        145.3116 132.1840 153.2504 H              1 RES1               0.0000
     21 H21        142.8122 131.1540 149.9291 H              1 RES1               0.0000
     22 H22        147.1508 134.5440 151.9927 H              1 RES1               0.0000
     23 H23        148.3616 130.7353 151.2673 H              1 RES1               0.0000
     24 H24        145.6884 132.5703 147.0471 H              1 RES1               0.0000
     25 H25        146.3343 133.5998 148.3230 H              1 RES1               0.0000
     26 H26        146.9061 131.9414 148.1547 H              1 RES1               0.0000
     27 H27        143.4945 131.5899 154.7897 H              1 RES1               0.0000
     28 H28        141.0086 130.5643 151.4809 H              1 RES1               0.0000
     29 H29        141.3376 130.7790 153.9139 H              1 RES1               0.0000
@<TRIPOS>BOND
    1    1    2 1     
    2    1    3 1     
    3    1    4 1     
    4    1    5 1     
    5    2    6 ar    
    6    2    7 ar    
    7    3    8 1     
    8    3    9 2     
    9    4   10 1     
   10    4   11 2     
   11    5   12 1     
   12    5   18 1     
   13    5   19 1     
   14    6   13 ar    
   15    6   20 1     
   16    7   14 ar    
   17    7   21 1     
   18    8   15 1     
   19    8   22 1     
   20   10   15 1     
   21   10   23 1     
   22   12   24 1     
   23   12   25 1     
   24   12   26 1     
   25   13   16 ar    
   26   13   27 1     
   27   14   16 ar    
   28   14   28 1     
   29   15   17 2     
   30   16   29 1     
@<TRIPOS>SUBSTRUCTURE
      1 RES1           1
@<TRIPOS>SET
DONOR_HYDROGENS      STATIC     ATOMS    <user>   **** ""
2 22 23
ATOM$RED        STATIC     ATOMS    COLORGROUP SYSTEM
2 22 23
@<TRIPOS>COMMENT
> <Gold.Version>
2022.3.0

> <Gold.Id.Protein>
unknown|7rmh_cavity_clean|pdb

> <Gold.Protein.RotatedTorsions>
[ 2038 2027 2028 2029 ] final   57.17 input  103.58 | X-H torsion
[ 4286 4281 4282 4283 ] final   60.55 input  108.09 | X-H torsion
[  535  513  514  515 ] final -159.24 input  105.58 | X-H torsion
[ 2069 2062 2060 2057 ] final -128.63 input   60.00 | X-H torsion
[ 4334 4326 4327 4328 ] final -109.24 input   45.76 | X-H torsion
[ 5109 5102 5100 5097 ] final -106.75 input   60.01 | X-H torsion
[ 2099 2094 2093 2090 ] final  -13.82 input   60.02 | X-H torsion
[ 4376 4367 4366 4364 ] final -140.43 input   59.97 | X-H torsion
[ 1144 1124 1125 1126 ] final   71.96 input   64.50 | X-H torsion
[  249  231  232  233 ] final  -78.66 input  105.30 | X-H torsion
[ 3038 3033 3034 3035 ] final  148.62 input   60.01 | X-H torsion
[  280  266  267  268 ] final   43.21 input  114.84 | X-H torsion
[ 4687 4679 4680 4681 ] final  146.71 input   46.48 | X-H torsion
[ 3081 3072 3071 3069 ] final  -59.40 input   59.99 | X-H torsion
[  336  328  327  326 ] final  -72.26 input   59.97 | X-H torsion
[ 1444 1430 1431 1432 ] final -118.50 input   54.63 | X-H torsion
[ 3113 3104 3103 3101 ] final  159.30 input   60.00 | X-H torsion
[ 3627 3618 3617 3615 ] final -172.01 input   60.02 | X-H torsion
[  387  379  378  376 ] final  -98.58 input   59.98 | X-H torsion
[ 1488 1482 1480 1477 ] final -158.27 input   59.97 | X-H torsion
[  421  400  401  402 ] final   64.93 input   82.00 | X-H torsion
[  472  463  461  458 ] final -149.66 input   59.98 | X-H torsion
[  478  464  465  466 ] final  157.28 input  115.28 | X-H torsion
[  484  470  468  465 ] final  128.74 input   59.99 | X-H torsion
[ 14714 2030 2029 2028 ] final  -15.75 input    0.00 | X-H torsion
[ 14723 4284 4283 4282 ] final -176.02 input    0.00 | X-H torsion
[ 14732  516  515  514 ] final   33.08 input    0.00 | X-H torsion
[ 14755 4329 4328 4327 ] final  -19.02 input    0.00 | X-H torsion
[ 14795 1127 1126 1125 ] final   77.90 input   -0.00 | X-H torsion
[ 14802  234  233  232 ] final  -52.00 input   -0.00 | X-H torsion
[ 14817  269  268  267 ] final   24.85 input    0.00 | X-H torsion
[ 14824 4682 4681 4680 ] final  -53.02 input   -0.00 | X-H torsion
[ 14854 1433 1432 1431 ] final  -63.22 input   -0.00 | X-H torsion
[ 14913  403  402  401 ] final  -69.12 input   -0.00 | X-H torsion
[ 14928  467  466  465 ] final  -21.91 input    0.00 | X-H torsion

> <Gold.Protein.ActiveResidues>
 GLU27   LEU30   GLN31   ASP33   LYS34   GLN35   VAL36   TYR37   ARG38   THR40  
 HIS41   ARG42   ILE207  GLU209  HIS220  PHE222  CYS237  PHE238  ASN239  ASP240 
 VAL241  THR242  ARG280  TRP281  ARG283  THR284  ILE285  SER286  ARG356  HIS357 
 TYR358  TYR360  ASP381  ILE382  ILE383  GLN384  ARG385  MET386  HIS387  LEU388 
 ARG389  GLN390  TYR391  GLU392  LEU393  LEU394  ALA56   LYS57   ILE58   TYR59  
 ALA60   MET61   LEU79   ILE80   ILE81   TRP82   ILE93   VAL100  MET101  THR102 
 CYS103  CYS121  ASP312  ASN313  TRP332  ASP333  SER334  PHE335 

> <Gold.Protein.RotatedAtoms>
  121.5612  156.2309  187.1364 H   0  0  0  0  0  0  0  0  0  0  0  0  # atno 249  bound_to 231 
  110.7185  141.3603  101.9580 H   0  0  0  0  0  0  0  0  0  0  0  0  # atno 280  bound_to 266 
  148.9300  144.0927  145.5687 H   0  0  0  0  0  0  0  0  0  0  0  0  # atno 336  bound_to 328 
  150.0307  143.6479  146.7246 H   0  0  0  0  0  0  0  0  0  0  0  0  # atno 337  bound_to 328 
  149.3778  145.1703  146.7446 H   0  0  0  0  0  0  0  0  0  0  0  0  # atno 338  bound_to 328 
  150.3208  136.9708  153.5838 H   0  0  0  0  0  0  0  0  0  0  0  0  # atno 387  bound_to 379 
  137.2370  115.4653  183.2629 H   0  0  0  0  0  0  0  0  0  0  0  0  # atno 421  bound_to 400 
  157.2088  131.9423  151.4743 H   0  0  0  0  0  0  0  0  0  0  0  0  # atno 472  bound_to 463 
  116.9743  143.1580  113.2171 H   0  0  0  0  0  0  0  0  0  0  0  0  # atno 478  bound_to 464 
  114.5428  144.3539  113.4063 H   0  0  0  0  0  0  0  0  0  0  0  0  # atno 484  bound_to 470 
  120.9289  163.0462  166.1455 H   0  0  0  0  0  0  0  0  0  0  0  0  # atno 535  bound_to 513 
  138.6090  145.7707  188.8420 H   0  0  0  0  0  0  0  0  0  0  0  0  # atno 1144 bound_to 1124
  140.1064  159.9030  185.6890 H   0  0  0  0  0  0  0  0  0  0  0  0  # atno 1444 bound_to 1430
  149.4107  128.9356  150.2894 H   0  0  0  0  0  0  0  0  0  0  0  0  # atno 1488 bound_to 1482
  132.6664  163.4197  174.7236 H   0  0  0  0  0  0  0  0  0  0  0  0  # atno 2038 bound_to 2027
  138.7615  130.7912  153.0468 H   0  0  0  0  0  0  0  0  0  0  0  0  # atno 2069 bound_to 2062
  143.3830  124.4241  153.2843 H   0  0  0  0  0  0  0  0  0  0  0  0  # atno 2099 bound_to 2094
  132.8782  124.8846  151.1325 H   0  0  0  0  0  0  0  0  0  0  0  0  # atno 3038 bound_to 3033
  133.9177  124.8399  149.8416 H   0  0  0  0  0  0  0  0  0  0  0  0  # atno 3039 bound_to 3033
  133.6664  119.3927  148.0473 H   0  0  0  0  0  0  0  0  0  0  0  0  # atno 3081 bound_to 3072
  141.9067  119.7993  147.7718 H   0  0  0  0  0  0  0  0  0  0  0  0  # atno 3113 bound_to 3104
  144.0481  134.6179  136.0253 H   0  0  0  0  0  0  0  0  0  0  0  0  # atno 3627 bound_to 3618
  120.9064  120.5325  172.3997 H   0  0  0  0  0  0  0  0  0  0  0  0  # atno 4286 bound_to 4281
  124.6906  117.3279  172.1640 H   0  0  0  0  0  0  0  0  0  0  0  0  # atno 4334 bound_to 4326
  144.7430  140.2330  167.3869 H   0  0  0  0  0  0  0  0  0  0  0  0  # atno 4376 bound_to 4367
  123.4983  123.5236  185.8349 H   0  0  0  0  0  0  0  0  0  0  0  0  # atno 4687 bound_to 4679
  151.9855  147.8883  171.2438 H   0  0  0  0  0  0  0  0  0  0  0  0  # atno 5109 bound_to 5102
  132.2992  163.4705  176.4316 LP  0  0  0  0  0  0  0  0  0  0  0  0  # atno 14713 bound_to 2027
  128.7405  161.4668  175.3978 LP  0  0  0  0  0  0  0  0  0  0  0  0  # atno 14714 bound_to 2030
  128.9840  160.6340  173.8988 LP  0  0  0  0  0  0  0  0  0  0  0  0  # atno 14715 bound_to 2030
  119.6275  119.7391  173.2857 LP  0  0  0  0  0  0  0  0  0  0  0  0  # atno 14722 bound_to 4281
  121.8669  116.3983  170.4279 LP  0  0  0  0  0  0  0  0  0  0  0  0  # atno 14723 bound_to 4284
  120.1432  116.5681  170.4329 LP  0  0  0  0  0  0  0  0  0  0  0  0  # atno 14724 bound_to 4284
  122.0399  164.3227  165.7099 LP  0  0  0  0  0  0  0  0  0  0  0  0  # atno 14731 bound_to 513 
  123.4050  164.9029  164.5126 LP  0  0  0  0  0  0  0  0  0  0  0  0  # atno 14732 bound_to 516 
  124.6037  164.4810  163.3357 LP  0  0  0  0  0  0  0  0  0  0  0  0  # atno 14733 bound_to 516 
  137.3419  130.1074  152.6415 LP  0  0  0  0  0  0  0  0  0  0  0  0  # atno 14736 bound_to 2062
  138.6203  129.1704  153.0342 LP  0  0  0  0  0  0  0  0  0  0  0  0  # atno 14737 bound_to 2062
  123.9120  115.7897  171.8472 LP  0  0  0  0  0  0  0  0  0  0  0  0  # atno 14754 bound_to 4326
  124.9336  113.6569  172.3443 LP  0  0  0  0  0  0  0  0  0  0  0  0  # atno 14755 bound_to 4329
  126.6218  113.4448  172.0200 LP  0  0  0  0  0  0  0  0  0  0  0  0  # atno 14756 bound_to 4329
  150.4579  147.6054  171.7276 LP  0  0  0  0  0  0  0  0  0  0  0  0  # atno 14759 bound_to 5102
  150.7441  148.2661  170.2620 LP  0  0  0  0  0  0  0  0  0  0  0  0  # atno 14760 bound_to 5102
  142.6498  123.9960  151.8960 LP  0  0  0  0  0  0  0  0  0  0  0  0  # atno 14769 bound_to 2094
  143.6753  122.9614  152.6339 LP  0  0  0  0  0  0  0  0  0  0  0  0  # atno 14770 bound_to 2094
  145.8809  139.1972  166.8571 LP  0  0  0  0  0  0  0  0  0  0  0  0  # atno 14775 bound_to 4367
  144.5124  139.4219  165.9950 LP  0  0  0  0  0  0  0  0  0  0  0  0  # atno 14776 bound_to 4367
  138.0725  145.5183  190.4909 LP  0  0  0  0  0  0  0  0  0  0  0  0  # atno 14794 bound_to 1124
  137.7032  143.5879  187.6231 LP  0  0  0  0  0  0  0  0  0  0  0  0  # atno 14795 bound_to 1127
  136.6548  144.2663  186.4228 LP  0  0  0  0  0  0  0  0  0  0  0  0  # atno 14796 bound_to 1127
  122.6290  155.1782  186.2407 LP  0  0  0  0  0  0  0  0  0  0  0  0  # atno 14801 bound_to 231 
  121.3413  159.4539  184.8662 LP  0  0  0  0  0  0  0  0  0  0  0  0  # atno 14802 bound_to 234 
  121.5602  158.9945  183.2106 LP  0  0  0  0  0  0  0  0  0  0  0  0  # atno 14803 bound_to 234 
  134.2030  123.9089  151.1676 LP  0  0  0  0  0  0  0  0  0  0  0  0  # atno 14808 bound_to 3033
  110.1509  139.7303  102.2256 LP  0  0  0  0  0  0  0  0  0  0  0  0  # atno 14816 bound_to 266 
  114.1560  139.6990  104.2630 LP  0  0  0  0  0  0  0  0  0  0  0  0  # atno 14817 bound_to 269 
  113.8781  141.1864  105.1058 LP  0  0  0  0  0  0  0  0  0  0  0  0  # atno 14818 bound_to 269 
  122.5853  122.3818  186.7969 LP  0  0  0  0  0  0  0  0  0  0  0  0  # atno 14823 bound_to 4679
  125.5513  120.5271  186.8971 LP  0  0  0  0  0  0  0  0  0  0  0  0  # atno 14824 bound_to 4682
  124.2617  119.9176  187.8796 LP  0  0  0  0  0  0  0  0  0  0  0  0  # atno 14825 bound_to 4682
  134.5838  118.4937  147.0475 LP  0  0  0  0  0  0  0  0  0  0  0  0  # atno 14843 bound_to 3072
  134.5852  120.1215  146.9187 LP  0  0  0  0  0  0  0  0  0  0  0  0  # atno 14844 bound_to 3072
  138.5702  160.4622  185.0656 LP  0  0  0  0  0  0  0  0  0  0  0  0  # atno 14853 bound_to 1430
  137.0789  157.2505  188.0944 LP  0  0  0  0  0  0  0  0  0  0  0  0  # atno 14854 bound_to 1433
  135.7022  157.8652  187.2419 LP  0  0  0  0  0  0  0  0  0  0  0  0  # atno 14855 bound_to 1433
  142.2663  120.9874  148.8234 LP  0  0  0  0  0  0  0  0  0  0  0  0  # atno 14860 bound_to 3104
  140.8617  120.1663  148.9635 LP  0  0  0  0  0  0  0  0  0  0  0  0  # atno 14861 bound_to 3104
  144.4682  133.3818  136.9961 LP  0  0  0  0  0  0  0  0  0  0  0  0  # atno 14880 bound_to 3618
  143.9676  134.7964  137.6404 LP  0  0  0  0  0  0  0  0  0  0  0  0  # atno 14881 bound_to 3618
  149.9955  138.5560  153.7577 LP  0  0  0  0  0  0  0  0  0  0  0  0  # atno 14898 bound_to 379 
  151.1309  137.8454  154.6918 LP  0  0  0  0  0  0  0  0  0  0  0  0  # atno 14899 bound_to 379 
  149.6006  129.6626  151.7333 LP  0  0  0  0  0  0  0  0  0  0  0  0  # atno 14902 bound_to 1482
  148.1671  129.7472  150.9559 LP  0  0  0  0  0  0  0  0  0  0  0  0  # atno 14903 bound_to 1482
  136.2584  116.4979  184.2806 LP  0  0  0  0  0  0  0  0  0  0  0  0  # atno 14912 bound_to 400 
  139.7890  115.3029  183.7531 LP  0  0  0  0  0  0  0  0  0  0  0  0  # atno 14913 bound_to 403 
  139.9933  116.7503  184.6822 LP  0  0  0  0  0  0  0  0  0  0  0  0  # atno 14914 bound_to 403 
  157.6395  130.9017  150.2997 LP  0  0  0  0  0  0  0  0  0  0  0  0  # atno 14925 bound_to 463 
  156.0788  131.0082  150.7682 LP  0  0  0  0  0  0  0  0  0  0  0  0  # atno 14926 bound_to 463 
  117.9007  142.0604  114.2147 LP  0  0  0  0  0  0  0  0  0  0  0  0  # atno 14927 bound_to 464 
  118.0014  144.1016  117.6032 LP  0  0  0  0  0  0  0  0  0  0  0  0  # atno 14928 bound_to 467 
  117.2058  142.8592  118.5107 LP  0  0  0  0  0  0  0  0  0  0  0  0  # atno 14929 bound_to 467 
  116.1576  144.5244  113.2983 LP  0  0  0  0  0  0  0  0  0  0  0  0  # atno 14930 bound_to 470 
  115.2473  145.7245  113.9290 LP  0  0  0  0  0  0  0  0  0  0  0  0  # atno 14931 bound_to 470 

> <Gold.Score>
     Fitness  S(hb_ext) S(vdw_ext)  S(hb_int)    S(int)      intcor
     30.21       4.46      18.77       0.00      -0.07      -0.76

> <Gold.Goldscore.Fitness>
30.2055

> <Gold.Goldscore.Internal.Vdw>
-0.4297

> <Gold.Goldscore.Internal.Torsion>
-0.3970

> <Gold.Goldscore.External.Vdw>
18.7710

> <Gold.Goldscore.Internal.HBond>
0.0000

> <Gold.Goldscore.External.HBond>
4.4635

> <Gold.Goldscore.Internal.Correction>
-0.7585

> <Gold.Goldscore.Hbonds>
donor molecule, donor type, donor heavy atom, donor atom, acceptor molecule, acceptor atom, score
      P1  H   502   530       L1    17  0.01
      P1  H   509   528       L1    17  0.15
      P1  H   512   525       L1    17  0.38
      L1  H    10    23       P1  1482  0.61

> <Gold.Goldscore.Internal.Vdw.Weighted>
-0.4297

> <Gold.Goldscore.Internal.Torsion.Weighted>
-0.3970

> <Gold.Goldscore.External.Vdw.Weighted>
25.8102

> <Gold.Goldscore.Internal.HBond.Weighted>
0.0000

> <Gold.Goldscore.External.HBond.Weighted>
4.4635

> <Gold.Goldscore.Internal.Correction.Weighted>
-0.7585

> <Gold.Rescore>
     Score     S(PLP)   S(hbond)     S(cho)   S(metal)  DE(clash)   DE(tors)     intcor
     26.22     -17.97       2.86       0.00       0.00       0.00       0.17       ----

> <Gold.PLP.Fitness>
26.2217

> <Gold.PLP.PLP>
-17.9736

> <Gold.PLP.part.hbond>
-5.8091

> <Gold.PLP.part.metal>
0.0000

> <Gold.PLP.part.buried>
1.8821

> <Gold.PLP.part.nonpolar>
-19.1896

> <Gold.PLP.part.repulsive>
4.0809

> <Gold.PLP.ligand.clash>
0.0000

> <Gold.PLP.ligand.torsion>
0.1719

> <Gold.PLP.Chemscore.Hbond>
2.8640

> <Gold.PLP.Chemscore.CHOScore>
0.0000

> <Gold.PLP.Chemscore.Metal>
0.0000

> <Gold.Chemscore.Hbonds>
donor molecule, donor type, donor heavy atom, donor atom, acceptor molecule, acceptor atom, score
      L1  H    10    23       P1  1482  1.00
      P1  H   509   528       L1    17  0.52
      P1  H   512   525       L1    17  1.00

> <Gold.PLP.Chemscore.Internal.Correction>
   9.000000E+99

#       Name:                CT1002167954
#       Creating user name   hitesit
#       Creation time:       Sun Apr 16 23:03:28 2023


#       File generated by GOLD software.
#

@<TRIPOS>MOLECULE
CT1002167954|ligand_prepared|mol2|1|dock4
    29    30     1
SMALL
NO_CHARGES


@<TRIPOS>ATOM
      1 C1         145.5046 132.1832 150.6227 C.3            1 RES1               0.0000
      2 C2         144.3550 131.8154 151.5829 C.ar           1 RES1               0.0000
      3 C3         146.1120 133.4768 151.1573 C.2            1 RES1               0.0000
      4 C4         146.4622 130.9968 150.6295 C.2            1 RES1               0.0000
      5 C5         145.0486 132.4207 149.1642 C.3            1 RES1               0.0000
      6 C6         144.5695 131.7605 152.9568 C.ar           1 RES1               0.0000
      7 C7         143.0763 131.5316 151.1107 C.ar           1 RES1               0.0000
      8 N8         147.3258 133.3972 151.7741 N.am           1 RES1               0.0000
      9 O9         145.5172 134.5443 151.0741 O.2            1 RES1               0.0000
     10 N10        147.7166 131.1872 151.1473 N.am           1 RES1               0.0000
     11 O11        146.1363 129.8945 150.2064 O.2            1 RES1               0.0000
     12 C12        146.1538 132.9276 148.2511 C.3            1 RES1               0.0000
     13 C13        143.5423 131.4365 153.8275 C.ar           1 RES1               0.0000
     14 C14        142.0505 131.2075 151.9832 C.ar           1 RES1               0.0000
     15 C15        148.1814 132.3254 151.7479 C.2            1 RES1               0.0000
     16 C16        142.2821 131.1603 153.3414 C.ar           1 RES1               0.0000
     17 O17        149.3039 132.4024 152.2390 O.2            1 RES1               0.0000
     18 H18        144.6592 131.4790 148.7582 H              1 RES1               0.0000
     19 H19        144.2290 133.1499 149.1648 H              1 RES1               0.0000
     20 H20        145.5552 131.9723 153.3576 H              1 RES1               0.0000
     21 H21        142.8712 131.5616 150.0460 H              1 RES1               0.0000
     22 H22        147.6249 134.2098 152.3038 H              1 RES1               0.0000
     23 H23        148.3639 130.4083 151.0784 H              1 RES1               0.0000
     24 H24        145.7805 133.0775 147.2402 H              1 RES1               0.0000
     25 H25        146.5471 133.8759 148.6112 H              1 RES1               0.0000
     26 H26        146.9748 132.2149 148.2070 H              1 RES1               0.0000
     27 H27        143.7301 131.3993 154.8955 H              1 RES1               0.0000
     28 H28        141.0604 130.9903 151.5961 H              1 RES1               0.0000
     29 H29        141.4774 130.9068 154.0237 H              1 RES1               0.0000
@<TRIPOS>BOND
    1    1    2 1     
    2    1    3 1     
    3    1    4 1     
    4    1    5 1     
    5    2    6 ar    
    6    2    7 ar    
    7    3    8 1     
    8    3    9 2     
    9    4   10 1     
   10    4   11 2     
   11    5   12 1     
   12    5   18 1     
   13    5   19 1     
   14    6   13 ar    
   15    6   20 1     
   16    7   14 ar    
   17    7   21 1     
   18    8   15 1     
   19    8   22 1     
   20   10   15 1     
   21   10   23 1     
   22   12   24 1     
   23   12   25 1     
   24   12   26 1     
   25   13   16 ar    
   26   13   27 1     
   27   14   16 ar    
   28   14   28 1     
   29   15   17 2     
   30   16   29 1     
@<TRIPOS>SUBSTRUCTURE
      1 RES1           1
@<TRIPOS>SET
DONOR_HYDROGENS      STATIC     ATOMS    <user>   **** ""
2 22 23
ATOM$RED        STATIC     ATOMS    COLORGROUP SYSTEM
2 22 23
@<TRIPOS>COMMENT
> <Gold.Version>
2022.3.0

> <Gold.Id.Protein>
unknown|7rmh_cavity_clean|pdb

> <Gold.Protein.RotatedTorsions>
[ 2038 2027 2028 2029 ] final -169.44 input  103.58 | X-H torsion
[ 4286 4281 4282 4283 ] final -146.40 input  108.09 | X-H torsion
[  535  513  514  515 ] final  -40.85 input  105.58 | X-H torsion
[ 2069 2062 2060 2057 ] final -157.78 input   60.00 | X-H torsion
[ 4334 4326 4327 4328 ] final  -17.07 input   45.76 | X-H torsion
[ 5109 5102 5100 5097 ] final  153.28 input   60.01 | X-H torsion
[ 2099 2094 2093 2090 ] final   79.92 input   60.02 | X-H torsion
[ 4376 4367 4366 4364 ] final -144.91 input   59.97 | X-H torsion
[ 1144 1124 1125 1126 ] final  139.40 input   64.50 | X-H torsion
[  249  231  232  233 ] final  132.61 input  105.30 | X-H torsion
[ 3038 3033 3034 3035 ] final -119.86 input   60.01 | X-H torsion
[  280  266  267  268 ] final   10.97 input  114.84 | X-H torsion
[ 4687 4679 4680 4681 ] final  -31.85 input   46.48 | X-H torsion
[ 3081 3072 3071 3069 ] final   80.93 input   59.99 | X-H torsion
[  336  328  327  326 ] final -149.41 input   59.97 | X-H torsion
[ 1444 1430 1431 1432 ] final   48.11 input   54.63 | X-H torsion
[ 3113 3104 3103 3101 ] final -123.17 input   60.00 | X-H torsion
[ 3627 3618 3617 3615 ] final   79.09 input   60.02 | X-H torsion
[  387  379  378  376 ] final  103.35 input   59.98 | X-H torsion
[ 1488 1482 1480 1477 ] final  156.48 input   59.97 | X-H torsion
[  421  400  401  402 ] final   19.99 input   82.00 | X-H torsion
[  472  463  461  458 ] final  -52.56 input   59.98 | X-H torsion
[  478  464  465  466 ] final  -87.03 input  115.28 | X-H torsion
[  484  470  468  465 ] final -130.40 input   59.99 | X-H torsion
[ 14714 2030 2029 2028 ] final -105.68 input    0.00 | X-H torsion
[ 14723 4284 4283 4282 ] final  153.12 input    0.00 | X-H torsion
[ 14732  516  515  514 ] final  -97.68 input    0.00 | X-H torsion
[ 14755 4329 4328 4327 ] final  131.44 input    0.00 | X-H torsion
[ 14795 1127 1126 1125 ] final  -42.60 input   -0.00 | X-H torsion
[ 14802  234  233  232 ] final  -75.97 input   -0.00 | X-H torsion
[ 14817  269  268  267 ] final   42.29 input    0.00 | X-H torsion
[ 14824 4682 4681 4680 ] final   52.22 input   -0.00 | X-H torsion
[ 14854 1433 1432 1431 ] final   37.34 input   -0.00 | X-H torsion
[ 14913  403  402  401 ] final  176.47 input   -0.00 | X-H torsion
[ 14928  467  466  465 ] final  -81.59 input    0.00 | X-H torsion

> <Gold.Protein.ActiveResidues>
 GLU27   LEU30   GLN31   ASP33   LYS34   GLN35   VAL36   TYR37   ARG38   THR40  
 HIS41   ARG42   ILE207  GLU209  HIS220  PHE222  CYS237  PHE238  ASN239  ASP240 
 VAL241  THR242  ARG280  TRP281  ARG283  THR284  ILE285  SER286  ARG356  HIS357 
 TYR358  TYR360  ASP381  ILE382  ILE383  GLN384  ARG385  MET386  HIS387  LEU388 
 ARG389  GLN390  TYR391  GLU392  LEU393  LEU394  ALA56   LYS57   ILE58   TYR59  
 ALA60   MET61   LEU79   ILE80   ILE81   TRP82   ILE93   VAL100  MET101  THR102 
 CYS103  CYS121  ASP312  ASN313  TRP332  ASP333  SER334  PHE335 

> <Gold.Protein.RotatedAtoms>
  122.8956  155.3271  186.5994 H   0  0  0  0  0  0  0  0  0  0  0  0  # atno 249  bound_to 231 
  110.6036  141.3325  102.4335 H   0  0  0  0  0  0  0  0  0  0  0  0  # atno 280  bound_to 266 
  148.9640  145.1138  146.1846 H   0  0  0  0  0  0  0  0  0  0  0  0  # atno 336  bound_to 328 
  149.3247  143.5510  145.7684 H   0  0  0  0  0  0  0  0  0  0  0  0  # atno 337  bound_to 328 
  150.0502  144.2462  147.0855 H   0  0  0  0  0  0  0  0  0  0  0  0  # atno 338  bound_to 328 
  150.3903  138.7006  154.2038 H   0  0  0  0  0  0  0  0  0  0  0  0  # atno 387  bound_to 379 
  137.5600  116.0341  183.4418 H   0  0  0  0  0  0  0  0  0  0  0  0  # atno 421  bound_to 400 
  156.0592  131.2666  151.0368 H   0  0  0  0  0  0  0  0  0  0  0  0  # atno 472  bound_to 463 
  118.2884  142.8301  113.8623 H   0  0  0  0  0  0  0  0  0  0  0  0  # atno 478  bound_to 464 
  114.9471  145.6381  113.9267 H   0  0  0  0  0  0  0  0  0  0  0  0  # atno 484  bound_to 470 
  122.2671  163.7342  166.3449 H   0  0  0  0  0  0  0  0  0  0  0  0  # atno 535  bound_to 513 
  138.4414  146.5071  189.4854 H   0  0  0  0  0  0  0  0  0  0  0  0  # atno 1144 bound_to 1124
  138.5413  160.2824  184.9689 H   0  0  0  0  0  0  0  0  0  0  0  0  # atno 1444 bound_to 1430
  149.8909  129.0523  150.8141 H   0  0  0  0  0  0  0  0  0  0  0  0  # atno 1488 bound_to 1482
  132.2847  164.1011  176.1476 H   0  0  0  0  0  0  0  0  0  0  0  0  # atno 2038 bound_to 2027
  138.3389  130.9557  152.9197 H   0  0  0  0  0  0  0  0  0  0  0  0  # atno 2069 bound_to 2062
  143.8122  123.1616  152.9852 H   0  0  0  0  0  0  0  0  0  0  0  0  # atno 2099 bound_to 2094
  133.5211  125.0761  149.9358 H   0  0  0  0  0  0  0  0  0  0  0  0  # atno 3038 bound_to 3033
  134.4290  123.9615  150.7617 H   0  0  0  0  0  0  0  0  0  0  0  0  # atno 3039 bound_to 3033
  134.7495  119.8888  146.7490 H   0  0  0  0  0  0  0  0  0  0  0  0  # atno 3081 bound_to 3072
  140.9427  119.7446  148.4358 H   0  0  0  0  0  0  0  0  0  0  0  0  # atno 3113 bound_to 3104
  144.4668  133.3847  136.8144 H   0  0  0  0  0  0  0  0  0  0  0  0  # atno 3627 bound_to 3618
  119.4211  120.0369  173.0995 H   0  0  0  0  0  0  0  0  0  0  0  0  # atno 4286 bound_to 4281
  125.0063  116.2350  171.5586 H   0  0  0  0  0  0  0  0  0  0  0  0  # atno 4334 bound_to 4326
  144.8052  140.2211  167.4235 H   0  0  0  0  0  0  0  0  0  0  0  0  # atno 4376 bound_to 4367
  122.5951  122.3451  186.8138 H   0  0  0  0  0  0  0  0  0  0  0  0  # atno 4687 bound_to 4679
  150.7436  147.5503  171.8761 H   0  0  0  0  0  0  0  0  0  0  0  0  # atno 5109 bound_to 5102
  132.6720  162.8050  175.0408 LP  0  0  0  0  0  0  0  0  0  0  0  0  # atno 14713 bound_to 2027
  129.3248  160.4454  175.0606 LP  0  0  0  0  0  0  0  0  0  0  0  0  # atno 14714 bound_to 2030
  128.3997  161.6553  174.2360 LP  0  0  0  0  0  0  0  0  0  0  0  0  # atno 14715 bound_to 2030
  121.0838  120.2250  172.5996 LP  0  0  0  0  0  0  0  0  0  0  0  0  # atno 14722 bound_to 4281
  121.7575  116.5506  170.0070 LP  0  0  0  0  0  0  0  0  0  0  0  0  # atno 14723 bound_to 4284
  120.2526  116.4157  170.8538 LP  0  0  0  0  0  0  0  0  0  0  0  0  # atno 14724 bound_to 4284
  120.7316  163.6500  165.5149 LP  0  0  0  0  0  0  0  0  0  0  0  0  # atno 14731 bound_to 513 
  123.9373  164.5604  163.0708 LP  0  0  0  0  0  0  0  0  0  0  0  0  # atno 14732 bound_to 516 
  124.0714  164.8234  164.7775 LP  0  0  0  0  0  0  0  0  0  0  0  0  # atno 14733 bound_to 516 
  137.4151  129.6396  152.6719 LP  0  0  0  0  0  0  0  0  0  0  0  0  # atno 14736 bound_to 2062
  138.9730  129.4724  153.1320 LP  0  0  0  0  0  0  0  0  0  0  0  0  # atno 14737 bound_to 2062
  123.6091  116.8384  172.4281 LP  0  0  0  0  0  0  0  0  0  0  0  0  # atno 14754 bound_to 4326
  126.4851  113.7369  171.7185 LP  0  0  0  0  0  0  0  0  0  0  0  0  # atno 14755 bound_to 4329
  125.0703  113.3648  172.6459 LP  0  0  0  0  0  0  0  0  0  0  0  0  # atno 14756 bound_to 4329
  150.4601  148.1888  170.4066 LP  0  0  0  0  0  0  0  0  0  0  0  0  # atno 14759 bound_to 5102
  151.9924  148.0231  170.9462 LP  0  0  0  0  0  0  0  0  0  0  0  0  # atno 14760 bound_to 5102
  143.1087  124.6284  153.0288 LP  0  0  0  0  0  0  0  0  0  0  0  0  # atno 14769 bound_to 2094
  142.7843  123.6002  151.8023 LP  0  0  0  0  0  0  0  0  0  0  0  0  # atno 14770 bound_to 2094
  145.8681  139.1618  166.7937 LP  0  0  0  0  0  0  0  0  0  0  0  0  # atno 14775 bound_to 4367
  144.4625  139.4694  166.0214 LP  0  0  0  0  0  0  0  0  0  0  0  0  # atno 14776 bound_to 4367
  138.2334  144.8109  189.8729 LP  0  0  0  0  0  0  0  0  0  0  0  0  # atno 14794 bound_to 1124
  137.2981  144.7379  186.7428 LP  0  0  0  0  0  0  0  0  0  0  0  0  # atno 14795 bound_to 1127
  137.0599  143.1163  187.3030 LP  0  0  0  0  0  0  0  0  0  0  0  0  # atno 14796 bound_to 1127
  121.3211  156.0641  186.7671 LP  0  0  0  0  0  0  0  0  0  0  0  0  # atno 14801 bound_to 231 
  121.0048  159.3770  184.7649 LP  0  0  0  0  0  0  0  0  0  0  0  0  # atno 14802 bound_to 234 
  121.8967  159.0714  183.3119 LP  0  0  0  0  0  0  0  0  0  0  0  0  # atno 14803 bound_to 234 
  133.0661  124.5857  151.4394 LP  0  0  0  0  0  0  0  0  0  0  0  0  # atno 14808 bound_to 3033
  110.2635  139.7574  101.7596 LP  0  0  0  0  0  0  0  0  0  0  0  0  # atno 14816 bound_to 266 
  114.3530  139.8398  104.1614 LP  0  0  0  0  0  0  0  0  0  0  0  0  # atno 14817 bound_to 269 
  113.6811  141.0457  105.2075 LP  0  0  0  0  0  0  0  0  0  0  0  0  # atno 14818 bound_to 269 
  123.4593  123.5224  185.8496 LP  0  0  0  0  0  0  0  0  0  0  0  0  # atno 14823 bound_to 4679
  124.5048  120.9243  187.6980 LP  0  0  0  0  0  0  0  0  0  0  0  0  # atno 14824 bound_to 4682
  125.3082  119.5204  187.0787 LP  0  0  0  0  0  0  0  0  0  0  0  0  # atno 14825 bound_to 4682
  133.6994  119.7158  147.9805 LP  0  0  0  0  0  0  0  0  0  0  0  0  # atno 14843 bound_to 3072
  134.3793  118.4000  147.2927 LP  0  0  0  0  0  0  0  0  0  0  0  0  # atno 14844 bound_to 3072
  140.0884  160.0941  185.7642 LP  0  0  0  0  0  0  0  0  0  0  0  0  # atno 14853 bound_to 1430
  136.3045  158.3334  188.0437 LP  0  0  0  0  0  0  0  0  0  0  0  0  # atno 14854 bound_to 1433
  136.4765  156.7822  187.2926 LP  0  0  0  0  0  0  0  0  0  0  0  0  # atno 14855 bound_to 1433
  142.3949  120.2534  147.9076 LP  0  0  0  0  0  0  0  0  0  0  0  0  # atno 14860 bound_to 3104
  141.7046  120.9555  149.2103 LP  0  0  0  0  0  0  0  0  0  0  0  0  # atno 14861 bound_to 3104
  144.0177  134.6488  137.7348 LP  0  0  0  0  0  0  0  0  0  0  0  0  # atno 14880 bound_to 3618
  143.9961  134.7719  136.1067 LP  0  0  0  0  0  0  0  0  0  0  0  0  # atno 14881 bound_to 3618
  151.1076  137.2668  154.4844 LP  0  0  0  0  0  0  0  0  0  0  0  0  # atno 14898 bound_to 379 
  149.9487  137.3931  153.3409 LP  0  0  0  0  0  0  0  0  0  0  0  0  # atno 14899 bound_to 379 
  148.9296  129.9324  151.7892 LP  0  0  0  0  0  0  0  0  0  0  0  0  # atno 14902 bound_to 1482
  148.3548  129.3600  150.3719 LP  0  0  0  0  0  0  0  0  0  0  0  0  # atno 14903 bound_to 1482
  135.9447  115.9454  184.1069 LP  0  0  0  0  0  0  0  0  0  0  0  0  # atno 14912 bound_to 400 
  140.5904  116.0282  184.7286 LP  0  0  0  0  0  0  0  0  0  0  0  0  # atno 14913 bound_to 403 
  139.1919  116.0250  183.7067 LP  0  0  0  0  0  0  0  0  0  0  0  0  # atno 14914 bound_to 403 
  157.5431  131.8689  151.3255 LP  0  0  0  0  0  0  0  0  0  0  0  0  # atno 14925 bound_to 463 
  157.3327  130.7213  150.1830 LP  0  0  0  0  0  0  0  0  0  0  0  0  # atno 14926 bound_to 463 
  116.6212  142.3797  113.5865 LP  0  0  0  0  0  0  0  0  0  0  0  0  # atno 14927 bound_to 464 
  118.4188  143.3702  117.7860 LP  0  0  0  0  0  0  0  0  0  0  0  0  # atno 14928 bound_to 467 
  116.7885  143.5907  118.3279 LP  0  0  0  0  0  0  0  0  0  0  0  0  # atno 14929 bound_to 467 
  114.7524  144.1524  113.2919 LP  0  0  0  0  0  0  0  0  0  0  0  0  # atno 14930 bound_to 470 
  116.2453  144.8032  113.4113 LP  0  0  0  0  0  0  0  0  0  0  0  0  # atno 14931 bound_to 470 

> <Gold.Score>
     Fitness  S(hb_ext) S(vdw_ext)  S(hb_int)    S(int)      intcor
     29.92       3.24      19.46       0.00      -0.08      -0.76

> <Gold.Goldscore.Fitness>
29.9154

> <Gold.Goldscore.Internal.Vdw>
-0.4173

> <Gold.Goldscore.Internal.Torsion>
-0.4310

> <Gold.Goldscore.External.Vdw>
19.4622

> <Gold.Goldscore.Internal.HBond>
0.0000

> <Gold.Goldscore.External.HBond>
3.2384

> <Gold.Goldscore.Internal.Correction>
-0.7650

> <Gold.Goldscore.Hbonds>
donor molecule, donor type, donor heavy atom, donor atom, acceptor molecule, acceptor atom, score
      P1  H   502   530       L1    17  0.27
      P1  H   509   528       L1    17  0.08
      P1  H   512   525       L1    17  0.11
      L1  H    10    23       P1  1482  0.79

> <Gold.Goldscore.Internal.Vdw.Weighted>
-0.4173

> <Gold.Goldscore.Internal.Torsion.Weighted>
-0.4310

> <Gold.Goldscore.External.Vdw.Weighted>
26.7605

> <Gold.Goldscore.Internal.HBond.Weighted>
0.0000

> <Gold.Goldscore.External.HBond.Weighted>
3.2384

> <Gold.Goldscore.Internal.Correction.Weighted>
-0.7650

> <Gold.Rescore>
     Score     S(PLP)   S(hbond)     S(cho)   S(metal)  DE(clash)   DE(tors)     intcor
     27.04     -19.45       2.79       0.00       0.00       0.00       0.38       ----

> <Gold.PLP.Fitness>
27.0427

> <Gold.PLP.PLP>
-19.4489

> <Gold.PLP.part.hbond>
-5.3539

> <Gold.PLP.part.metal>
0.0000

> <Gold.PLP.part.buried>
1.1706

> <Gold.PLP.part.nonpolar>
-18.6618

> <Gold.PLP.part.repulsive>
3.2424

> <Gold.PLP.ligand.clash>
0.0000

> <Gold.PLP.ligand.torsion>
0.3806

> <Gold.PLP.Chemscore.Hbond>
2.7850

> <Gold.PLP.Chemscore.CHOScore>
0.0000

> <Gold.PLP.Chemscore.Metal>
0.0000

> <Gold.Chemscore.Hbonds>
donor molecule, donor type, donor heavy atom, donor atom, acceptor molecule, acceptor atom, score
      L1  H    10    23       P1  1482  0.44
      P1  H   509   528       L1    17  0.48
      P1  H   512   525       L1    17  0.71

> <Gold.PLP.Chemscore.Internal.Correction>
   9.000000E+99

#       Name:                CT1002167954
#       Creating user name   hitesit
#       Creation time:       Sun Apr 16 23:04:15 2023


#       File generated by GOLD software.
#

@<TRIPOS>MOLECULE
CT1002167954|ligand_prepared|mol2|1|dock8
    29    30     1
SMALL
NO_CHARGES


@<TRIPOS>ATOM
      1 C1         142.7478 130.0422 151.7668 C.3            1 RES1               0.0000
      2 C2         141.9733 128.8094 151.2576 C.ar           1 RES1               0.0000
      3 C3         143.9073 130.2503 150.7970 C.2            1 RES1               0.0000
      4 C4         141.7473 131.1923 151.7963 C.2            1 RES1               0.0000
      5 C5         143.3238 129.8733 153.1921 C.3            1 RES1               0.0000
      6 C6         142.1813 127.5569 151.8272 C.ar           1 RES1               0.0000
      7 C7         141.0473 128.9094 150.2226 C.ar           1 RES1               0.0000
      8 N8         143.8205 131.2936 149.9230 N.am           1 RES1               0.0000
      9 O9         144.8650 129.4871 150.7729 O.2            1 RES1               0.0000
     10 N10        141.9503 132.2420 150.9393 N.am           1 RES1               0.0000
     11 O11        140.7758 131.1912 152.5423 O.2            1 RES1               0.0000
     12 C12        143.7672 131.1790 153.8329 C.3            1 RES1               0.0000
     13 C13        141.4867 126.4450 151.3805 C.ar           1 RES1               0.0000
     14 C14        140.3539 127.7962 149.7772 C.ar           1 RES1               0.0000
     15 C15        142.9244 132.3305 149.9824 C.2            1 RES1               0.0000
     16 C16        140.5723 126.5639 150.3556 C.ar           1 RES1               0.0000
     17 O17        143.0095 133.2825 149.2120 O.2            1 RES1               0.0000
     18 H18        142.5605 129.4089 153.8286 H              1 RES1               0.0000
     19 H19        144.1827 129.1924 153.1474 H              1 RES1               0.0000
     20 H20        142.8988 127.4434 152.6332 H              1 RES1               0.0000
     21 H21        140.8601 129.8686 149.7520 H              1 RES1               0.0000
     22 H22        144.4830 131.3037 149.1541 H              1 RES1               0.0000
     23 H23        141.3166 133.0306 151.0223 H              1 RES1               0.0000
     24 H24        144.1630 131.0039 154.8310 H              1 RES1               0.0000
     25 H25        144.5442 131.6558 153.2390 H              1 RES1               0.0000
     26 H26        142.9317 131.8710 153.9162 H              1 RES1               0.0000
     27 H27        141.6632 125.4772 151.8381 H              1 RES1               0.0000
     28 H28        139.6357 127.8943 148.9699 H              1 RES1               0.0000
     29 H29        140.0280 125.6928 150.0061 H              1 RES1               0.0000
@<TRIPOS>BOND
    1    1    2 1     
    2    1    3 1     
    3    1    4 1     
    4    1    5 1     
    5    2    6 ar    
    6    2    7 ar    
    7    3    8 1     
    8    3    9 2     
    9    4   10 1     
   10    4   11 2     
   11    5   12 1     
   12    5   18 1     
   13    5   19 1     
   14    6   13 ar    
   15    6   20 1     
   16    7   14 ar    
   17    7   21 1     
   18    8   15 1     
   19    8   22 1     
   20   10   15 1     
   21   10   23 1     
   22   12   24 1     
   23   12   25 1     
   24   12   26 1     
   25   13   16 ar    
   26   13   27 1     
   27   14   16 ar    
   28   14   28 1     
   29   15   17 2     
   30   16   29 1     
@<TRIPOS>SUBSTRUCTURE
      1 RES1           1
@<TRIPOS>SET
DONOR_HYDROGENS      STATIC     ATOMS    <user>   **** ""
2 22 23
ATOM$RED        STATIC     ATOMS    COLORGROUP SYSTEM
2 22 23
@<TRIPOS>COMMENT
> <Gold.Version>
2022.3.0

> <Gold.Id.Protein>
unknown|7rmh_cavity_clean|pdb

> <Gold.Protein.RotatedTorsions>
[ 2038 2027 2028 2029 ] final  136.85 input  103.58 | X-H torsion
[ 4286 4281 4282 4283 ] final  140.26 input  108.09 | X-H torsion
[  535  513  514  515 ] final  -85.95 input  105.58 | X-H torsion
[ 2069 2062 2060 2057 ] final -108.07 input   60.00 | X-H torsion
[ 4334 4326 4327 4328 ] final  128.90 input   45.76 | X-H torsion
[ 5109 5102 5100 5097 ] final -140.71 input   60.01 | X-H torsion
[ 2099 2094 2093 2090 ] final  -26.42 input   60.02 | X-H torsion
[ 4376 4367 4366 4364 ] final   89.67 input   59.97 | X-H torsion
[ 1144 1124 1125 1126 ] final   63.31 input   64.50 | X-H torsion
[  249  231  232  233 ] final -141.74 input  105.30 | X-H torsion
[ 3038 3033 3034 3035 ] final   75.58 input   60.01 | X-H torsion
[  280  266  267  268 ] final  127.76 input  114.84 | X-H torsion
[ 4687 4679 4680 4681 ] final   92.72 input   46.48 | X-H torsion
[ 3081 3072 3071 3069 ] final -111.60 input   59.99 | X-H torsion
[  336  328  327  326 ] final -153.92 input   59.97 | X-H torsion
[ 1444 1430 1431 1432 ] final    0.87 input   54.63 | X-H torsion
[ 3113 3104 3103 3101 ] final    6.39 input   60.00 | X-H torsion
[ 3627 3618 3617 3615 ] final  151.11 input   60.02 | X-H torsion
[  387  379  378  376 ] final  -29.05 input   59.98 | X-H torsion
[ 1488 1482 1480 1477 ] final  -33.52 input   59.97 | X-H torsion
[  421  400  401  402 ] final  -18.55 input   82.00 | X-H torsion
[  472  463  461  458 ] final  -47.38 input   59.98 | X-H torsion
[  478  464  465  466 ] final  149.80 input  115.28 | X-H torsion
[  484  470  468  465 ] final -126.59 input   59.99 | X-H torsion
[ 14714 2030 2029 2028 ] final  157.02 input    0.00 | X-H torsion
[ 14723 4284 4283 4282 ] final   84.50 input    0.00 | X-H torsion
[ 14732  516  515  514 ] final  117.04 input    0.00 | X-H torsion
[ 14755 4329 4328 4327 ] final   77.79 input    0.00 | X-H torsion
[ 14795 1127 1126 1125 ] final    5.00 input   -0.00 | X-H torsion
[ 14802  234  233  232 ] final   58.08 input   -0.00 | X-H torsion
[ 14817  269  268  267 ] final  167.73 input    0.00 | X-H torsion
[ 14824 4682 4681 4680 ] final   98.92 input   -0.00 | X-H torsion
[ 14854 1433 1432 1431 ] final  -71.16 input   -0.00 | X-H torsion
[ 14913  403  402  401 ] final  137.77 input   -0.00 | X-H torsion
[ 14928  467  466  465 ] final -127.68 input    0.00 | X-H torsion

> <Gold.Protein.ActiveResidues>
 GLU27   LEU30   GLN31   ASP33   LYS34   GLN35   VAL36   TYR37   ARG38   THR40  
 HIS41   ARG42   ILE207  GLU209  HIS220  PHE222  CYS237  PHE238  ASN239  ASP240 
 VAL241  THR242  ARG280  TRP281  ARG283  THR284  ILE285  SER286  ARG356  HIS357 
 TYR358  TYR360  ASP381  ILE382  ILE383  GLN384  ARG385  MET386  HIS387  LEU388 
 ARG389  GLN390  TYR391  GLU392  LEU393  LEU394  ALA56   LYS57   ILE58   TYR59  
 ALA60   MET61   LEU79   ILE80   ILE81   TRP82   ILE93   VAL100  MET101  THR102 
 CYS103  CYS121  ASP312  ASN313  TRP332  ASP333  SER334  PHE335 

> <Gold.Protein.RotatedAtoms>
  122.4304  156.0809  187.4076 H   0  0  0  0  0  0  0  0  0  0  0  0  # atno 249  bound_to 231 
  110.5910  140.4300  101.2322 H   0  0  0  0  0  0  0  0  0  0  0  0  # atno 280  bound_to 266 
  148.9985  145.1429  146.2449 H   0  0  0  0  0  0  0  0  0  0  0  0  # atno 336  bound_to 328 
  149.2757  143.5927  145.7293 H   0  0  0  0  0  0  0  0  0  0  0  0  # atno 337  bound_to 328 
  150.0647  144.1754  147.0643 H   0  0  0  0  0  0  0  0  0  0  0  0  # atno 338  bound_to 328 
  151.0363  137.1212  154.3623 H   0  0  0  0  0  0  0  0  0  0  0  0  # atno 387  bound_to 379 
  137.4566  116.5129  183.7628 H   0  0  0  0  0  0  0  0  0  0  0  0  # atno 421  bound_to 400 
  156.0521  131.2073  150.9768 H   0  0  0  0  0  0  0  0  0  0  0  0  # atno 472  bound_to 463 
  116.8853  143.0860  113.2337 H   0  0  0  0  0  0  0  0  0  0  0  0  # atno 478  bound_to 464 
  115.0047  145.6611  113.9304 H   0  0  0  0  0  0  0  0  0  0  0  0  # atno 484  bound_to 470 
  121.8829  163.2192  166.5607 H   0  0  0  0  0  0  0  0  0  0  0  0  # atno 535  bound_to 513 
  138.6039  145.6365  188.8306 H   0  0  0  0  0  0  0  0  0  0  0  0  # atno 1144 bound_to 1124
  138.8659  159.6669  184.8192 H   0  0  0  0  0  0  0  0  0  0  0  0  # atno 1444 bound_to 1430
  148.1840  129.7769  151.0261 H   0  0  0  0  0  0  0  0  0  0  0  0  # atno 1488 bound_to 1482
  132.4250  164.3050  175.3880 H   0  0  0  0  0  0  0  0  0  0  0  0  # atno 2038 bound_to 2027
  138.9857  130.5538  153.1171 H   0  0  0  0  0  0  0  0  0  0  0  0  # atno 2069 bound_to 2062
  143.2511  124.5384  153.1757 H   0  0  0  0  0  0  0  0  0  0  0  0  # atno 2099 bound_to 2094
  133.5985  124.1187  151.5724 H   0  0  0  0  0  0  0  0  0  0  0  0  # atno 3038 bound_to 3033
  133.0068  125.1735  150.4383 H   0  0  0  0  0  0  0  0  0  0  0  0  # atno 3039 bound_to 3033
  133.9025  118.6330  147.8320 H   0  0  0  0  0  0  0  0  0  0  0  0  # atno 3081 bound_to 3072
  141.8438  120.9890  149.1468 H   0  0  0  0  0  0  0  0  0  0  0  0  # atno 3113 bound_to 3104
  144.2425  134.0610  135.9758 H   0  0  0  0  0  0  0  0  0  0  0  0  # atno 3627 bound_to 3618
  119.8030  120.7725  172.4497 H   0  0  0  0  0  0  0  0  0  0  0  0  # atno 4286 bound_to 4281
  123.4810  116.3505  172.3238 H   0  0  0  0  0  0  0  0  0  0  0  0  # atno 4334 bound_to 4326
  145.8410  139.1275  166.7161 H   0  0  0  0  0  0  0  0  0  0  0  0  # atno 4376 bound_to 4367
  123.8757  123.1932  186.4675 H   0  0  0  0  0  0  0  0  0  0  0  0  # atno 4687 bound_to 4679
  151.7367  147.6818  171.6848 H   0  0  0  0  0  0  0  0  0  0  0  0  # atno 5109 bound_to 5102
  132.5350  162.6059  175.7827 LP  0  0  0  0  0  0  0  0  0  0  0  0  # atno 14713 bound_to 2027
  128.9248  160.7136  173.8529 LP  0  0  0  0  0  0  0  0  0  0  0  0  # atno 14714 bound_to 2030
  128.7997  161.3872  175.4437 LP  0  0  0  0  0  0  0  0  0  0  0  0  # atno 14715 bound_to 2030
  120.7093  119.5039  173.2366 LP  0  0  0  0  0  0  0  0  0  0  0  0  # atno 14722 bound_to 4281
  120.8874  116.7671  169.6207 LP  0  0  0  0  0  0  0  0  0  0  0  0  # atno 14723 bound_to 4284
  121.1228  116.1993  171.2400 LP  0  0  0  0  0  0  0  0  0  0  0  0  # atno 14724 bound_to 4284
  121.1073  164.1535  165.3040 LP  0  0  0  0  0  0  0  0  0  0  0  0  # atno 14731 bound_to 513 
  124.5431  164.7060  164.6021 LP  0  0  0  0  0  0  0  0  0  0  0  0  # atno 14732 bound_to 516 
  123.4656  164.6779  163.2462 LP  0  0  0  0  0  0  0  0  0  0  0  0  # atno 14733 bound_to 516 
  137.4288  130.4320  152.6609 LP  0  0  0  0  0  0  0  0  0  0  0  0  # atno 14736 bound_to 2062
  138.3075  129.0850  152.9441 LP  0  0  0  0  0  0  0  0  0  0  0  0  # atno 14737 bound_to 2062
  125.0726  116.7275  171.6938 LP  0  0  0  0  0  0  0  0  0  0  0  0  # atno 14754 bound_to 4326
  125.8234  114.0989  171.5132 LP  0  0  0  0  0  0  0  0  0  0  0  0  # atno 14755 bound_to 4329
  125.7320  113.0028  172.8512 LP  0  0  0  0  0  0  0  0  0  0  0  0  # atno 14756 bound_to 4329
  150.1589  147.7802  171.2995 LP  0  0  0  0  0  0  0  0  0  0  0  0  # atno 14759 bound_to 5102
  151.2935  148.2992  170.2460 LP  0  0  0  0  0  0  0  0  0  0  0  0  # atno 14760 bound_to 5102
  142.7004  123.8062  151.8308 LP  0  0  0  0  0  0  0  0  0  0  0  0  # atno 14769 bound_to 2094
  143.7575  123.0361  152.8085 LP  0  0  0  0  0  0  0  0  0  0  0  0  # atno 14770 bound_to 2094
  144.4069  139.5281  166.0594 LP  0  0  0  0  0  0  0  0  0  0  0  0  # atno 14775 bound_to 4367
  144.8805  140.2045  167.4683 LP  0  0  0  0  0  0  0  0  0  0  0  0  # atno 14776 bound_to 4367
  138.0773  145.6472  190.5019 LP  0  0  0  0  0  0  0  0  0  0  0  0  # atno 14794 bound_to 1124
  137.7604  144.5357  187.2266 LP  0  0  0  0  0  0  0  0  0  0  0  0  # atno 14795 bound_to 1127
  136.5976  143.3184  186.8192 LP  0  0  0  0  0  0  0  0  0  0  0  0  # atno 14796 bound_to 1127
  121.7770  155.3252  185.9749 LP  0  0  0  0  0  0  0  0  0  0  0  0  # atno 14801 bound_to 231 
  122.2879  159.2773  183.8233 LP  0  0  0  0  0  0  0  0  0  0  0  0  # atno 14802 bound_to 234 
  120.6135  159.1711  184.2534 LP  0  0  0  0  0  0  0  0  0  0  0  0  # atno 14803 bound_to 234 
  134.3913  124.3342  150.1464 LP  0  0  0  0  0  0  0  0  0  0  0  0  # atno 14808 bound_to 3033
  110.2758  140.6420  102.9370 LP  0  0  0  0  0  0  0  0  0  0  0  0  # atno 14816 bound_to 266 
  114.3158  141.2504  104.7768 LP  0  0  0  0  0  0  0  0  0  0  0  0  # atno 14817 bound_to 269 
  113.7183  139.6351  104.5920 LP  0  0  0  0  0  0  0  0  0  0  0  0  # atno 14818 bound_to 269 
  122.2200  122.7016  186.1847 LP  0  0  0  0  0  0  0  0  0  0  0  0  # atno 14823 bound_to 4679
  124.2243  120.3347  187.9099 LP  0  0  0  0  0  0  0  0  0  0  0  0  # atno 14824 bound_to 4682
  125.5887  120.1101  186.8669 LP  0  0  0  0  0  0  0  0  0  0  0  0  # atno 14825 bound_to 4682
  134.8866  119.1522  146.6440 LP  0  0  0  0  0  0  0  0  0  0  0  0  # atno 14843 bound_to 3072
  134.0447  120.2278  147.5390 LP  0  0  0  0  0  0  0  0  0  0  0  0  # atno 14844 bound_to 3072
  139.7735  160.6912  185.9094 LP  0  0  0  0  0  0  0  0  0  0  0  0  # atno 14853 bound_to 1430
  137.0666  157.1524  188.0266 LP  0  0  0  0  0  0  0  0  0  0  0  0  # atno 14854 bound_to 1433
  135.7144  157.9633  187.3097 LP  0  0  0  0  0  0  0  0  0  0  0  0  # atno 14855 bound_to 1433
  140.8802  119.8170  148.5598 LP  0  0  0  0  0  0  0  0  0  0  0  0  # atno 14860 bound_to 3104
  142.3112  120.1378  147.8415 LP  0  0  0  0  0  0  0  0  0  0  0  0  # atno 14861 bound_to 3104
  144.3785  133.6195  137.5357 LP  0  0  0  0  0  0  0  0  0  0  0  0  # atno 14880 bound_to 3618
  143.8614  135.1198  137.1507 LP  0  0  0  0  0  0  0  0  0  0  0  0  # atno 14881 bound_to 3618
  149.8719  137.5809  153.3221 LP  0  0  0  0  0  0  0  0  0  0  0  0  # atno 14898 bound_to 379 
  150.5340  138.6692  154.3437 LP  0  0  0  0  0  0  0  0  0  0  0  0  # atno 14899 bound_to 379 
  149.3440  128.9400  150.2491 LP  0  0  0  0  0  0  0  0  0  0  0  0  # atno 14902 bound_to 1482
  149.6583  129.6230  151.6987 LP  0  0  0  0  0  0  0  0  0  0  0  0  # atno 14903 bound_to 1482
  136.0451  115.4803  183.7951 LP  0  0  0  0  0  0  0  0  0  0  0  0  # atno 14912 bound_to 400 
  140.3086  116.5243  184.7904 LP  0  0  0  0  0  0  0  0  0  0  0  0  # atno 14913 bound_to 403 
  139.4737  115.5289  183.6449 LP  0  0  0  0  0  0  0  0  0  0  0  0  # atno 14914 bound_to 403 
  157.4741  131.8948  151.3683 LP  0  0  0  0  0  0  0  0  0  0  0  0  # atno 14925 bound_to 463 
  157.4089  130.7551  150.2006 LP  0  0  0  0  0  0  0  0  0  0  0  0  # atno 14926 bound_to 463 
  117.9873  142.1305  114.1986 LP  0  0  0  0  0  0  0  0  0  0  0  0  # atno 14927 bound_to 464 
  118.1804  142.8390  118.1336 LP  0  0  0  0  0  0  0  0  0  0  0  0  # atno 14928 bound_to 467 
  117.0268  144.1218  117.9803 LP  0  0  0  0  0  0  0  0  0  0  0  0  # atno 14929 bound_to 467 
  114.7038  144.1862  113.3122 LP  0  0  0  0  0  0  0  0  0  0  0  0  # atno 14930 bound_to 470 
  116.2359  144.7462  113.3872 LP  0  0  0  0  0  0  0  0  0  0  0  0  # atno 14931 bound_to 470 

> <Gold.Score>
     Fitness  S(hb_ext) S(vdw_ext)  S(hb_int)    S(int)      intcor
     29.71       1.04      21.38       0.00      -0.72      -0.76

> <Gold.Goldscore.Fitness>
29.7080

> <Gold.Goldscore.Internal.Vdw>
-0.7806

> <Gold.Goldscore.Internal.Torsion>
-0.7006

> <Gold.Goldscore.External.Vdw>
21.3772

> <Gold.Goldscore.Internal.HBond>
0.0000

> <Gold.Goldscore.External.HBond>
1.0369

> <Gold.Goldscore.Internal.Correction>
-0.7585

> <Gold.Goldscore.Hbonds>
donor molecule, donor type, donor heavy atom, donor atom, acceptor molecule, acceptor atom, score
      P1  H  2062  2069       L1    11  0.52

> <Gold.Goldscore.Internal.Vdw.Weighted>
-0.7806

> <Gold.Goldscore.Internal.Torsion.Weighted>
-0.7006

> <Gold.Goldscore.External.Vdw.Weighted>
29.3937

> <Gold.Goldscore.Internal.HBond.Weighted>
0.0000

> <Gold.Goldscore.External.HBond.Weighted>
1.0369

> <Gold.Goldscore.Internal.Correction.Weighted>
-0.7585

> <Gold.Rescore>
     Score     S(PLP)   S(hbond)     S(cho)   S(metal)  DE(clash)   DE(tors)     intcor
     25.99     -23.63       1.00       0.00       0.00       0.00       0.32       ----

> <Gold.PLP.Fitness>
25.9870

> <Gold.PLP.PLP>
-23.6298

> <Gold.PLP.part.hbond>
-1.0000

> <Gold.PLP.part.metal>
0.0000

> <Gold.PLP.part.buried>
-0.8391

> <Gold.PLP.part.nonpolar>
-22.2284

> <Gold.PLP.part.repulsive>
0.2513

> <Gold.PLP.ligand.clash>
0.0000

> <Gold.PLP.ligand.torsion>
0.3214

> <Gold.PLP.Chemscore.Hbond>
1.0000

> <Gold.PLP.Chemscore.CHOScore>
0.0000

> <Gold.PLP.Chemscore.Metal>
0.0000

> <Gold.Chemscore.Hbonds>
donor molecule, donor type, donor heavy atom, donor atom, acceptor molecule, acceptor atom, score
      P1  H  2062  2069       L1    11  1.00

> <Gold.PLP.Chemscore.Internal.Correction>
   9.000000E+99

#       Name:                CT1002167954
#       Creating user name   hitesit
#       Creation time:       Sun Apr 16 23:04:26 2023


#       File generated by GOLD software.
#

@<TRIPOS>MOLECULE
CT1002167954|ligand_prepared|mol2|1|dock9
    29    30     1
SMALL
NO_CHARGES


@<TRIPOS>ATOM
      1 C1         144.6674 132.1259 150.4201 C.3            1 RES1               0.0000
      2 C2         144.2597 130.6634 150.6915 C.ar           1 RES1               0.0000
      3 C3         145.1964 132.6755 151.7416 C.2            1 RES1               0.0000
      4 C4         145.7065 132.0792 149.3053 C.2            1 RES1               0.0000
      5 C5         143.4995 133.0227 149.9474 C.3            1 RES1               0.0000
      6 C6         143.1194 130.3719 151.4341 C.ar           1 RES1               0.0000
      7 C7         145.0109 129.5971 150.2045 C.ar           1 RES1               0.0000
      8 N8         146.5438 132.8507 151.8589 N.am           1 RES1               0.0000
      9 O9         144.4466 132.9142 152.6802 O.2            1 RES1               0.0000
     10 N10        146.9852 132.4718 149.6025 N.am           1 RES1               0.0000
     11 O11        145.4332 131.6903 148.1764 O.2            1 RES1               0.0000
     12 C12        143.9330 134.4117 149.5057 C.3            1 RES1               0.0000
     13 C13        142.7421 129.0618 151.6786 C.ar           1 RES1               0.0000
     14 C14        144.6319 128.2877 150.4502 C.ar           1 RES1               0.0000
     15 C15        147.4581 132.8262 150.8366 C.2            1 RES1               0.0000
     16 C16        143.4977 128.0190 151.1865 C.ar           1 RES1               0.0000
     17 O17        148.6347 133.1144 151.0359 O.2            1 RES1               0.0000
     18 H18        142.9913 132.5285 149.1103 H              1 RES1               0.0000
     19 H19        142.7769 133.1223 150.7667 H              1 RES1               0.0000
     20 H20        142.5136 131.1794 151.8316 H              1 RES1               0.0000
     21 H21        145.9076 129.7848 149.6237 H              1 RES1               0.0000
     22 H22        146.9049 133.0150 152.7932 H              1 RES1               0.0000
     23 H23        147.6458 132.5027 148.8325 H              1 RES1               0.0000
     24 H24        143.0756 134.9992 149.1841 H              1 RES1               0.0000
     25 H25        144.4200 134.9415 150.3217 H              1 RES1               0.0000
     26 H26        144.6332 134.3512 148.6751 H              1 RES1               0.0000
     27 H27        141.8493 128.8556 152.2597 H              1 RES1               0.0000
     28 H28        145.2300 127.4701 150.0615 H              1 RES1               0.0000
     29 H29        143.2017 126.9928 151.3778 H              1 RES1               0.0000
@<TRIPOS>BOND
    1    1    2 1     
    2    1    3 1     
    3    1    4 1     
    4    1    5 1     
    5    2    6 ar    
    6    2    7 ar    
    7    3    8 1     
    8    3    9 2     
    9    4   10 1     
   10    4   11 2     
   11    5   12 1     
   12    5   18 1     
   13    5   19 1     
   14    6   13 ar    
   15    6   20 1     
   16    7   14 ar    
   17    7   21 1     
   18    8   15 1     
   19    8   22 1     
   20   10   15 1     
   21   10   23 1     
   22   12   24 1     
   23   12   25 1     
   24   12   26 1     
   25   13   16 ar    
   26   13   27 1     
   27   14   16 ar    
   28   14   28 1     
   29   15   17 2     
   30   16   29 1     
@<TRIPOS>SUBSTRUCTURE
      1 RES1           1
@<TRIPOS>SET
DONOR_HYDROGENS      STATIC     ATOMS    <user>   **** ""
2 22 23
ATOM$RED        STATIC     ATOMS    COLORGROUP SYSTEM
2 22 23
@<TRIPOS>COMMENT
> <Gold.Version>
2022.3.0

> <Gold.Id.Protein>
unknown|7rmh_cavity_clean|pdb

> <Gold.Protein.RotatedTorsions>
[ 2038 2027 2028 2029 ] final   22.22 input  103.58 | X-H torsion
[ 4286 4281 4282 4283 ] final   67.40 input  108.09 | X-H torsion
[  535  513  514  515 ] final -132.62 input  105.58 | X-H torsion
[ 2069 2062 2060 2057 ] final  -75.02 input   60.00 | X-H torsion
[ 4334 4326 4327 4328 ] final  135.86 input   45.76 | X-H torsion
[ 5109 5102 5100 5097 ] final -167.63 input   60.01 | X-H torsion
[ 2099 2094 2093 2090 ] final  -68.38 input   60.02 | X-H torsion
[ 4376 4367 4366 4364 ] final -128.36 input   59.97 | X-H torsion
[ 1144 1124 1125 1126 ] final  -40.08 input   64.50 | X-H torsion
[  249  231  232  233 ] final   71.70 input  105.30 | X-H torsion
[ 3038 3033 3034 3035 ] final   -4.41 input   60.01 | X-H torsion
[  280  266  267  268 ] final   -1.53 input  114.84 | X-H torsion
[ 4687 4679 4680 4681 ] final -144.59 input   46.48 | X-H torsion
[ 3081 3072 3071 3069 ] final -123.73 input   59.99 | X-H torsion
[  336  328  327  326 ] final  -48.02 input   59.97 | X-H torsion
[ 1444 1430 1431 1432 ] final  -27.97 input   54.63 | X-H torsion
[ 3113 3104 3103 3101 ] final  147.52 input   60.00 | X-H torsion
[ 3627 3618 3617 3615 ] final   27.95 input   60.02 | X-H torsion
[  387  379  378  376 ] final -125.97 input   59.98 | X-H torsion
[ 1488 1482 1480 1477 ] final  -35.23 input   59.97 | X-H torsion
[  421  400  401  402 ] final  120.56 input   82.00 | X-H torsion
[  472  463  461  458 ] final  -96.22 input   59.98 | X-H torsion
[  478  464  465  466 ] final  -77.37 input  115.28 | X-H torsion
[  484  470  468  465 ] final -132.92 input   59.99 | X-H torsion
[ 14714 2030 2029 2028 ] final   41.91 input    0.00 | X-H torsion
[ 14723 4284 4283 4282 ] final -124.75 input    0.00 | X-H torsion
[ 14732  516  515  514 ] final  119.12 input    0.00 | X-H torsion
[ 14755 4329 4328 4327 ] final  -53.81 input    0.00 | X-H torsion
[ 14795 1127 1126 1125 ] final  -88.82 input   -0.00 | X-H torsion
[ 14802  234  233  232 ] final  -46.99 input   -0.00 | X-H torsion
[ 14817  269  268  267 ] final  -50.17 input    0.00 | X-H torsion
[ 14824 4682 4681 4680 ] final  -14.70 input   -0.00 | X-H torsion
[ 14854 1433 1432 1431 ] final  -24.71 input   -0.00 | X-H torsion
[ 14913  403  402  401 ] final  -79.97 input   -0.00 | X-H torsion
[ 14928  467  466  465 ] final   44.90 input    0.00 | X-H torsion

> <Gold.Protein.ActiveResidues>
 GLU27   LEU30   GLN31   ASP33   LYS34   GLN35   VAL36   TYR37   ARG38   THR40  
 HIS41   ARG42   ILE207  GLU209  HIS220  PHE222  CYS237  PHE238  ASN239  ASP240 
 VAL241  THR242  ARG280  TRP281  ARG283  THR284  ILE285  SER286  ARG356  HIS357 
 TYR358  TYR360  ASP381  ILE382  ILE383  GLN384  ARG385  MET386  HIS387  LEU388 
 ARG389  GLN390  TYR391  GLU392  LEU393  LEU394  ALA56   LYS57   ILE58   TYR59  
 ALA60   MET61   LEU79   ILE80   ILE81   TRP82   ILE93   VAL100  MET101  THR102 
 CYS103  CYS121  ASP312  ASN313  TRP332  ASP333  SER334  PHE335 

> <Gold.Protein.RotatedAtoms>
  122.2509  155.1592  186.0032 H   0  0  0  0  0  0  0  0  0  0  0  0  # atno 249  bound_to 231 
  110.5423  141.2527  102.5969 H   0  0  0  0  0  0  0  0  0  0  0  0  # atno 280  bound_to 266 
  149.1302  143.7503  145.6324 H   0  0  0  0  0  0  0  0  0  0  0  0  # atno 336  bound_to 328 
  150.0852  143.9612  146.9700 H   0  0  0  0  0  0  0  0  0  0  0  0  # atno 337  bound_to 328 
  149.1230  145.1992  146.4354 H   0  0  0  0  0  0  0  0  0  0  0  0  # atno 338  bound_to 328 
  150.0393  137.2501  153.3850 H   0  0  0  0  0  0  0  0  0  0  0  0  # atno 387  bound_to 379 
  136.4759  115.2049  183.4595 H   0  0  0  0  0  0  0  0  0  0  0  0  # atno 421  bound_to 400 
  156.3960  131.7264  151.4367 H   0  0  0  0  0  0  0  0  0  0  0  0  # atno 472  bound_to 463 
  118.2953  142.7056  113.9443 H   0  0  0  0  0  0  0  0  0  0  0  0  # atno 478  bound_to 464 
  114.9098  145.6209  113.9234 H   0  0  0  0  0  0  0  0  0  0  0  0  # atno 484  bound_to 470 
  121.2473  162.9807  166.3901 H   0  0  0  0  0  0  0  0  0  0  0  0  # atno 535  bound_to 513 
  138.2004  144.7769  189.8627 H   0  0  0  0  0  0  0  0  0  0  0  0  # atno 1144 bound_to 1124
  139.2321  159.4357  184.9083 H   0  0  0  0  0  0  0  0  0  0  0  0  # atno 1444 bound_to 1430
  148.1790  129.7650  151.0012 H   0  0  0  0  0  0  0  0  0  0  0  0  # atno 1488 bound_to 1482
  132.6831  162.9209  174.9052 H   0  0  0  0  0  0  0  0  0  0  0  0  # atno 2038 bound_to 2027
  139.1401  130.0474  153.1719 H   0  0  0  0  0  0  0  0  0  0  0  0  # atno 2069 bound_to 2062
  142.8417  124.6430  152.6552 H   0  0  0  0  0  0  0  0  0  0  0  0  # atno 2099 bound_to 2094
  134.4485  123.9855  150.6921 H   0  0  0  0  0  0  0  0  0  0  0  0  # atno 3038 bound_to 3033
  133.0980  124.5317  151.4837 H   0  0  0  0  0  0  0  0  0  0  0  0  # atno 3039 bound_to 3033
  134.0125  118.5190  147.7131 H   0  0  0  0  0  0  0  0  0  0  0  0  # atno 3081 bound_to 3072
  142.0662  119.9063  147.7712 H   0  0  0  0  0  0  0  0  0  0  0  0  # atno 3113 bound_to 3104
  144.3619  133.6579  137.5672 H   0  0  0  0  0  0  0  0  0  0  0  0  # atno 3627 bound_to 3618
  120.8323  120.5986  172.3644 H   0  0  0  0  0  0  0  0  0  0  0  0  # atno 4286 bound_to 4281
  123.4811  116.4506  172.3656 H   0  0  0  0  0  0  0  0  0  0  0  0  # atno 4334 bound_to 4326
  144.5856  140.2464  167.2694 H   0  0  0  0  0  0  0  0  0  0  0  0  # atno 4376 bound_to 4367
  122.5517  123.2507  185.6429 H   0  0  0  0  0  0  0  0  0  0  0  0  # atno 4687 bound_to 4679
  151.3695  147.5728  171.8924 H   0  0  0  0  0  0  0  0  0  0  0  0  # atno 5109 bound_to 5102
  132.2829  163.9577  176.2542 LP  0  0  0  0  0  0  0  0  0  0  0  0  # atno 14713 bound_to 2027
  128.4062  161.7846  174.7016 LP  0  0  0  0  0  0  0  0  0  0  0  0  # atno 14714 bound_to 2030
  129.3183  160.3161  174.5950 LP  0  0  0  0  0  0  0  0  0  0  0  0  # atno 14715 bound_to 2030
  119.7002  119.6743  173.3203 LP  0  0  0  0  0  0  0  0  0  0  0  0  # atno 14722 bound_to 4281
  121.5251  116.2166  171.0695 LP  0  0  0  0  0  0  0  0  0  0  0  0  # atno 14723 bound_to 4284
  120.4850  116.7498  169.7912 LP  0  0  0  0  0  0  0  0  0  0  0  0  # atno 14724 bound_to 4284
  121.7286  164.3867  165.4708 LP  0  0  0  0  0  0  0  0  0  0  0  0  # atno 14731 bound_to 513 
  124.5667  164.6983  164.5828 LP  0  0  0  0  0  0  0  0  0  0  0  0  # atno 14732 bound_to 516 
  123.4420  164.6855  163.2656 LP  0  0  0  0  0  0  0  0  0  0  0  0  # atno 14733 bound_to 516 
  137.7758  130.8298  152.7551 LP  0  0  0  0  0  0  0  0  0  0  0  0  # atno 14736 bound_to 2062
  137.8050  129.1976  152.7946 LP  0  0  0  0  0  0  0  0  0  0  0  0  # atno 14737 bound_to 2062
  125.0726  116.6315  171.6537 LP  0  0  0  0  0  0  0  0  0  0  0  0  # atno 14754 bound_to 4326
  125.1157  113.3158  172.6887 LP  0  0  0  0  0  0  0  0  0  0  0  0  # atno 14755 bound_to 4329
  126.4397  113.7858  171.6756 LP  0  0  0  0  0  0  0  0  0  0  0  0  # atno 14756 bound_to 4329
  150.1399  147.9566  170.8981 LP  0  0  0  0  0  0  0  0  0  0  0  0  # atno 14759 bound_to 5102
  151.6823  148.2327  170.4383 LP  0  0  0  0  0  0  0  0  0  0  0  0  # atno 14760 bound_to 5102
  143.0326  123.2212  151.8867 LP  0  0  0  0  0  0  0  0  0  0  0  0  # atno 14769 bound_to 2094
  143.8375  123.5158  153.2767 LP  0  0  0  0  0  0  0  0  0  0  0  0  # atno 14770 bound_to 2094
  145.8899  139.3048  167.0233 LP  0  0  0  0  0  0  0  0  0  0  0  0  # atno 14775 bound_to 4367
  144.6618  139.3009  165.9470 LP  0  0  0  0  0  0  0  0  0  0  0  0  # atno 14776 bound_to 4367
  138.4650  146.4729  189.5104 LP  0  0  0  0  0  0  0  0  0  0  0  0  # atno 14794 bound_to 1124
  136.7715  144.4274  186.4453 LP  0  0  0  0  0  0  0  0  0  0  0  0  # atno 14795 bound_to 1127
  137.5865  143.4268  187.6005 LP  0  0  0  0  0  0  0  0  0  0  0  0  # atno 14796 bound_to 1127
  121.9531  156.2287  187.3515 LP  0  0  0  0  0  0  0  0  0  0  0  0  # atno 14801 bound_to 231 
  121.4160  159.4653  184.8694 LP  0  0  0  0  0  0  0  0  0  0  0  0  # atno 14802 bound_to 234 
  121.4855  158.9831  183.2073 LP  0  0  0  0  0  0  0  0  0  0  0  0  # atno 14803 bound_to 234 
  133.4645  125.0979  149.9832 LP  0  0  0  0  0  0  0  0  0  0  0  0  # atno 14808 bound_to 3033
  110.3236  139.8357  101.5995 LP  0  0  0  0  0  0  0  0  0  0  0  0  # atno 14816 bound_to 266 
  113.3974  139.9070  104.9655 LP  0  0  0  0  0  0  0  0  0  0  0  0  # atno 14817 bound_to 269 
  114.6367  140.9785  104.4034 LP  0  0  0  0  0  0  0  0  0  0  0  0  # atno 14818 bound_to 269 
  123.5013  122.6459  186.9828 LP  0  0  0  0  0  0  0  0  0  0  0  0  # atno 14823 bound_to 4679
  125.2631  120.9642  187.1190 LP  0  0  0  0  0  0  0  0  0  0  0  0  # atno 14824 bound_to 4682
  124.5499  119.4806  187.6577 LP  0  0  0  0  0  0  0  0  0  0  0  0  # atno 14825 bound_to 4682
  134.8907  119.3505  146.6237 LP  0  0  0  0  0  0  0  0  0  0  0  0  # atno 14843 bound_to 3072
  133.9300  120.1442  147.6790 LP  0  0  0  0  0  0  0  0  0  0  0  0  # atno 14844 bound_to 3072
  139.4182  160.9156  185.8230 LP  0  0  0  0  0  0  0  0  0  0  0  0  # atno 14853 bound_to 1430
  136.9546  157.7729  188.2891 LP  0  0  0  0  0  0  0  0  0  0  0  0  # atno 14854 bound_to 1433
  135.8264  157.3427  187.0472 LP  0  0  0  0  0  0  0  0  0  0  0  0  # atno 14855 bound_to 1433
  142.1307  121.0168  148.9583 LP  0  0  0  0  0  0  0  0  0  0  0  0  # atno 14860 bound_to 3104
  140.8366  120.0291  148.8293 LP  0  0  0  0  0  0  0  0  0  0  0  0  # atno 14861 bound_to 3104
  143.8577  135.1326  137.1004 LP  0  0  0  0  0  0  0  0  0  0  0  0  # atno 14880 bound_to 3618
  144.2619  134.0128  135.9826 LP  0  0  0  0  0  0  0  0  0  0  0  0  # atno 14881 bound_to 3618
  150.2658  138.7039  154.0808 LP  0  0  0  0  0  0  0  0  0  0  0  0  # atno 14898 bound_to 379 
  151.1438  137.4164  154.5689 LP  0  0  0  0  0  0  0  0  0  0  0  0  # atno 14899 bound_to 379 
  149.3694  128.9375  150.2610 LP  0  0  0  0  0  0  0  0  0  0  0  0  # atno 14902 bound_to 1482
  149.6379  129.6374  151.7118 LP  0  0  0  0  0  0  0  0  0  0  0  0  # atno 14903 bound_to 1482
  136.9978  116.7509  184.0897 LP  0  0  0  0  0  0  0  0  0  0  0  0  # atno 14912 bound_to 400 
  139.9267  115.2543  183.8274 LP  0  0  0  0  0  0  0  0  0  0  0  0  # atno 14913 bound_to 403 
  139.8556  116.7989  184.6079 LP  0  0  0  0  0  0  0  0  0  0  0  0  # atno 14914 bound_to 403 
  157.8964  131.4910  150.8524 LP  0  0  0  0  0  0  0  0  0  0  0  0  # atno 14925 bound_to 463 
  156.6404  130.6363  150.2535 LP  0  0  0  0  0  0  0  0  0  0  0  0  # atno 14926 bound_to 463 
  116.6145  142.5009  113.5067 LP  0  0  0  0  0  0  0  0  0  0  0  0  # atno 14927 bound_to 464 
  117.1060  144.1764  117.9229 LP  0  0  0  0  0  0  0  0  0  0  0  0  # atno 14928 bound_to 467 
  118.1012  142.7844  118.1911 LP  0  0  0  0  0  0  0  0  0  0  0  0  # atno 14929 bound_to 467 
  114.7860  144.1317  113.2790 LP  0  0  0  0  0  0  0  0  0  0  0  0  # atno 14930 bound_to 470 
  116.2493  144.8412  113.4276 LP  0  0  0  0  0  0  0  0  0  0  0  0  # atno 14931 bound_to 470 

> <Gold.Score>
     Fitness  S(hb_ext) S(vdw_ext)  S(hb_int)    S(int)      intcor
     29.01       6.55      17.40       0.00      -1.45      -0.76

> <Gold.Goldscore.Fitness>
29.0129

> <Gold.Goldscore.Internal.Vdw>
-1.7538

> <Gold.Goldscore.Internal.Torsion>
-0.4556

> <Gold.Goldscore.External.Vdw>
17.3954

> <Gold.Goldscore.Internal.HBond>
0.0000

> <Gold.Goldscore.External.HBond>
6.5450

> <Gold.Goldscore.Internal.Correction>
-0.7585

> <Gold.Goldscore.Hbonds>
donor molecule, donor type, donor heavy atom, donor atom, acceptor molecule, acceptor atom, score
      P1  H   512   525       L1    17  1.00
      L1  H     8    22       P1  1453  0.28

> <Gold.Goldscore.Internal.Vdw.Weighted>
-1.7538

> <Gold.Goldscore.Internal.Torsion.Weighted>
-0.4556

> <Gold.Goldscore.External.Vdw.Weighted>
23.9187

> <Gold.Goldscore.Internal.HBond.Weighted>
0.0000

> <Gold.Goldscore.External.HBond.Weighted>
6.5450

> <Gold.Goldscore.Internal.Correction.Weighted>
-0.7585

> <Gold.Rescore>
     Score     S(PLP)   S(hbond)     S(cho)   S(metal)  DE(clash)   DE(tors)     intcor
     27.52     -23.49       1.96       0.00       0.00       1.03       0.41       ----

> <Gold.PLP.Fitness>
27.5234

> <Gold.PLP.PLP>
-23.4938

> <Gold.PLP.part.hbond>
-1.7329

> <Gold.PLP.part.metal>
0.0000

> <Gold.PLP.part.buried>
-3.2657

> <Gold.PLP.part.nonpolar>
-20.2365

> <Gold.PLP.part.repulsive>
0.4221

> <Gold.PLP.ligand.clash>
1.0293

> <Gold.PLP.ligand.torsion>
0.4106

> <Gold.PLP.Chemscore.Hbond>
1.9600

> <Gold.PLP.Chemscore.CHOScore>
0.0000

> <Gold.PLP.Chemscore.Metal>
0.0000

> <Gold.Chemscore.Hbonds>
donor molecule, donor type, donor heavy atom, donor atom, acceptor molecule, acceptor atom, score
      L1  H     8    22       P1  1453  0.37
      P1  H   512   525       L1    17  1.00

> <Gold.PLP.Chemscore.Internal.Correction>
   9.000000E+99

#       Name:                CT1002167954
#       Creating user name   hitesit
#       Creation time:       Sun Apr 16 23:04:40 2023


#       File generated by GOLD software.
#

@<TRIPOS>MOLECULE
CT1002167954|ligand_prepared|mol2|1|dock10
    29    30     1
SMALL
NO_CHARGES


@<TRIPOS>ATOM
      1 C1         143.0217 131.9198 152.1294 C.3            1 RES1               0.0000
      2 C2         143.2789 130.4244 151.8529 C.ar           1 RES1               0.0000
      3 C3         141.5457 132.1634 151.8286 C.2            1 RES1               0.0000
      4 C4         143.4074 132.1570 153.5853 C.2            1 RES1               0.0000
      5 C5         143.8658 132.8719 151.2504 C.3            1 RES1               0.0000
      6 C6         142.7907 129.4497 152.7180 C.ar           1 RES1               0.0000
      7 C7         143.9989 130.0048 150.7375 C.ar           1 RES1               0.0000
      8 N8         140.7058 132.3405 152.8884 N.am           1 RES1               0.0000
      9 O9         141.1186 132.1609 150.6807 O.2            1 RES1               0.0000
     10 N10        142.4146 132.5023 154.4644 N.am           1 RES1               0.0000
     11 O11        144.5593 132.0316 153.9824 O.2            1 RES1               0.0000
     12 C12        143.7970 134.3280 151.6828 C.3            1 RES1               0.0000
     13 C13        143.0118 128.1041 152.4753 C.ar           1 RES1               0.0000
     14 C14        144.2191 128.6587 150.4968 C.ar           1 RES1               0.0000
     15 C15        141.0764 132.5748 154.1882 C.2            1 RES1               0.0000
     16 C16        143.7257 127.7077 151.3645 C.ar           1 RES1               0.0000
     17 O17        140.2380 132.8387 155.0452 O.2            1 RES1               0.0000
     18 H18        144.9122 132.5441 151.2789 H              1 RES1               0.0000
     19 H19        143.5186 132.7951 150.2126 H              1 RES1               0.0000
     20 H20        142.2289 129.7427 153.5986 H              1 RES1               0.0000
     21 H21        144.3975 130.7354 150.0418 H              1 RES1               0.0000
     22 H22        139.7101 132.2943 152.6968 H              1 RES1               0.0000
     23 H23        142.6996 132.7262 155.4126 H              1 RES1               0.0000
     24 H24        144.4066 134.9526 151.0331 H              1 RES1               0.0000
     25 H25        142.7734 134.6946 151.6422 H              1 RES1               0.0000
     26 H26        144.1588 134.4451 152.7023 H              1 RES1               0.0000
     27 H27        142.6226 127.3597 153.1620 H              1 RES1               0.0000
     28 H28        144.7820 128.3513 149.6217 H              1 RES1               0.0000
     29 H29        143.8984 126.6535 151.1744 H              1 RES1               0.0000
@<TRIPOS>BOND
    1    1    2 1     
    2    1    3 1     
    3    1    4 1     
    4    1    5 1     
    5    2    6 ar    
    6    2    7 ar    
    7    3    8 1     
    8    3    9 2     
    9    4   10 1     
   10    4   11 2     
   11    5   12 1     
   12    5   18 1     
   13    5   19 1     
   14    6   13 ar    
   15    6   20 1     
   16    7   14 ar    
   17    7   21 1     
   18    8   15 1     
   19    8   22 1     
   20   10   15 1     
   21   10   23 1     
   22   12   24 1     
   23   12   25 1     
   24   12   26 1     
   25   13   16 ar    
   26   13   27 1     
   27   14   16 ar    
   28   14   28 1     
   29   15   17 2     
   30   16   29 1     
@<TRIPOS>SUBSTRUCTURE
      1 RES1           1
@<TRIPOS>SET
DONOR_HYDROGENS      STATIC     ATOMS    <user>   **** ""
2 22 23
ATOM$RED        STATIC     ATOMS    COLORGROUP SYSTEM
2 22 23
@<TRIPOS>COMMENT
> <Gold.Version>
2022.3.0

> <Gold.Id.Protein>
unknown|7rmh_cavity_clean|pdb

> <Gold.Protein.RotatedTorsions>
[ 2038 2027 2028 2029 ] final   78.73 input  103.58 | X-H torsion
[ 4286 4281 4282 4283 ] final   61.83 input  108.09 | X-H torsion
[  535  513  514  515 ] final  -68.72 input  105.58 | X-H torsion
[ 2069 2062 2060 2057 ] final  -73.75 input   60.00 | X-H torsion
[ 4334 4326 4327 4328 ] final  -52.56 input   45.76 | X-H torsion
[ 5109 5102 5100 5097 ] final   77.00 input   60.01 | X-H torsion
[ 2099 2094 2093 2090 ] final  -76.20 input   60.02 | X-H torsion
[ 4376 4367 4366 4364 ] final  -36.67 input   59.97 | X-H torsion
[ 1144 1124 1125 1126 ] final   83.08 input   64.50 | X-H torsion
[  249  231  232  233 ] final  -22.42 input  105.30 | X-H torsion
[ 3038 3033 3034 3035 ] final  -88.84 input   60.01 | X-H torsion
[  280  266  267  268 ] final    7.06 input  114.84 | X-H torsion
[ 4687 4679 4680 4681 ] final   23.26 input   46.48 | X-H torsion
[ 3081 3072 3071 3069 ] final  -53.80 input   59.99 | X-H torsion
[  336  328  327  326 ] final  -39.18 input   59.97 | X-H torsion
[ 1444 1430 1431 1432 ] final  150.93 input   54.63 | X-H torsion
[ 3113 3104 3103 3101 ] final  -62.90 input   60.00 | X-H torsion
[ 3627 3618 3617 3615 ] final  -12.47 input   60.02 | X-H torsion
[  387  379  378  376 ] final  145.06 input   59.98 | X-H torsion
[ 1488 1482 1480 1477 ] final  -23.75 input   59.97 | X-H torsion
[  421  400  401  402 ] final   75.75 input   82.00 | X-H torsion
[  472  463  461  458 ] final  -45.06 input   59.98 | X-H torsion
[  478  464  465  466 ] final  122.92 input  115.28 | X-H torsion
[  484  470  468  465 ] final   -8.54 input   59.99 | X-H torsion
[ 14714 2030 2029 2028 ] final   20.48 input    0.00 | X-H torsion
[ 14723 4284 4283 4282 ] final  110.57 input    0.00 | X-H torsion
[ 14732  516  515  514 ] final  162.13 input    0.00 | X-H torsion
[ 14755 4329 4328 4327 ] final  100.15 input    0.00 | X-H torsion
[ 14795 1127 1126 1125 ] final  -41.50 input   -0.00 | X-H torsion
[ 14802  234  233  232 ] final  -38.60 input   -0.00 | X-H torsion
[ 14817  269  268  267 ] final  166.24 input    0.00 | X-H torsion
[ 14824 4682 4681 4680 ] final   51.02 input   -0.00 | X-H torsion
[ 14854 1433 1432 1431 ] final  113.05 input   -0.00 | X-H torsion
[ 14913  403  402  401 ] final  -80.81 input   -0.00 | X-H torsion
[ 14928  467  466  465 ] final  103.06 input    0.00 | X-H torsion

> <Gold.Protein.ActiveResidues>
 GLU27   LEU30   GLN31   ASP33   LYS34   GLN35   VAL36   TYR37   ARG38   THR40  
 HIS41   ARG42   ILE207  GLU209  HIS220  PHE222  CYS237  PHE238  ASN239  ASP240 
 VAL241  THR242  ARG280  TRP281  ARG283  THR284  ILE285  SER286  ARG356  HIS357 
 TYR358  TYR360  ASP381  ILE382  ILE383  GLN384  ARG385  MET386  HIS387  LEU388 
 ARG389  GLN390  TYR391  GLU392  LEU393  LEU394  ALA56   LYS57   ILE58   TYR59  
 ALA60   MET61   LEU79   ILE80   ILE81   TRP82   ILE93   VAL100  MET101  THR102 
 CYS103  CYS121  ASP312  ASN313  TRP332  ASP333  SER334  PHE335 

> <Gold.Protein.RotatedAtoms>
  121.2655  155.8633  186.4517 H   0  0  0  0  0  0  0  0  0  0  0  0  # atno 249  bound_to 231 
  110.5852  141.3115  102.4867 H   0  0  0  0  0  0  0  0  0  0  0  0  # atno 280  bound_to 266 
  149.2194  143.6469  145.6883 H   0  0  0  0  0  0  0  0  0  0  0  0  # atno 336  bound_to 328 
  150.0769  144.0939  147.0338 H   0  0  0  0  0  0  0  0  0  0  0  0  # atno 337  bound_to 328 
  149.0421  145.1699  146.3156 H   0  0  0  0  0  0  0  0  0  0  0  0  # atno 338  bound_to 328 
  149.9715  138.5177  153.7181 H   0  0  0  0  0  0  0  0  0  0  0  0  # atno 387  bound_to 379 
  137.1039  115.3637  183.2652 H   0  0  0  0  0  0  0  0  0  0  0  0  # atno 421  bound_to 400 
  156.0513  131.1809  150.9496 H   0  0  0  0  0  0  0  0  0  0  0  0  # atno 472  bound_to 463 
  116.6532  142.7698  113.3591 H   0  0  0  0  0  0  0  0  0  0  0  0  # atno 478  bound_to 464 
  116.2350  144.7751  113.4023 H   0  0  0  0  0  0  0  0  0  0  0  0  # atno 484  bound_to 470 
  122.0742  163.3978  166.5202 H   0  0  0  0  0  0  0  0  0  0  0  0  # atno 535  bound_to 513 
  138.6058  145.9385  188.8844 H   0  0  0  0  0  0  0  0  0  0  0  0  # atno 1144 bound_to 1124
  139.3985  160.9365  185.8434 H   0  0  0  0  0  0  0  0  0  0  0  0  # atno 1444 bound_to 1430
  148.2273  129.8385  151.1667 H   0  0  0  0  0  0  0  0  0  0  0  0  # atno 1488 bound_to 1482
  132.6208  163.7444  174.7674 H   0  0  0  0  0  0  0  0  0  0  0  0  # atno 2038 bound_to 2027
  139.1402  130.0265  153.1723 H   0  0  0  0  0  0  0  0  0  0  0  0  # atno 2069 bound_to 2062
  142.7826  124.6121  152.5463 H   0  0  0  0  0  0  0  0  0  0  0  0  # atno 2099 bound_to 2094
  133.9514  124.8145  149.8428 H   0  0  0  0  0  0  0  0  0  0  0  0  # atno 3038 bound_to 3033
  134.1813  123.8976  151.2049 H   0  0  0  0  0  0  0  0  0  0  0  0  # atno 3039 bound_to 3033
  133.6694  119.4834  148.0367 H   0  0  0  0  0  0  0  0  0  0  0  0  # atno 3081 bound_to 3072
  140.9706  120.3816  149.1257 H   0  0  0  0  0  0  0  0  0  0  0  0  # atno 3113 bound_to 3104
  144.1634  134.2190  137.8197 H   0  0  0  0  0  0  0  0  0  0  0  0  # atno 3627 bound_to 3618
  120.8932  120.5453  172.3926 H   0  0  0  0  0  0  0  0  0  0  0  0  # atno 4286 bound_to 4281
  125.1176  116.7441  171.7192 H   0  0  0  0  0  0  0  0  0  0  0  0  # atno 4334 bound_to 4326
  144.3550  139.5990  166.1150 H   0  0  0  0  0  0  0  0  0  0  0  0  # atno 4376 bound_to 4367
  123.3690  122.5207  187.0311 H   0  0  0  0  0  0  0  0  0  0  0  0  # atno 4687 bound_to 4679
  150.1352  147.9232  170.9664 H   0  0  0  0  0  0  0  0  0  0  0  0  # atno 5109 bound_to 5102
  132.3438  163.1534  176.3888 LP  0  0  0  0  0  0  0  0  0  0  0  0  # atno 14713 bound_to 2027
  128.4905  161.7441  175.0097 LP  0  0  0  0  0  0  0  0  0  0  0  0  # atno 14714 bound_to 2030
  129.2339  160.3567  174.2869 LP  0  0  0  0  0  0  0  0  0  0  0  0  # atno 14715 bound_to 2030
  119.6404  119.7265  173.2926 LP  0  0  0  0  0  0  0  0  0  0  0  0  # atno 14722 bound_to 4281
  121.2747  116.7212  169.6426 LP  0  0  0  0  0  0  0  0  0  0  0  0  # atno 14723 bound_to 4284
  120.7354  116.2451  171.2182 LP  0  0  0  0  0  0  0  0  0  0  0  0  # atno 14724 bound_to 4284
  120.9203  163.9789  165.3436 LP  0  0  0  0  0  0  0  0  0  0  0  0  # atno 14731 bound_to 513 
  124.8519  164.5526  164.0345 LP  0  0  0  0  0  0  0  0  0  0  0  0  # atno 14732 bound_to 516 
  123.1567  164.8312  163.8139 LP  0  0  0  0  0  0  0  0  0  0  0  0  # atno 14733 bound_to 516 
  137.7932  130.8405  152.7600 LP  0  0  0  0  0  0  0  0  0  0  0  0  # atno 14736 bound_to 2062
  137.7874  129.2078  152.7892 LP  0  0  0  0  0  0  0  0  0  0  0  0  # atno 14737 bound_to 2062
  123.5023  116.3499  172.2740 LP  0  0  0  0  0  0  0  0  0  0  0  0  # atno 14754 bound_to 4326
  126.1413  113.9921  171.5317 LP  0  0  0  0  0  0  0  0  0  0  0  0  # atno 14755 bound_to 4329
  125.4141  113.1096  172.8326 LP  0  0  0  0  0  0  0  0  0  0  0  0  # atno 14756 bound_to 4329
  151.6228  148.2496  170.3937 LP  0  0  0  0  0  0  0  0  0  0  0  0  # atno 14759 bound_to 5102
  151.4424  147.5869  171.8752 LP  0  0  0  0  0  0  0  0  0  0  0  0  # atno 14760 bound_to 5102
  143.1127  123.1375  151.9423 LP  0  0  0  0  0  0  0  0  0  0  0  0  # atno 14769 bound_to 2094
  143.8169  123.6306  153.3307 LP  0  0  0  0  0  0  0  0  0  0  0  0  # atno 14770 bound_to 2094
  144.9732  140.1751  167.5058 LP  0  0  0  0  0  0  0  0  0  0  0  0  # atno 14775 bound_to 4367
  145.8108  139.0827  166.6273 LP  0  0  0  0  0  0  0  0  0  0  0  0  # atno 14776 bound_to 4367
  138.0755  145.3571  190.4501 LP  0  0  0  0  0  0  0  0  0  0  0  0  # atno 14794 bound_to 1124
  137.3111  144.7393  186.7531 LP  0  0  0  0  0  0  0  0  0  0  0  0  # atno 14795 bound_to 1127
  137.0469  143.1148  187.2927 LP  0  0  0  0  0  0  0  0  0  0  0  0  # atno 14796 bound_to 1127
  122.9188  155.5385  186.9118 LP  0  0  0  0  0  0  0  0  0  0  0  0  # atno 14801 bound_to 231 
  121.5415  159.4802  184.8607 LP  0  0  0  0  0  0  0  0  0  0  0  0  # atno 14802 bound_to 234 
  121.3599  158.9682  183.2160 LP  0  0  0  0  0  0  0  0  0  0  0  0  # atno 14803 bound_to 234 
  132.8865  124.9064  151.0942 LP  0  0  0  0  0  0  0  0  0  0  0  0  # atno 14808 bound_to 3033
  110.2816  139.7781  101.7075 LP  0  0  0  0  0  0  0  0  0  0  0  0  # atno 14816 bound_to 266 
  114.3319  141.2458  104.7619 LP  0  0  0  0  0  0  0  0  0  0  0  0  # atno 14817 bound_to 269 
  113.7022  139.6397  104.6070 LP  0  0  0  0  0  0  0  0  0  0  0  0  # atno 14818 bound_to 269 
  122.7103  123.3525  185.6393 LP  0  0  0  0  0  0  0  0  0  0  0  0  # atno 14823 bound_to 4679
  124.5166  120.9348  187.6891 LP  0  0  0  0  0  0  0  0  0  0  0  0  # atno 14824 bound_to 4682
  125.2964  119.5100  187.0877 LP  0  0  0  0  0  0  0  0  0  0  0  0  # atno 14825 bound_to 4682
  134.5303  118.4567  147.1126 LP  0  0  0  0  0  0  0  0  0  0  0  0  # atno 14843 bound_to 3072
  134.6357  120.0672  146.8642 LP  0  0  0  0  0  0  0  0  0  0  0  0  # atno 14844 bound_to 3072
  139.2569  159.4597  184.9158 LP  0  0  0  0  0  0  0  0  0  0  0  0  # atno 14853 bound_to 1430
  135.7063  157.9121  187.2728 LP  0  0  0  0  0  0  0  0  0  0  0  0  # atno 14854 bound_to 1433
  137.0748  157.2036  188.0635 LP  0  0  0  0  0  0  0  0  0  0  0  0  # atno 14855 bound_to 1433
  141.6485  119.6769  147.8255 LP  0  0  0  0  0  0  0  0  0  0  0  0  # atno 14860 bound_to 3104
  142.4228  120.8900  148.5971 LP  0  0  0  0  0  0  0  0  0  0  0  0  # atno 14861 bound_to 3104
  143.8913  135.0601  136.4539 LP  0  0  0  0  0  0  0  0  0  0  0  0  # atno 14880 bound_to 3618
  144.4283  133.5200  136.3747 LP  0  0  0  0  0  0  0  0  0  0  0  0  # atno 14881 bound_to 3618
  151.1177  137.9036  154.6969 LP  0  0  0  0  0  0  0  0  0  0  0  0  # atno 14898 bound_to 379 
  150.3602  136.9405  153.6175 LP  0  0  0  0  0  0  0  0  0  0  0  0  # atno 14899 bound_to 379 
  149.1950  128.9629  150.1939 LP  0  0  0  0  0  0  0  0  0  0  0  0  # atno 14902 bound_to 1482
  149.7637  129.5381  151.6124 LP  0  0  0  0  0  0  0  0  0  0  0  0  # atno 14903 bound_to 1482
  136.3877  116.5966  184.2784 LP  0  0  0  0  0  0  0  0  0  0  0  0  # atno 14912 bound_to 400 
  139.9373  115.2517  183.8337 LP  0  0  0  0  0  0  0  0  0  0  0  0  # atno 14913 bound_to 403 
  139.8451  116.8015  184.6016 LP  0  0  0  0  0  0  0  0  0  0  0  0  # atno 14914 bound_to 403 
  157.4418  131.9048  151.3861 LP  0  0  0  0  0  0  0  0  0  0  0  0  # atno 14925 bound_to 463 
  157.4420  130.7717  150.2102 LP  0  0  0  0  0  0  0  0  0  0  0  0  # atno 14926 bound_to 463 
  118.2133  142.4384  114.0764 LP  0  0  0  0  0  0  0  0  0  0  0  0  # atno 14927 bound_to 464 
  116.7925  143.5267  118.3568 LP  0  0  0  0  0  0  0  0  0  0  0  0  # atno 14928 bound_to 467 
  118.4148  143.4341  117.7572 LP  0  0  0  0  0  0  0  0  0  0  0  0  # atno 14929 bound_to 467 
  114.9724  145.6561  113.9296 LP  0  0  0  0  0  0  0  0  0  0  0  0  # atno 14930 bound_to 470 
  114.7282  144.1686  113.3017 LP  0  0  0  0  0  0  0  0  0  0  0  0  # atno 14931 bound_to 470 

> <Gold.Score>
     Fitness  S(hb_ext) S(vdw_ext)  S(hb_int)    S(int)      intcor
     28.38       2.00      19.32       0.00      -0.18      -0.76

> <Gold.Goldscore.Fitness>
28.3832

> <Gold.Goldscore.Internal.Vdw>
-0.4138

> <Gold.Goldscore.Internal.Torsion>
-0.5249

> <Gold.Goldscore.External.Vdw>
19.3188

> <Gold.Goldscore.Internal.HBond>
0.0000

> <Gold.Goldscore.External.HBond>
2.0000

> <Gold.Goldscore.Internal.Correction>
-0.7585

> <Gold.Goldscore.Hbonds>
donor molecule, donor type, donor heavy atom, donor atom, acceptor molecule, acceptor atom, score
      L1  H    10    23       P1  1425  1.00

> <Gold.Goldscore.Internal.Vdw.Weighted>
-0.4138

> <Gold.Goldscore.Internal.Torsion.Weighted>
-0.5249

> <Gold.Goldscore.External.Vdw.Weighted>
26.5633

> <Gold.Goldscore.Internal.HBond.Weighted>
0.0000

> <Gold.Goldscore.External.HBond.Weighted>
2.0000

> <Gold.Goldscore.Internal.Correction.Weighted>
-0.7585

> <Gold.Rescore>
     Score     S(PLP)   S(hbond)     S(cho)   S(metal)  DE(clash)   DE(tors)     intcor
     16.98     -15.54       0.83       0.00       0.00       0.00       0.52       ----

> <Gold.PLP.Fitness>
16.9787

> <Gold.PLP.PLP>
-15.5385

> <Gold.PLP.part.hbond>
-1.6853

> <Gold.PLP.part.metal>
0.0000

> <Gold.PLP.part.buried>
0.3771

> <Gold.PLP.part.nonpolar>
-19.6726

> <Gold.PLP.part.repulsive>
5.6324

> <Gold.PLP.ligand.clash>
0.0000

> <Gold.PLP.ligand.torsion>
0.5230

> <Gold.PLP.Chemscore.Hbond>
0.8288

> <Gold.PLP.Chemscore.CHOScore>
0.0000

> <Gold.PLP.Chemscore.Metal>
0.0000

> <Gold.Chemscore.Hbonds>
donor molecule, donor type, donor heavy atom, donor atom, acceptor molecule, acceptor atom, score
      L1  H    10    23       P1  1425  1.00

> <Gold.PLP.Chemscore.Internal.Correction>
   9.000000E+99

#       Name:                CT1002167954
#       Creating user name   hitesit
#       Creation time:       Sun Apr 16 23:03:17 2023


#       File generated by GOLD software.
#

@<TRIPOS>MOLECULE
CT1002167954|ligand_prepared|mol2|1|dock3
    29    30     1
SMALL
NO_CHARGES


@<TRIPOS>ATOM
      1 C1         142.5209 130.3949 151.6856 C.3            1 RES1               0.0000
      2 C2         142.1349 128.9025 151.7355 C.ar           1 RES1               0.0000
      3 C3         141.3219 131.1279 151.0912 C.2            1 RES1               0.0000
      4 C4         142.8492 130.7989 153.1187 C.2            1 RES1               0.0000
      5 C5         143.7609 130.6906 150.8100 C.3            1 RES1               0.0000
      6 C6         140.8042 128.5107 151.6240 C.ar           1 RES1               0.0000
      7 C7         143.0969 127.9078 151.8897 C.ar           1 RES1               0.0000
      8 N8         140.5543 131.8732 151.9369 N.am           1 RES1               0.0000
      9 O9         141.0313 131.0218 149.9061 O.2            1 RES1               0.0000
     10 N10        142.0310 131.7110 153.7321 N.am           1 RES1               0.0000
     11 O11        143.7993 130.3230 153.7279 O.2            1 RES1               0.0000
     12 C12        144.0388 132.1737 150.6216 C.3            1 RES1               0.0000
     13 C13        140.4483 127.1727 151.6622 C.ar           1 RES1               0.0000
     14 C14        142.7387 126.5703 151.9279 C.ar           1 RES1               0.0000
     15 C15        140.8806 132.2434 153.2168 C.2            1 RES1               0.0000
     16 C16        141.4151 126.2017 151.8137 C.ar           1 RES1               0.0000
     17 O17        140.1683 133.0165 153.8508 O.2            1 RES1               0.0000
     18 H18        144.6390 130.2226 151.2717 H              1 RES1               0.0000
     19 H19        143.6151 130.2308 149.8247 H              1 RES1               0.0000
     20 H20        140.0293 129.2608 151.5066 H              1 RES1               0.0000
     21 H21        144.1442 128.1745 151.9826 H              1 RES1               0.0000
     22 H22        139.6543 132.1841 151.5852 H              1 RES1               0.0000
     23 H23        142.3049 132.0220 154.6587 H              1 RES1               0.0000
     24 H24        144.9187 132.3252 149.9998 H              1 RES1               0.0000
     25 H25        143.1958 132.6662 150.1415 H              1 RES1               0.0000
     26 H26        144.2136 132.6581 151.5800 H              1 RES1               0.0000
     27 H27        139.4051 126.8879 151.5733 H              1 RES1               0.0000
     28 H28        143.5029 125.8096 152.0479 H              1 RES1               0.0000
     29 H29        141.1361 125.1536 151.8433 H              1 RES1               0.0000
@<TRIPOS>BOND
    1    1    2 1     
    2    1    3 1     
    3    1    4 1     
    4    1    5 1     
    5    2    6 ar    
    6    2    7 ar    
    7    3    8 1     
    8    3    9 2     
    9    4   10 1     
   10    4   11 2     
   11    5   12 1     
   12    5   18 1     
   13    5   19 1     
   14    6   13 ar    
   15    6   20 1     
   16    7   14 ar    
   17    7   21 1     
   18    8   15 1     
   19    8   22 1     
   20   10   15 1     
   21   10   23 1     
   22   12   24 1     
   23   12   25 1     
   24   12   26 1     
   25   13   16 ar    
   26   13   27 1     
   27   14   16 ar    
   28   14   28 1     
   29   15   17 2     
   30   16   29 1     
@<TRIPOS>SUBSTRUCTURE
      1 RES1           1
@<TRIPOS>SET
DONOR_HYDROGENS      STATIC     ATOMS    <user>   **** ""
2 22 23
ATOM$RED        STATIC     ATOMS    COLORGROUP SYSTEM
2 22 23
@<TRIPOS>COMMENT
> <Gold.Version>
2022.3.0

> <Gold.Id.Protein>
unknown|7rmh_cavity_clean|pdb

> <Gold.Protein.RotatedTorsions>
[ 2038 2027 2028 2029 ] final   93.89 input  103.58 | X-H torsion
[ 4286 4281 4282 4283 ] final   -9.16 input  108.09 | X-H torsion
[  535  513  514  515 ] final  141.03 input  105.58 | X-H torsion
[ 2069 2062 2060 2057 ] final   40.62 input   60.00 | X-H torsion
[ 4334 4326 4327 4328 ] final  -90.89 input   45.76 | X-H torsion
[ 5109 5102 5100 5097 ] final   88.57 input   60.01 | X-H torsion
[ 2099 2094 2093 2090 ] final   36.75 input   60.02 | X-H torsion
[ 4376 4367 4366 4364 ] final   88.55 input   59.97 | X-H torsion
[ 1144 1124 1125 1126 ] final  -13.80 input   64.50 | X-H torsion
[  249  231  232  233 ] final  163.30 input  105.30 | X-H torsion
[ 3038 3033 3034 3035 ] final   70.18 input   60.01 | X-H torsion
[  280  266  267  268 ] final  103.84 input  114.84 | X-H torsion
[ 4687 4679 4680 4681 ] final -161.44 input   46.48 | X-H torsion
[ 3081 3072 3071 3069 ] final   72.55 input   59.99 | X-H torsion
[  336  328  327  326 ] final -125.53 input   59.97 | X-H torsion
[ 1444 1430 1431 1432 ] final  -46.31 input   54.63 | X-H torsion
[ 3113 3104 3103 3101 ] final  -84.84 input   60.00 | X-H torsion
[ 3627 3618 3617 3615 ] final -135.34 input   60.02 | X-H torsion
[  387  379  378  376 ] final -148.12 input   59.98 | X-H torsion
[ 1488 1482 1480 1477 ] final  -38.67 input   59.97 | X-H torsion
[  421  400  401  402 ] final   62.26 input   82.00 | X-H torsion
[  472  463  461  458 ] final   12.05 input   59.98 | X-H torsion
[  478  464  465  466 ] final   -0.23 input  115.28 | X-H torsion
[  484  470  468  465 ] final   96.46 input   59.99 | X-H torsion
[ 14714 2030 2029 2028 ] final   -5.86 input    0.00 | X-H torsion
[ 14723 4284 4283 4282 ] final  -93.00 input    0.00 | X-H torsion
[ 14732  516  515  514 ] final  -62.48 input    0.00 | X-H torsion
[ 14755 4329 4328 4327 ] final -132.79 input    0.00 | X-H torsion
[ 14795 1127 1126 1125 ] final -110.15 input   -0.00 | X-H torsion
[ 14802  234  233  232 ] final   42.79 input   -0.00 | X-H torsion
[ 14817  269  268  267 ] final   96.35 input    0.00 | X-H torsion
[ 14824 4682 4681 4680 ] final  163.97 input   -0.00 | X-H torsion
[ 14854 1433 1432 1431 ] final  -62.77 input   -0.00 | X-H torsion
[ 14913  403  402  401 ] final  -62.46 input   -0.00 | X-H torsion
[ 14928  467  466  465 ] final   50.41 input    0.00 | X-H torsion

> <Gold.Protein.ActiveResidues>
 GLU27   LEU30   GLN31   ASP33   LYS34   GLN35   VAL36   TYR37   ARG38   THR40  
 HIS41   ARG42   ILE207  GLU209  HIS220  PHE222  CYS237  PHE238  ASN239  ASP240 
 VAL241  THR242  ARG280  TRP281  ARG283  THR284  ILE285  SER286  ARG356  HIS357 
 TYR358  TYR360  ASP381  ILE382  ILE383  GLN384  ARG385  MET386  HIS387  LEU388 
 ARG389  GLN390  TYR391  GLU392  LEU393  LEU394  ALA56   LYS57   ILE58   TYR59  
 ALA60   MET61   LEU79   ILE80   ILE81   TRP82   ILE93   VAL100  MET101  THR102 
 CYS103  CYS121  ASP312  ASN313  TRP332  ASP333  SER334  PHE335 

> <Gold.Protein.RotatedAtoms>
  122.9223  155.5890  186.9849 H   0  0  0  0  0  0  0  0  0  0  0  0  # atno 249  bound_to 231 
  110.6879  140.7787  101.2844 H   0  0  0  0  0  0  0  0  0  0  0  0  # atno 280  bound_to 266 
  148.8355  144.8822  145.8906 H   0  0  0  0  0  0  0  0  0  0  0  0  # atno 336  bound_to 328 
  149.5889  143.4128  146.0284 H   0  0  0  0  0  0  0  0  0  0  0  0  # atno 337  bound_to 328 
  149.9144  144.6162  147.1193 H   0  0  0  0  0  0  0  0  0  0  0  0  # atno 338  bound_to 328 
  149.8822  137.5683  153.3256 H   0  0  0  0  0  0  0  0  0  0  0  0  # atno 387  bound_to 379 
  137.2672  115.4933  183.2652 H   0  0  0  0  0  0  0  0  0  0  0  0  # atno 421  bound_to 400 
  156.4740  130.6838  150.3368 H   0  0  0  0  0  0  0  0  0  0  0  0  # atno 472  bound_to 463 
  117.6020  141.8953  114.2332 H   0  0  0  0  0  0  0  0  0  0  0  0  # atno 478  bound_to 464 
  114.9407  144.0655  113.2347 H   0  0  0  0  0  0  0  0  0  0  0  0  # atno 484  bound_to 470 
  120.7090  163.6235  165.5188 H   0  0  0  0  0  0  0  0  0  0  0  0  # atno 535  bound_to 513 
  138.3295  144.7721  189.4775 H   0  0  0  0  0  0  0  0  0  0  0  0  # atno 1144 bound_to 1124
  139.4830  159.3832  185.0284 H   0  0  0  0  0  0  0  0  0  0  0  0  # atno 1444 bound_to 1430
  148.1714  129.7404  150.9513 H   0  0  0  0  0  0  0  0  0  0  0  0  # atno 1488 bound_to 1482
  132.5763  163.9501  174.8679 H   0  0  0  0  0  0  0  0  0  0  0  0  # atno 2038 bound_to 2027
  137.8688  129.1721  152.8156 H   0  0  0  0  0  0  0  0  0  0  0  0  # atno 2069 bound_to 2062
  143.7832  123.7363  153.3641 H   0  0  0  0  0  0  0  0  0  0  0  0  # atno 2099 bound_to 2094
  133.6745  124.0746  151.5521 H   0  0  0  0  0  0  0  0  0  0  0  0  # atno 3038 bound_to 3033
  132.9663  125.1594  150.5176 H   0  0  0  0  0  0  0  0  0  0  0  0  # atno 3039 bound_to 3033
  134.6877  119.9928  146.8127 H   0  0  0  0  0  0  0  0  0  0  0  0  # atno 3081 bound_to 3072
  140.8562  120.1171  148.9165 H   0  0  0  0  0  0  0  0  0  0  0  0  # atno 3113 bound_to 3104
  143.8988  135.0323  136.4160 H   0  0  0  0  0  0  0  0  0  0  0  0  # atno 3627 bound_to 3618
  121.0307  119.7283  172.9945 H   0  0  0  0  0  0  0  0  0  0  0  0  # atno 4286 bound_to 4281
  124.8980  117.2019  172.0138 H   0  0  0  0  0  0  0  0  0  0  0  0  # atno 4334 bound_to 4326
  145.8356  139.1200  166.7004 H   0  0  0  0  0  0  0  0  0  0  0  0  # atno 4376 bound_to 4367
  122.7708  123.3845  185.5979 H   0  0  0  0  0  0  0  0  0  0  0  0  # atno 4687 bound_to 4679
  150.1333  147.8469  171.1389 H   0  0  0  0  0  0  0  0  0  0  0  0  # atno 5109 bound_to 5102
  132.3873  162.9525  176.2907 LP  0  0  0  0  0  0  0  0  0  0  0  0  # atno 14713 bound_to 2027
  128.6628  161.5646  175.3160 LP  0  0  0  0  0  0  0  0  0  0  0  0  # atno 14714 bound_to 2030
  129.0617  160.5362  173.9806 LP  0  0  0  0  0  0  0  0  0  0  0  0  # atno 14715 bound_to 2030
  119.5057  120.5276  172.7025 LP  0  0  0  0  0  0  0  0  0  0  0  0  # atno 14722 bound_to 4281
  121.0854  116.2012  171.2453 LP  0  0  0  0  0  0  0  0  0  0  0  0  # atno 14723 bound_to 4284
  120.9247  116.7651  169.6155 LP  0  0  0  0  0  0  0  0  0  0  0  0  # atno 14724 bound_to 4284
  122.2549  163.7582  166.3225 LP  0  0  0  0  0  0  0  0  0  0  0  0  # atno 14731 bound_to 513 
  123.4600  164.6797  163.2507 LP  0  0  0  0  0  0  0  0  0  0  0  0  # atno 14732 bound_to 516 
  124.5487  164.7042  164.5976 LP  0  0  0  0  0  0  0  0  0  0  0  0  # atno 14733 bound_to 516 
  139.1435  130.1191  153.1697 LP  0  0  0  0  0  0  0  0  0  0  0  0  # atno 14736 bound_to 2062
  137.7184  130.7903  152.7391 LP  0  0  0  0  0  0  0  0  0  0  0  0  # atno 14737 bound_to 2062
  123.7130  115.9106  171.9913 LP  0  0  0  0  0  0  0  0  0  0  0  0  # atno 14754 bound_to 4326
  126.1680  112.9914  172.7157 LP  0  0  0  0  0  0  0  0  0  0  0  0  # atno 14755 bound_to 4329
  125.3874  114.1103  171.6486 LP  0  0  0  0  0  0  0  0  0  0  0  0  # atno 14756 bound_to 4329
  151.4594  148.2821  170.3025 LP  0  0  0  0  0  0  0  0  0  0  0  0  # atno 14759 bound_to 5102
  151.6076  147.6311  171.7927 LP  0  0  0  0  0  0  0  0  0  0  0  0  # atno 14760 bound_to 5102
  142.7350  124.5776  152.4465 LP  0  0  0  0  0  0  0  0  0  0  0  0  # atno 14769 bound_to 2094
  143.1871  123.0724  152.0031 LP  0  0  0  0  0  0  0  0  0  0  0  0  # atno 14770 bound_to 2094
  144.3962  139.5403  166.0679 LP  0  0  0  0  0  0  0  0  0  0  0  0  # atno 14775 bound_to 4367
  144.8966  140.1998  167.4755 LP  0  0  0  0  0  0  0  0  0  0  0  0  # atno 14776 bound_to 4367
  138.3409  146.4775  189.8804 LP  0  0  0  0  0  0  0  0  0  0  0  0  # atno 14794 bound_to 1124
  136.5974  144.1592  186.4247 LP  0  0  0  0  0  0  0  0  0  0  0  0  # atno 14795 bound_to 1127
  137.7606  143.6950  187.6211 LP  0  0  0  0  0  0  0  0  0  0  0  0  # atno 14796 bound_to 1127
  121.2950  155.8073  186.3892 LP  0  0  0  0  0  0  0  0  0  0  0  0  # atno 14801 bound_to 231 
  122.3083  159.3451  184.0426 LP  0  0  0  0  0  0  0  0  0  0  0  0  # atno 14802 bound_to 234 
  120.5932  159.1034  184.0342 LP  0  0  0  0  0  0  0  0  0  0  0  0  # atno 14803 bound_to 234 
  134.3564  124.3916  150.0883 LP  0  0  0  0  0  0  0  0  0  0  0  0  # atno 14808 bound_to 3033
  110.1808  140.3003  102.8858 LP  0  0  0  0  0  0  0  0  0  0  0  0  # atno 14816 bound_to 266 
  114.7047  140.5439  104.1679 LP  0  0  0  0  0  0  0  0  0  0  0  0  # atno 14817 bound_to 269 
  113.3294  140.3415  105.2010 LP  0  0  0  0  0  0  0  0  0  0  0  0  # atno 14818 bound_to 269 
  123.2893  122.5165  187.0263 LP  0  0  0  0  0  0  0  0  0  0  0  0  # atno 14823 bound_to 4679
  124.5363  119.4912  187.6681 LP  0  0  0  0  0  0  0  0  0  0  0  0  # atno 14824 bound_to 4682
  125.2767  120.9536  187.1086 LP  0  0  0  0  0  0  0  0  0  0  0  0  # atno 14825 bound_to 4682
  133.6743  119.5862  148.0198 LP  0  0  0  0  0  0  0  0  0  0  0  0  # atno 14843 bound_to 3072
  134.4666  118.4248  147.1892 LP  0  0  0  0  0  0  0  0  0  0  0  0  # atno 14844 bound_to 3072
  139.1749  160.9664  185.7064 LP  0  0  0  0  0  0  0  0  0  0  0  0  # atno 14853 bound_to 1430
  137.0792  157.2562  188.0980 LP  0  0  0  0  0  0  0  0  0  0  0  0  # atno 14854 bound_to 1433
  135.7019  157.8594  187.2383 LP  0  0  0  0  0  0  0  0  0  0  0  0  # atno 14855 bound_to 1433
  141.9653  119.8324  147.7609 LP  0  0  0  0  0  0  0  0  0  0  0  0  # atno 14860 bound_to 3104
  142.2213  121.0010  148.8725 LP  0  0  0  0  0  0  0  0  0  0  0  0  # atno 14861 bound_to 3104
  144.4359  133.4966  136.4150 LP  0  0  0  0  0  0  0  0  0  0  0  0  # atno 14880 bound_to 3618
  144.1503  134.2641  137.8278 LP  0  0  0  0  0  0  0  0  0  0  0  0  # atno 14881 bound_to 3618
  150.5232  138.6734  154.3339 LP  0  0  0  0  0  0  0  0  0  0  0  0  # atno 14898 bound_to 379 
  151.0446  137.1265  154.3756 LP  0  0  0  0  0  0  0  0  0  0  0  0  # atno 14899 bound_to 379 
  149.4195  128.9339  150.2869 LP  0  0  0  0  0  0  0  0  0  0  0  0  # atno 14902 bound_to 1482
  149.5955  129.6659  151.7360 LP  0  0  0  0  0  0  0  0  0  0  0  0  # atno 14903 bound_to 1482
  136.2291  116.4707  184.2784 LP  0  0  0  0  0  0  0  0  0  0  0  0  # atno 14912 bound_to 400 
  139.7060  115.3456  183.7156 LP  0  0  0  0  0  0  0  0  0  0  0  0  # atno 14913 bound_to 403 
  140.0763  116.7075  184.7197 LP  0  0  0  0  0  0  0  0  0  0  0  0  # atno 14914 bound_to 403 
  156.5519  131.8185  151.5006 LP  0  0  0  0  0  0  0  0  0  0  0  0  # atno 14925 bound_to 463 
  157.9063  131.3586  150.7127 LP  0  0  0  0  0  0  0  0  0  0  0  0  # atno 14926 bound_to 463 
  117.2896  143.2899  113.2254 LP  0  0  0  0  0  0  0  0  0  0  0  0  # atno 14927 bound_to 464 
  117.0463  144.1370  117.9653 LP  0  0  0  0  0  0  0  0  0  0  0  0  # atno 14928 bound_to 467 
  118.1609  142.8239  118.1486 LP  0  0  0  0  0  0  0  0  0  0  0  0  # atno 14929 bound_to 467 
  116.2461  145.0008  113.4982 LP  0  0  0  0  0  0  0  0  0  0  0  0  # atno 14930 bound_to 470 
  114.7580  145.5385  113.9019 LP  0  0  0  0  0  0  0  0  0  0  0  0  # atno 14931 bound_to 470 

> <Gold.Score>
     Fitness  S(hb_ext) S(vdw_ext)  S(hb_int)    S(int)      intcor
     28.32       1.12      20.81       0.00      -1.41      -0.77

> <Gold.Goldscore.Fitness>
28.3205

> <Gold.Goldscore.Internal.Vdw>
-1.7293

> <Gold.Goldscore.Internal.Torsion>
-0.4507

> <Gold.Goldscore.External.Vdw>
20.8116

> <Gold.Goldscore.Internal.HBond>
0.0000

> <Gold.Goldscore.External.HBond>
1.1192

> <Gold.Goldscore.Internal.Correction>
-0.7653

> <Gold.Goldscore.Hbonds>
donor molecule, donor type, donor heavy atom, donor atom, acceptor molecule, acceptor atom, score
      L1  H    10    23       P1  1425  0.56

> <Gold.Goldscore.Internal.Vdw.Weighted>
-1.7293

> <Gold.Goldscore.Internal.Torsion.Weighted>
-0.4507

> <Gold.Goldscore.External.Vdw.Weighted>
28.6159

> <Gold.Goldscore.Internal.HBond.Weighted>
0.0000

> <Gold.Goldscore.External.HBond.Weighted>
1.1192

> <Gold.Goldscore.Internal.Correction.Weighted>
-0.7653

> <Gold.Rescore>
     Score     S(PLP)   S(hbond)     S(cho)   S(metal)  DE(clash)   DE(tors)     intcor
     17.44     -19.60       0.00       0.00       0.00       1.87       0.15       ----

> <Gold.PLP.Fitness>
17.4364

> <Gold.PLP.PLP>
-19.6014

> <Gold.PLP.part.hbond>
0.0000

> <Gold.PLP.part.metal>
0.0000

> <Gold.PLP.part.buried>
0.7094

> <Gold.PLP.part.nonpolar>
-21.9800

> <Gold.PLP.part.repulsive>
0.6247

> <Gold.PLP.ligand.clash>
1.8668

> <Gold.PLP.ligand.torsion>
0.1491

> <Gold.PLP.Chemscore.Hbond>
0.0000

> <Gold.PLP.Chemscore.CHOScore>
0.0000

> <Gold.PLP.Chemscore.Metal>
0.0000

> <Gold.PLP.Chemscore.Internal.Correction>
   9.000000E+99

#       Name:                CT1002167954
#       Creating user name   hitesit
#       Creation time:       Sun Apr 16 23:03:05 2023


#       File generated by GOLD software.
#

@<TRIPOS>MOLECULE
CT1002167954|ligand_prepared|mol2|1|dock2
    29    30     1
SMALL
NO_CHARGES


@<TRIPOS>ATOM
      1 C1         144.4800 132.2589 150.6331 C.3            1 RES1               0.0000
      2 C2         144.0849 130.7853 150.8591 C.ar           1 RES1               0.0000
      3 C3         145.0919 132.7443 151.9439 C.2            1 RES1               0.0000
      4 C4         145.4476 132.2652 149.4548 C.2            1 RES1               0.0000
      5 C5         143.2881 133.1779 150.2774 C.3            1 RES1               0.0000
      6 C6         142.8989 130.4616 151.5114 C.ar           1 RES1               0.0000
      7 C7         144.8933 129.7404 150.4193 C.ar           1 RES1               0.0000
      8 N8         146.4446 132.9130 151.9854 N.am           1 RES1               0.0000
      9 O9         144.4027 132.9380 152.9377 O.2            1 RES1               0.0000
     10 N10        146.7437 132.6425 149.6904 N.am           1 RES1               0.0000
     11 O11        145.1034 131.9310 148.3278 O.2            1 RES1               0.0000
     12 C12        143.7021 134.5476 149.7631 C.3            1 RES1               0.0000
     13 C13        142.5329 129.1413 151.7142 C.ar           1 RES1               0.0000
     14 C14        144.5254 128.4207 150.6234 C.ar           1 RES1               0.0000
     15 C15        147.2936 132.9371 150.9082 C.2            1 RES1               0.0000
     16 C16        143.3455 128.1201 151.2700 C.ar           1 RES1               0.0000
     17 O17        148.4812 133.2150 151.0475 O.2            1 RES1               0.0000
     18 H18        142.6770 132.6833 149.5124 H              1 RES1               0.0000
     19 H19        142.6651 133.3097 151.1706 H              1 RES1               0.0000
     20 H20        142.2479 131.2519 151.8702 H              1 RES1               0.0000
     21 H21        145.8265 129.9532 149.9091 H              1 RES1               0.0000
     22 H22        146.8636 133.0322 152.9022 H              1 RES1               0.0000
     23 H23        147.3553 132.7101 148.8831 H              1 RES1               0.0000
     24 H24        142.8283 135.1519 149.5286 H              1 RES1               0.0000
     25 H25        144.2907 135.0779 150.5088 H              1 RES1               0.0000
     26 H26        144.3025 134.4553 148.8604 H              1 RES1               0.0000
     27 H27        141.6039 128.9100 152.2249 H              1 RES1               0.0000
     28 H28        145.1683 127.6202 150.2726 H              1 RES1               0.0000
     29 H29        143.0583 127.0859 151.4287 H              1 RES1               0.0000
@<TRIPOS>BOND
    1    1    2 1     
    2    1    3 1     
    3    1    4 1     
    4    1    5 1     
    5    2    6 ar    
    6    2    7 ar    
    7    3    8 1     
    8    3    9 2     
    9    4   10 1     
   10    4   11 2     
   11    5   12 1     
   12    5   18 1     
   13    5   19 1     
   14    6   13 ar    
   15    6   20 1     
   16    7   14 ar    
   17    7   21 1     
   18    8   15 1     
   19    8   22 1     
   20   10   15 1     
   21   10   23 1     
   22   12   24 1     
   23   12   25 1     
   24   12   26 1     
   25   13   16 ar    
   26   13   27 1     
   27   14   16 ar    
   28   14   28 1     
   29   15   17 2     
   30   16   29 1     
@<TRIPOS>SUBSTRUCTURE
      1 RES1           1
@<TRIPOS>SET
DONOR_HYDROGENS      STATIC     ATOMS    <user>   **** ""
2 22 23
ATOM$RED        STATIC     ATOMS    COLORGROUP SYSTEM
2 22 23
@<TRIPOS>COMMENT
> <Gold.Version>
2022.3.0

> <Gold.Id.Protein>
unknown|7rmh_cavity_clean|pdb

> <Gold.Protein.RotatedTorsions>
[ 2038 2027 2028 2029 ] final  140.97 input  103.58 | X-H torsion
[ 4286 4281 4282 4283 ] final  146.91 input  108.09 | X-H torsion
[  535  513  514  515 ] final  172.86 input  105.58 | X-H torsion
[ 2069 2062 2060 2057 ] final  -81.00 input   60.00 | X-H torsion
[ 4334 4326 4327 4328 ] final   89.03 input   45.76 | X-H torsion
[ 5109 5102 5100 5097 ] final -175.35 input   60.01 | X-H torsion
[ 2099 2094 2093 2090 ] final  -69.94 input   60.02 | X-H torsion
[ 4376 4367 4366 4364 ] final   21.89 input   59.97 | X-H torsion
[ 1144 1124 1125 1126 ] final -126.73 input   64.50 | X-H torsion
[  249  231  232  233 ] final   63.22 input  105.30 | X-H torsion
[ 3038 3033 3034 3035 ] final  152.30 input   60.01 | X-H torsion
[  280  266  267  268 ] final   60.64 input  114.84 | X-H torsion
[ 4687 4679 4680 4681 ] final   45.82 input   46.48 | X-H torsion
[ 3081 3072 3071 3069 ] final   38.52 input   59.99 | X-H torsion
[  336  328  327  326 ] final -109.58 input   59.97 | X-H torsion
[ 1444 1430 1431 1432 ] final   85.40 input   54.63 | X-H torsion
[ 3113 3104 3103 3101 ] final   30.07 input   60.00 | X-H torsion
[ 3627 3618 3617 3615 ] final  -66.92 input   60.02 | X-H torsion
[  387  379  378  376 ] final  -36.36 input   59.98 | X-H torsion
[ 1488 1482 1480 1477 ] final  -20.49 input   59.97 | X-H torsion
[  421  400  401  402 ] final -167.85 input   82.00 | X-H torsion
[  472  463  461  458 ] final  -71.70 input   59.98 | X-H torsion
[  478  464  465  466 ] final  109.85 input  115.28 | X-H torsion
[  484  470  468  465 ] final   32.14 input   59.99 | X-H torsion
[ 14714 2030 2029 2028 ] final -174.01 input    0.00 | X-H torsion
[ 14723 4284 4283 4282 ] final   59.51 input    0.00 | X-H torsion
[ 14732  516  515  514 ] final -175.07 input    0.00 | X-H torsion
[ 14755 4329 4328 4327 ] final   45.13 input    0.00 | X-H torsion
[ 14795 1127 1126 1125 ] final  149.62 input   -0.00 | X-H torsion
[ 14802  234  233  232 ] final  -75.54 input   -0.00 | X-H torsion
[ 14817  269  268  267 ] final   46.25 input    0.00 | X-H torsion
[ 14824 4682 4681 4680 ] final  144.19 input   -0.00 | X-H torsion
[ 14854 1433 1432 1431 ] final  -62.63 input   -0.00 | X-H torsion
[ 14913  403  402  401 ] final  134.58 input   -0.00 | X-H torsion
[ 14928  467  466  465 ] final   26.18 input    0.00 | X-H torsion

> <Gold.Protein.ActiveResidues>
 GLU27   LEU30   GLN31   ASP33   LYS34   GLN35   VAL36   TYR37   ARG38   THR40  
 HIS41   ARG42   ILE207  GLU209  HIS220  PHE222  CYS237  PHE238  ASN239  ASP240 
 VAL241  THR242  ARG280  TRP281  ARG283  THR284  ILE285  SER286  ARG356  HIS357 
 TYR358  TYR360  ASP381  ILE382  ILE383  GLN384  ARG385  MET386  HIS387  LEU388 
 ARG389  GLN390  TYR391  GLU392  LEU393  LEU394  ALA56   LYS57   ILE58   TYR59  
 ALA60   MET61   LEU79   ILE80   ILE81   TRP82   ILE93   VAL100  MET101  THR102 
 CYS103  CYS121  ASP312  ASN313  TRP332  ASP333  SER334  PHE335 

> <Gold.Protein.RotatedAtoms>
  122.1273  155.1836  185.9690 H   0  0  0  0  0  0  0  0  0  0  0  0  # atno 249  bound_to 231 
  110.7450  141.2667  101.7090 H   0  0  0  0  0  0  0  0  0  0  0  0  # atno 280  bound_to 266 
  148.8073  144.6689  145.7349 H   0  0  0  0  0  0  0  0  0  0  0  0  # atno 336  bound_to 328 
  149.7545  143.4049  146.2356 H   0  0  0  0  0  0  0  0  0  0  0  0  # atno 337  bound_to 328 
  149.7768  144.8373  147.0676 H   0  0  0  0  0  0  0  0  0  0  0  0  # atno 338  bound_to 328 
  150.9835  137.0472  154.2849 H   0  0  0  0  0  0  0  0  0  0  0  0  # atno 387  bound_to 379 
  135.9179  115.8308  184.0711 H   0  0  0  0  0  0  0  0  0  0  0  0  # atno 421  bound_to 400 
  156.1494  131.4834  151.2410 H   0  0  0  0  0  0  0  0  0  0  0  0  # atno 472  bound_to 463 
  116.6002  142.5983  113.4513 H   0  0  0  0  0  0  0  0  0  0  0  0  # atno 478  bound_to 464 
  115.9213  144.2412  113.2022 H   0  0  0  0  0  0  0  0  0  0  0  0  # atno 484  bound_to 470 
  120.7240  163.2607  165.8397 H   0  0  0  0  0  0  0  0  0  0  0  0  # atno 535  bound_to 513 
  138.0494  145.8050  190.5140 H   0  0  0  0  0  0  0  0  0  0  0  0  # atno 1144 bound_to 1124
  138.6403  160.7437  185.2848 H   0  0  0  0  0  0  0  0  0  0  0  0  # atno 1444 bound_to 1430
  148.2472  129.8567  151.2127 H   0  0  0  0  0  0  0  0  0  0  0  0  # atno 1488 bound_to 1482
  132.4107  164.3159  175.4491 H   0  0  0  0  0  0  0  0  0  0  0  0  # atno 2038 bound_to 2027
  139.1335  130.1446  153.1681 H   0  0  0  0  0  0  0  0  0  0  0  0  # atno 2069 bound_to 2062
  142.8293  124.6380  152.6334 H   0  0  0  0  0  0  0  0  0  0  0  0  # atno 2099 bound_to 2094
  132.8691  124.9188  151.0823 H   0  0  0  0  0  0  0  0  0  0  0  0  # atno 3038 bound_to 3033
  133.9664  124.8027  149.8449 H   0  0  0  0  0  0  0  0  0  0  0  0  # atno 3039 bound_to 3033
  134.3632  120.2532  147.1697 H   0  0  0  0  0  0  0  0  0  0  0  0  # atno 3081 bound_to 3072
  142.1593  121.0061  148.9285 H   0  0  0  0  0  0  0  0  0  0  0  0  # atno 3113 bound_to 3104
  143.9113  134.9567  137.4653 H   0  0  0  0  0  0  0  0  0  0  0  0  # atno 3627 bound_to 3618
  119.7205  120.7345  172.4966 H   0  0  0  0  0  0  0  0  0  0  0  0  # atno 4286 bound_to 4281
  123.7030  115.8710  172.0190 H   0  0  0  0  0  0  0  0  0  0  0  0  # atno 4334 bound_to 4326
  145.0949  139.0745  165.9877 H   0  0  0  0  0  0  0  0  0  0  0  0  # atno 4376 bound_to 4367
  123.6393  122.7176  186.9353 H   0  0  0  0  0  0  0  0  0  0  0  0  # atno 4687 bound_to 4679
  151.2479  147.5546  171.9204 H   0  0  0  0  0  0  0  0  0  0  0  0  # atno 5109 bound_to 5102
  132.5490  162.5952  175.7231 LP  0  0  0  0  0  0  0  0  0  0  0  0  # atno 14713 bound_to 2027
  129.1467  160.4394  174.1045 LP  0  0  0  0  0  0  0  0  0  0  0  0  # atno 14714 bound_to 2030
  128.5778  161.6614  175.1921 LP  0  0  0  0  0  0  0  0  0  0  0  0  # atno 14715 bound_to 2030
  120.7902  119.5411  173.1906 LP  0  0  0  0  0  0  0  0  0  0  0  0  # atno 14722 bound_to 4281
  120.5376  116.7568  169.7547 LP  0  0  0  0  0  0  0  0  0  0  0  0  # atno 14723 bound_to 4284
  121.4726  116.2095  171.1061 LP  0  0  0  0  0  0  0  0  0  0  0  0  # atno 14724 bound_to 4284
  122.2402  164.1129  166.0088 LP  0  0  0  0  0  0  0  0  0  0  0  0  # atno 14731 bound_to 513 
  124.8183  164.5020  163.6976 LP  0  0  0  0  0  0  0  0  0  0  0  0  # atno 14732 bound_to 516 
  123.1903  164.8818  164.1508 LP  0  0  0  0  0  0  0  0  0  0  0  0  # atno 14733 bound_to 516 
  137.6977  130.7744  152.7333 LP  0  0  0  0  0  0  0  0  0  0  0  0  # atno 14736 bound_to 2062
  137.8897  129.1550  152.8202 LP  0  0  0  0  0  0  0  0  0  0  0  0  # atno 14737 bound_to 2062
  124.8597  117.1876  171.9863 LP  0  0  0  0  0  0  0  0  0  0  0  0  # atno 14754 bound_to 4326
  125.3604  114.1052  171.6639 LP  0  0  0  0  0  0  0  0  0  0  0  0  # atno 14755 bound_to 4329
  126.1950  112.9965  172.7004 LP  0  0  0  0  0  0  0  0  0  0  0  0  # atno 14756 bound_to 4329
  150.1724  148.0075  170.7864 LP  0  0  0  0  0  0  0  0  0  0  0  0  # atno 14759 bound_to 5102
  151.7723  148.2001  170.5218 LP  0  0  0  0  0  0  0  0  0  0  0  0  # atno 14760 bound_to 5102
  143.0483  123.2036  151.8968 LP  0  0  0  0  0  0  0  0  0  0  0  0  # atno 14769 bound_to 2094
  143.8343  123.5384  153.2885 LP  0  0  0  0  0  0  0  0  0  0  0  0  # atno 14770 bound_to 2094
  144.2874  140.1624  166.8893 LP  0  0  0  0  0  0  0  0  0  0  0  0  # atno 14775 bound_to 4367
  145.7514  139.6235  167.3719 LP  0  0  0  0  0  0  0  0  0  0  0  0  # atno 14776 bound_to 4367
  138.6099  145.4854  188.8848 LP  0  0  0  0  0  0  0  0  0  0  0  0  # atno 14794 bound_to 1124
  136.9190  143.1169  187.1842 LP  0  0  0  0  0  0  0  0  0  0  0  0  # atno 14795 bound_to 1127
  137.4390  144.7373  186.8616 LP  0  0  0  0  0  0  0  0  0  0  0  0  # atno 14796 bound_to 1127
  122.0741  156.2048  187.3850 LP  0  0  0  0  0  0  0  0  0  0  0  0  # atno 14801 bound_to 231 
  121.0104  159.3787  184.7679 LP  0  0  0  0  0  0  0  0  0  0  0  0  # atno 14802 bound_to 234 
  121.8911  159.0697  183.3088 LP  0  0  0  0  0  0  0  0  0  0  0  0  # atno 14803 bound_to 234 
  134.1640  123.9118  151.2137 LP  0  0  0  0  0  0  0  0  0  0  0  0  # atno 14808 bound_to 3033
  110.1249  139.8219  102.4697 LP  0  0  0  0  0  0  0  0  0  0  0  0  # atno 14816 bound_to 266 
  114.3940  139.8800  104.1448 LP  0  0  0  0  0  0  0  0  0  0  0  0  # atno 14817 bound_to 269 
  113.6401  141.0055  105.2241 LP  0  0  0  0  0  0  0  0  0  0  0  0  # atno 14818 bound_to 269 
  122.4488  123.1619  185.7320 LP  0  0  0  0  0  0  0  0  0  0  0  0  # atno 14823 bound_to 4679
  124.3618  119.6913  187.8022 LP  0  0  0  0  0  0  0  0  0  0  0  0  # atno 14824 bound_to 4682
  125.4512  120.7535  186.9745 LP  0  0  0  0  0  0  0  0  0  0  0  0  # atno 14825 bound_to 4682
  133.7057  119.0354  148.0264 LP  0  0  0  0  0  0  0  0  0  0  0  0  # atno 14843 bound_to 3072
  134.7619  118.7136  146.8232 LP  0  0  0  0  0  0  0  0  0  0  0  0  # atno 14844 bound_to 3072
  139.9924  159.6467  185.4577 LP  0  0  0  0  0  0  0  0  0  0  0  0  # atno 14853 bound_to 1430
  137.0793  157.2581  188.0992 LP  0  0  0  0  0  0  0  0  0  0  0  0  # atno 14854 bound_to 1433
  135.7018  157.8576  187.2371 LP  0  0  0  0  0  0  0  0  0  0  0  0  # atno 14855 bound_to 1433
  140.8391  120.0580  148.8597 LP  0  0  0  0  0  0  0  0  0  0  0  0  # atno 14860 bound_to 3104
  142.0344  119.8796  147.7615 LP  0  0  0  0  0  0  0  0  0  0  0  0  # atno 14861 bound_to 3104
  144.1278  134.3993  135.9523 LP  0  0  0  0  0  0  0  0  0  0  0  0  # atno 14880 bound_to 3618
  144.4457  133.4377  137.2333 LP  0  0  0  0  0  0  0  0  0  0  0  0  # atno 14881 bound_to 3618
  149.8398  137.6966  153.3261 LP  0  0  0  0  0  0  0  0  0  0  0  0  # atno 14898 bound_to 379 
  150.6193  138.6279  154.4177 LP  0  0  0  0  0  0  0  0  0  0  0  0  # atno 14899 bound_to 379 
  149.1442  128.9737  150.1805 LP  0  0  0  0  0  0  0  0  0  0  0  0  # atno 14902 bound_to 1482
  149.7945  129.5091  151.5795 LP  0  0  0  0  0  0  0  0  0  0  0  0  # atno 14903 bound_to 1482
  137.5399  116.1429  183.4956 LP  0  0  0  0  0  0  0  0  0  0  0  0  # atno 14912 bound_to 400 
  140.2748  116.5579  184.7838 LP  0  0  0  0  0  0  0  0  0  0  0  0  # atno 14913 bound_to 403 
  139.5076  115.4953  183.6515 LP  0  0  0  0  0  0  0  0  0  0  0  0  # atno 14914 bound_to 403 
  157.7539  131.7339  151.1371 LP  0  0  0  0  0  0  0  0  0  0  0  0  # atno 14925 bound_to 463 
  157.0311  130.6381  150.1658 LP  0  0  0  0  0  0  0  0  0  0  0  0  # atno 14926 bound_to 463 
  118.2650  142.6054  113.9867 LP  0  0  0  0  0  0  0  0  0  0  0  0  # atno 14927 bound_to 464 
  117.3397  144.2608  117.7900 LP  0  0  0  0  0  0  0  0  0  0  0  0  # atno 14928 bound_to 467 
  117.8676  142.7000  118.3240 LP  0  0  0  0  0  0  0  0  0  0  0  0  # atno 14929 bound_to 467 
  115.6242  145.6937  113.8732 LP  0  0  0  0  0  0  0  0  0  0  0  0  # atno 14930 bound_to 470 
  114.3923  144.6687  113.5597 LP  0  0  0  0  0  0  0  0  0  0  0  0  # atno 14931 bound_to 470 

> <Gold.Score>
     Fitness  S(hb_ext) S(vdw_ext)  S(hb_int)    S(int)      intcor
     27.80       6.52      16.14       0.00      -0.91      -0.77

> <Gold.Goldscore.Fitness>
27.7983

> <Gold.Goldscore.Internal.Vdw>
-1.0689

> <Gold.Goldscore.Internal.Torsion>
-0.6065

> <Gold.Goldscore.External.Vdw>
16.1367

> <Gold.Goldscore.Internal.HBond>
0.0000

> <Gold.Goldscore.External.HBond>
6.5203

> <Gold.Goldscore.Internal.Correction>
-0.7653

> <Gold.Goldscore.Hbonds>
donor molecule, donor type, donor heavy atom, donor atom, acceptor molecule, acceptor atom, score
      P1  H   512   525       L1    17  1.00
      L1  H     8    22       P1  1453  0.26

> <Gold.Goldscore.Internal.Vdw.Weighted>
-1.0689

> <Gold.Goldscore.Internal.Torsion.Weighted>
-0.6065

> <Gold.Goldscore.External.Vdw.Weighted>
22.1880

> <Gold.Goldscore.Internal.HBond.Weighted>
0.0000

> <Gold.Goldscore.External.HBond.Weighted>
6.5203

> <Gold.Goldscore.Internal.Correction.Weighted>
-0.7653

> <Gold.Rescore>
     Score     S(PLP)   S(hbond)     S(cho)   S(metal)  DE(clash)   DE(tors)     intcor
     27.36     -23.05       2.00       0.00       0.00       0.51       0.59       ----

> <Gold.PLP.Fitness>
27.3604

> <Gold.PLP.PLP>
-23.0519

> <Gold.PLP.part.hbond>
-1.7670

> <Gold.PLP.part.metal>
0.0000

> <Gold.PLP.part.buried>
-3.3148

> <Gold.PLP.part.nonpolar>
-19.0085

> <Gold.PLP.part.repulsive>
0.5942

> <Gold.PLP.ligand.clash>
0.5112

> <Gold.PLP.ligand.torsion>
0.5902

> <Gold.PLP.Chemscore.Hbond>
2.0000

> <Gold.PLP.Chemscore.CHOScore>
0.0000

> <Gold.PLP.Chemscore.Metal>
0.0000

> <Gold.Chemscore.Hbonds>
donor molecule, donor type, donor heavy atom, donor atom, acceptor molecule, acceptor atom, score
      L1  H     8    22       P1  1453  0.15
      P1  H   512   525       L1    17  0.84

> <Gold.PLP.Chemscore.Internal.Correction>
   9.000000E+99

