#       Name:                CT1002167954
#       Creating user name   hitesit
#       Creation time:       Sun Apr 16 23:03:28 2023


#       File generated by GOLD software.
#

@<TRIPOS>MOLECULE
CT1002167954|ligand_prepared|mol2|1|dock4
    29    30     1
SMALL
NO_CHARGES


@<TRIPOS>ATOM
      1 C1         145.5046 132.1832 150.6227 C.3            1 RES1               0.0000
      2 C2         144.3550 131.8154 151.5829 C.ar           1 RES1               0.0000
      3 C3         146.1120 133.4768 151.1573 C.2            1 RES1               0.0000
      4 C4         146.4622 130.9968 150.6295 C.2            1 RES1               0.0000
      5 C5         145.0486 132.4207 149.1642 C.3            1 RES1               0.0000
      6 C6         144.5695 131.7605 152.9568 C.ar           1 RES1               0.0000
      7 C7         143.0763 131.5316 151.1107 C.ar           1 RES1               0.0000
      8 N8         147.3258 133.3972 151.7741 N.am           1 RES1               0.0000
      9 O9         145.5172 134.5443 151.0741 O.2            1 RES1               0.0000
     10 N10        147.7166 131.1872 151.1473 N.am           1 RES1               0.0000
     11 O11        146.1363 129.8945 150.2064 O.2            1 RES1               0.0000
     12 C12        146.1538 132.9276 148.2511 C.3            1 RES1               0.0000
     13 C13        143.5423 131.4365 153.8275 C.ar           1 RES1               0.0000
     14 C14        142.0505 131.2075 151.9832 C.ar           1 RES1               0.0000
     15 C15        148.1814 132.3254 151.7479 C.2            1 RES1               0.0000
     16 C16        142.2821 131.1603 153.3414 C.ar           1 RES1               0.0000
     17 O17        149.3039 132.4024 152.2390 O.2            1 RES1               0.0000
     18 H18        144.6592 131.4790 148.7582 H              1 RES1               0.0000
     19 H19        144.2290 133.1499 149.1648 H              1 RES1               0.0000
     20 H20        145.5552 131.9723 153.3576 H              1 RES1               0.0000
     21 H21        142.8712 131.5616 150.0460 H              1 RES1               0.0000
     22 H22        147.6249 134.2098 152.3038 H              1 RES1               0.0000
     23 H23        148.3639 130.4083 151.0784 H              1 RES1               0.0000
     24 H24        145.7805 133.0775 147.2402 H              1 RES1               0.0000
     25 H25        146.5471 133.8759 148.6112 H              1 RES1               0.0000
     26 H26        146.9748 132.2149 148.2070 H              1 RES1               0.0000
     27 H27        143.7301 131.3993 154.8955 H              1 RES1               0.0000
     28 H28        141.0604 130.9903 151.5961 H              1 RES1               0.0000
     29 H29        141.4774 130.9068 154.0237 H              1 RES1               0.0000
@<TRIPOS>BOND
    1    1    2 1     
    2    1    3 1     
    3    1    4 1     
    4    1    5 1     
    5    2    6 ar    
    6    2    7 ar    
    7    3    8 1     
    8    3    9 2     
    9    4   10 1     
   10    4   11 2     
   11    5   12 1     
   12    5   18 1     
   13    5   19 1     
   14    6   13 ar    
   15    6   20 1     
   16    7   14 ar    
   17    7   21 1     
   18    8   15 1     
   19    8   22 1     
   20   10   15 1     
   21   10   23 1     
   22   12   24 1     
   23   12   25 1     
   24   12   26 1     
   25   13   16 ar    
   26   13   27 1     
   27   14   16 ar    
   28   14   28 1     
   29   15   17 2     
   30   16   29 1     
@<TRIPOS>SUBSTRUCTURE
      1 RES1           1
@<TRIPOS>SET
DONOR_HYDROGENS      STATIC     ATOMS    <user>   **** ""
2 22 23
ATOM$RED        STATIC     ATOMS    COLORGROUP SYSTEM
2 22 23
@<TRIPOS>COMMENT
> <Gold.Version>
2022.3.0

> <Gold.Id.Protein>
unknown|7rmh_cavity_clean|pdb

> <Gold.Protein.RotatedTorsions>
[ 2038 2027 2028 2029 ] final -169.44 input  103.58 | X-H torsion
[ 4286 4281 4282 4283 ] final -146.40 input  108.09 | X-H torsion
[  535  513  514  515 ] final  -40.85 input  105.58 | X-H torsion
[ 2069 2062 2060 2057 ] final -157.78 input   60.00 | X-H torsion
[ 4334 4326 4327 4328 ] final  -17.07 input   45.76 | X-H torsion
[ 5109 5102 5100 5097 ] final  153.28 input   60.01 | X-H torsion
[ 2099 2094 2093 2090 ] final   79.92 input   60.02 | X-H torsion
[ 4376 4367 4366 4364 ] final -144.91 input   59.97 | X-H torsion
[ 1144 1124 1125 1126 ] final  139.40 input   64.50 | X-H torsion
[  249  231  232  233 ] final  132.61 input  105.30 | X-H torsion
[ 3038 3033 3034 3035 ] final -119.86 input   60.01 | X-H torsion
[  280  266  267  268 ] final   10.97 input  114.84 | X-H torsion
[ 4687 4679 4680 4681 ] final  -31.85 input   46.48 | X-H torsion
[ 3081 3072 3071 3069 ] final   80.93 input   59.99 | X-H torsion
[  336  328  327  326 ] final -149.41 input   59.97 | X-H torsion
[ 1444 1430 1431 1432 ] final   48.11 input   54.63 | X-H torsion
[ 3113 3104 3103 3101 ] final -123.17 input   60.00 | X-H torsion
[ 3627 3618 3617 3615 ] final   79.09 input   60.02 | X-H torsion
[  387  379  378  376 ] final  103.35 input   59.98 | X-H torsion
[ 1488 1482 1480 1477 ] final  156.48 input   59.97 | X-H torsion
[  421  400  401  402 ] final   19.99 input   82.00 | X-H torsion
[  472  463  461  458 ] final  -52.56 input   59.98 | X-H torsion
[  478  464  465  466 ] final  -87.03 input  115.28 | X-H torsion
[  484  470  468  465 ] final -130.40 input   59.99 | X-H torsion
[ 14714 2030 2029 2028 ] final -105.68 input    0.00 | X-H torsion
[ 14723 4284 4283 4282 ] final  153.12 input    0.00 | X-H torsion
[ 14732  516  515  514 ] final  -97.68 input    0.00 | X-H torsion
[ 14755 4329 4328 4327 ] final  131.44 input    0.00 | X-H torsion
[ 14795 1127 1126 1125 ] final  -42.60 input   -0.00 | X-H torsion
[ 14802  234  233  232 ] final  -75.97 input   -0.00 | X-H torsion
[ 14817  269  268  267 ] final   42.29 input    0.00 | X-H torsion
[ 14824 4682 4681 4680 ] final   52.22 input   -0.00 | X-H torsion
[ 14854 1433 1432 1431 ] final   37.34 input   -0.00 | X-H torsion
[ 14913  403  402  401 ] final  176.47 input   -0.00 | X-H torsion
[ 14928  467  466  465 ] final  -81.59 input    0.00 | X-H torsion

> <Gold.Protein.ActiveResidues>
 GLU27   LEU30   GLN31   ASP33   LYS34   GLN35   VAL36   TYR37   ARG38   THR40  
 HIS41   ARG42   ILE207  GLU209  HIS220  PHE222  CYS237  PHE238  ASN239  ASP240 
 VAL241  THR242  ARG280  TRP281  ARG283  THR284  ILE285  SER286  ARG356  HIS357 
 TYR358  TYR360  ASP381  ILE382  ILE383  GLN384  ARG385  MET386  HIS387  LEU388 
 ARG389  GLN390  TYR391  GLU392  LEU393  LEU394  ALA56   LYS57   ILE58   TYR59  
 ALA60   MET61   LEU79   ILE80   ILE81   TRP82   ILE93   VAL100  MET101  THR102 
 CYS103  CYS121  ASP312  ASN313  TRP332  ASP333  SER334  PHE335 

> <Gold.Protein.RotatedAtoms>
  122.8956  155.3271  186.5994 H   0  0  0  0  0  0  0  0  0  0  0  0  # atno 249  bound_to 231 
  110.6036  141.3325  102.4335 H   0  0  0  0  0  0  0  0  0  0  0  0  # atno 280  bound_to 266 
  148.9640  145.1138  146.1846 H   0  0  0  0  0  0  0  0  0  0  0  0  # atno 336  bound_to 328 
  149.3247  143.5510  145.7684 H   0  0  0  0  0  0  0  0  0  0  0  0  # atno 337  bound_to 328 
  150.0502  144.2462  147.0855 H   0  0  0  0  0  0  0  0  0  0  0  0  # atno 338  bound_to 328 
  150.3903  138.7006  154.2038 H   0  0  0  0  0  0  0  0  0  0  0  0  # atno 387  bound_to 379 
  137.5600  116.0341  183.4418 H   0  0  0  0  0  0  0  0  0  0  0  0  # atno 421  bound_to 400 
  156.0592  131.2666  151.0368 H   0  0  0  0  0  0  0  0  0  0  0  0  # atno 472  bound_to 463 
  118.2884  142.8301  113.8623 H   0  0  0  0  0  0  0  0  0  0  0  0  # atno 478  bound_to 464 
  114.9471  145.6381  113.9267 H   0  0  0  0  0  0  0  0  0  0  0  0  # atno 484  bound_to 470 
  122.2671  163.7342  166.3449 H   0  0  0  0  0  0  0  0  0  0  0  0  # atno 535  bound_to 513 
  138.4414  146.5071  189.4854 H   0  0  0  0  0  0  0  0  0  0  0  0  # atno 1144 bound_to 1124
  138.5413  160.2824  184.9689 H   0  0  0  0  0  0  0  0  0  0  0  0  # atno 1444 bound_to 1430
  149.8909  129.0523  150.8141 H   0  0  0  0  0  0  0  0  0  0  0  0  # atno 1488 bound_to 1482
  132.2847  164.1011  176.1476 H   0  0  0  0  0  0  0  0  0  0  0  0  # atno 2038 bound_to 2027
  138.3389  130.9557  152.9197 H   0  0  0  0  0  0  0  0  0  0  0  0  # atno 2069 bound_to 2062
  143.8122  123.1616  152.9852 H   0  0  0  0  0  0  0  0  0  0  0  0  # atno 2099 bound_to 2094
  133.5211  125.0761  149.9358 H   0  0  0  0  0  0  0  0  0  0  0  0  # atno 3038 bound_to 3033
  134.4290  123.9615  150.7617 H   0  0  0  0  0  0  0  0  0  0  0  0  # atno 3039 bound_to 3033
  134.7495  119.8888  146.7490 H   0  0  0  0  0  0  0  0  0  0  0  0  # atno 3081 bound_to 3072
  140.9427  119.7446  148.4358 H   0  0  0  0  0  0  0  0  0  0  0  0  # atno 3113 bound_to 3104
  144.4668  133.3847  136.8144 H   0  0  0  0  0  0  0  0  0  0  0  0  # atno 3627 bound_to 3618
  119.4211  120.0369  173.0995 H   0  0  0  0  0  0  0  0  0  0  0  0  # atno 4286 bound_to 4281
  125.0063  116.2350  171.5586 H   0  0  0  0  0  0  0  0  0  0  0  0  # atno 4334 bound_to 4326
  144.8052  140.2211  167.4235 H   0  0  0  0  0  0  0  0  0  0  0  0  # atno 4376 bound_to 4367
  122.5951  122.3451  186.8138 H   0  0  0  0  0  0  0  0  0  0  0  0  # atno 4687 bound_to 4679
  150.7436  147.5503  171.8761 H   0  0  0  0  0  0  0  0  0  0  0  0  # atno 5109 bound_to 5102
  132.6720  162.8050  175.0408 LP  0  0  0  0  0  0  0  0  0  0  0  0  # atno 14713 bound_to 2027
  129.3248  160.4454  175.0606 LP  0  0  0  0  0  0  0  0  0  0  0  0  # atno 14714 bound_to 2030
  128.3997  161.6553  174.2360 LP  0  0  0  0  0  0  0  0  0  0  0  0  # atno 14715 bound_to 2030
  121.0838  120.2250  172.5996 LP  0  0  0  0  0  0  0  0  0  0  0  0  # atno 14722 bound_to 4281
  121.7575  116.5506  170.0070 LP  0  0  0  0  0  0  0  0  0  0  0  0  # atno 14723 bound_to 4284
  120.2526  116.4157  170.8538 LP  0  0  0  0  0  0  0  0  0  0  0  0  # atno 14724 bound_to 4284
  120.7316  163.6500  165.5149 LP  0  0  0  0  0  0  0  0  0  0  0  0  # atno 14731 bound_to 513 
  123.9373  164.5604  163.0708 LP  0  0  0  0  0  0  0  0  0  0  0  0  # atno 14732 bound_to 516 
  124.0714  164.8234  164.7775 LP  0  0  0  0  0  0  0  0  0  0  0  0  # atno 14733 bound_to 516 
  137.4151  129.6396  152.6719 LP  0  0  0  0  0  0  0  0  0  0  0  0  # atno 14736 bound_to 2062
  138.9730  129.4724  153.1320 LP  0  0  0  0  0  0  0  0  0  0  0  0  # atno 14737 bound_to 2062
  123.6091  116.8384  172.4281 LP  0  0  0  0  0  0  0  0  0  0  0  0  # atno 14754 bound_to 4326
  126.4851  113.7369  171.7185 LP  0  0  0  0  0  0  0  0  0  0  0  0  # atno 14755 bound_to 4329
  125.0703  113.3648  172.6459 LP  0  0  0  0  0  0  0  0  0  0  0  0  # atno 14756 bound_to 4329
  150.4601  148.1888  170.4066 LP  0  0  0  0  0  0  0  0  0  0  0  0  # atno 14759 bound_to 5102
  151.9924  148.0231  170.9462 LP  0  0  0  0  0  0  0  0  0  0  0  0  # atno 14760 bound_to 5102
  143.1087  124.6284  153.0288 LP  0  0  0  0  0  0  0  0  0  0  0  0  # atno 14769 bound_to 2094
  142.7843  123.6002  151.8023 LP  0  0  0  0  0  0  0  0  0  0  0  0  # atno 14770 bound_to 2094
  145.8681  139.1618  166.7937 LP  0  0  0  0  0  0  0  0  0  0  0  0  # atno 14775 bound_to 4367
  144.4625  139.4694  166.0214 LP  0  0  0  0  0  0  0  0  0  0  0  0  # atno 14776 bound_to 4367
  138.2334  144.8109  189.8729 LP  0  0  0  0  0  0  0  0  0  0  0  0  # atno 14794 bound_to 1124
  137.2981  144.7379  186.7428 LP  0  0  0  0  0  0  0  0  0  0  0  0  # atno 14795 bound_to 1127
  137.0599  143.1163  187.3030 LP  0  0  0  0  0  0  0  0  0  0  0  0  # atno 14796 bound_to 1127
  121.3211  156.0641  186.7671 LP  0  0  0  0  0  0  0  0  0  0  0  0  # atno 14801 bound_to 231 
  121.0048  159.3770  184.7649 LP  0  0  0  0  0  0  0  0  0  0  0  0  # atno 14802 bound_to 234 
  121.8967  159.0714  183.3119 LP  0  0  0  0  0  0  0  0  0  0  0  0  # atno 14803 bound_to 234 
  133.0661  124.5857  151.4394 LP  0  0  0  0  0  0  0  0  0  0  0  0  # atno 14808 bound_to 3033
  110.2635  139.7574  101.7596 LP  0  0  0  0  0  0  0  0  0  0  0  0  # atno 14816 bound_to 266 
  114.3530  139.8398  104.1614 LP  0  0  0  0  0  0  0  0  0  0  0  0  # atno 14817 bound_to 269 
  113.6811  141.0457  105.2075 LP  0  0  0  0  0  0  0  0  0  0  0  0  # atno 14818 bound_to 269 
  123.4593  123.5224  185.8496 LP  0  0  0  0  0  0  0  0  0  0  0  0  # atno 14823 bound_to 4679
  124.5048  120.9243  187.6980 LP  0  0  0  0  0  0  0  0  0  0  0  0  # atno 14824 bound_to 4682
  125.3082  119.5204  187.0787 LP  0  0  0  0  0  0  0  0  0  0  0  0  # atno 14825 bound_to 4682
  133.6994  119.7158  147.9805 LP  0  0  0  0  0  0  0  0  0  0  0  0  # atno 14843 bound_to 3072
  134.3793  118.4000  147.2927 LP  0  0  0  0  0  0  0  0  0  0  0  0  # atno 14844 bound_to 3072
  140.0884  160.0941  185.7642 LP  0  0  0  0  0  0  0  0  0  0  0  0  # atno 14853 bound_to 1430
  136.3045  158.3334  188.0437 LP  0  0  0  0  0  0  0  0  0  0  0  0  # atno 14854 bound_to 1433
  136.4765  156.7822  187.2926 LP  0  0  0  0  0  0  0  0  0  0  0  0  # atno 14855 bound_to 1433
  142.3949  120.2534  147.9076 LP  0  0  0  0  0  0  0  0  0  0  0  0  # atno 14860 bound_to 3104
  141.7046  120.9555  149.2103 LP  0  0  0  0  0  0  0  0  0  0  0  0  # atno 14861 bound_to 3104
  144.0177  134.6488  137.7348 LP  0  0  0  0  0  0  0  0  0  0  0  0  # atno 14880 bound_to 3618
  143.9961  134.7719  136.1067 LP  0  0  0  0  0  0  0  0  0  0  0  0  # atno 14881 bound_to 3618
  151.1076  137.2668  154.4844 LP  0  0  0  0  0  0  0  0  0  0  0  0  # atno 14898 bound_to 379 
  149.9487  137.3931  153.3409 LP  0  0  0  0  0  0  0  0  0  0  0  0  # atno 14899 bound_to 379 
  148.9296  129.9324  151.7892 LP  0  0  0  0  0  0  0  0  0  0  0  0  # atno 14902 bound_to 1482
  148.3548  129.3600  150.3719 LP  0  0  0  0  0  0  0  0  0  0  0  0  # atno 14903 bound_to 1482
  135.9447  115.9454  184.1069 LP  0  0  0  0  0  0  0  0  0  0  0  0  # atno 14912 bound_to 400 
  140.5904  116.0282  184.7286 LP  0  0  0  0  0  0  0  0  0  0  0  0  # atno 14913 bound_to 403 
  139.1919  116.0250  183.7067 LP  0  0  0  0  0  0  0  0  0  0  0  0  # atno 14914 bound_to 403 
  157.5431  131.8689  151.3255 LP  0  0  0  0  0  0  0  0  0  0  0  0  # atno 14925 bound_to 463 
  157.3327  130.7213  150.1830 LP  0  0  0  0  0  0  0  0  0  0  0  0  # atno 14926 bound_to 463 
  116.6212  142.3797  113.5865 LP  0  0  0  0  0  0  0  0  0  0  0  0  # atno 14927 bound_to 464 
  118.4188  143.3702  117.7860 LP  0  0  0  0  0  0  0  0  0  0  0  0  # atno 14928 bound_to 467 
  116.7885  143.5907  118.3279 LP  0  0  0  0  0  0  0  0  0  0  0  0  # atno 14929 bound_to 467 
  114.7524  144.1524  113.2919 LP  0  0  0  0  0  0  0  0  0  0  0  0  # atno 14930 bound_to 470 
  116.2453  144.8032  113.4113 LP  0  0  0  0  0  0  0  0  0  0  0  0  # atno 14931 bound_to 470 

> <Gold.Score>
     Fitness  S(hb_ext) S(vdw_ext)  S(hb_int)    S(int)      intcor
     29.92       3.24      19.46       0.00      -0.08      -0.76

> <Gold.Goldscore.Fitness>
29.9154

> <Gold.Goldscore.Internal.Vdw>
-0.4173

> <Gold.Goldscore.Internal.Torsion>
-0.4310

> <Gold.Goldscore.External.Vdw>
19.4622

> <Gold.Goldscore.Internal.HBond>
0.0000

> <Gold.Goldscore.External.HBond>
3.2384

> <Gold.Goldscore.Internal.Correction>
-0.7650

> <Gold.Goldscore.Hbonds>
donor molecule, donor type, donor heavy atom, donor atom, acceptor molecule, acceptor atom, score
      P1  H   502   530       L1    17  0.27
      P1  H   509   528       L1    17  0.08
      P1  H   512   525       L1    17  0.11
      L1  H    10    23       P1  1482  0.79

> <Gold.Goldscore.Internal.Vdw.Weighted>
-0.4173

> <Gold.Goldscore.Internal.Torsion.Weighted>
-0.4310

> <Gold.Goldscore.External.Vdw.Weighted>
26.7605

> <Gold.Goldscore.Internal.HBond.Weighted>
0.0000

> <Gold.Goldscore.External.HBond.Weighted>
3.2384

> <Gold.Goldscore.Internal.Correction.Weighted>
-0.7650

> <Gold.Rescore>
     Score     S(PLP)   S(hbond)     S(cho)   S(metal)  DE(clash)   DE(tors)     intcor
     27.04     -19.45       2.79       0.00       0.00       0.00       0.38       ----

> <Gold.PLP.Fitness>
27.0427

> <Gold.PLP.PLP>
-19.4489

> <Gold.PLP.part.hbond>
-5.3539

> <Gold.PLP.part.metal>
0.0000

> <Gold.PLP.part.buried>
1.1706

> <Gold.PLP.part.nonpolar>
-18.6618

> <Gold.PLP.part.repulsive>
3.2424

> <Gold.PLP.ligand.clash>
0.0000

> <Gold.PLP.ligand.torsion>
0.3806

> <Gold.PLP.Chemscore.Hbond>
2.7850

> <Gold.PLP.Chemscore.CHOScore>
0.0000

> <Gold.PLP.Chemscore.Metal>
0.0000

> <Gold.Chemscore.Hbonds>
donor molecule, donor type, donor heavy atom, donor atom, acceptor molecule, acceptor atom, score
      L1  H    10    23       P1  1482  0.44
      P1  H   509   528       L1    17  0.48
      P1  H   512   525       L1    17  0.71

> <Gold.PLP.Chemscore.Internal.Correction>
   9.000000E+99

