#       Name:                CT1002167954
#       Creating user name   hitesit
#       Creation time:       Sun Apr 16 23:03:17 2023


#       File generated by GOLD software.
#

@<TRIPOS>MOLECULE
CT1002167954|ligand_prepared|mol2|1|dock3
    29    30     1
SMALL
NO_CHARGES


@<TRIPOS>ATOM
      1 C1         142.5209 130.3949 151.6856 C.3            1 RES1               0.0000
      2 C2         142.1349 128.9025 151.7355 C.ar           1 RES1               0.0000
      3 C3         141.3219 131.1279 151.0912 C.2            1 RES1               0.0000
      4 C4         142.8492 130.7989 153.1187 C.2            1 RES1               0.0000
      5 C5         143.7609 130.6906 150.8100 C.3            1 RES1               0.0000
      6 C6         140.8042 128.5107 151.6240 C.ar           1 RES1               0.0000
      7 C7         143.0969 127.9078 151.8897 C.ar           1 RES1               0.0000
      8 N8         140.5543 131.8732 151.9369 N.am           1 RES1               0.0000
      9 O9         141.0313 131.0218 149.9061 O.2            1 RES1               0.0000
     10 N10        142.0310 131.7110 153.7321 N.am           1 RES1               0.0000
     11 O11        143.7993 130.3230 153.7279 O.2            1 RES1               0.0000
     12 C12        144.0388 132.1737 150.6216 C.3            1 RES1               0.0000
     13 C13        140.4483 127.1727 151.6622 C.ar           1 RES1               0.0000
     14 C14        142.7387 126.5703 151.9279 C.ar           1 RES1               0.0000
     15 C15        140.8806 132.2434 153.2168 C.2            1 RES1               0.0000
     16 C16        141.4151 126.2017 151.8137 C.ar           1 RES1               0.0000
     17 O17        140.1683 133.0165 153.8508 O.2            1 RES1               0.0000
     18 H18        144.6390 130.2226 151.2717 H              1 RES1               0.0000
     19 H19        143.6151 130.2308 149.8247 H              1 RES1               0.0000
     20 H20        140.0293 129.2608 151.5066 H              1 RES1               0.0000
     21 H21        144.1442 128.1745 151.9826 H              1 RES1               0.0000
     22 H22        139.6543 132.1841 151.5852 H              1 RES1               0.0000
     23 H23        142.3049 132.0220 154.6587 H              1 RES1               0.0000
     24 H24        144.9187 132.3252 149.9998 H              1 RES1               0.0000
     25 H25        143.1958 132.6662 150.1415 H              1 RES1               0.0000
     26 H26        144.2136 132.6581 151.5800 H              1 RES1               0.0000
     27 H27        139.4051 126.8879 151.5733 H              1 RES1               0.0000
     28 H28        143.5029 125.8096 152.0479 H              1 RES1               0.0000
     29 H29        141.1361 125.1536 151.8433 H              1 RES1               0.0000
@<TRIPOS>BOND
    1    1    2 1     
    2    1    3 1     
    3    1    4 1     
    4    1    5 1     
    5    2    6 ar    
    6    2    7 ar    
    7    3    8 1     
    8    3    9 2     
    9    4   10 1     
   10    4   11 2     
   11    5   12 1     
   12    5   18 1     
   13    5   19 1     
   14    6   13 ar    
   15    6   20 1     
   16    7   14 ar    
   17    7   21 1     
   18    8   15 1     
   19    8   22 1     
   20   10   15 1     
   21   10   23 1     
   22   12   24 1     
   23   12   25 1     
   24   12   26 1     
   25   13   16 ar    
   26   13   27 1     
   27   14   16 ar    
   28   14   28 1     
   29   15   17 2     
   30   16   29 1     
@<TRIPOS>SUBSTRUCTURE
      1 RES1           1
@<TRIPOS>SET
DONOR_HYDROGENS      STATIC     ATOMS    <user>   **** ""
2 22 23
ATOM$RED        STATIC     ATOMS    COLORGROUP SYSTEM
2 22 23
@<TRIPOS>COMMENT
> <Gold.Version>
2022.3.0

> <Gold.Id.Protein>
unknown|7rmh_cavity_clean|pdb

> <Gold.Protein.RotatedTorsions>
[ 2038 2027 2028 2029 ] final   93.89 input  103.58 | X-H torsion
[ 4286 4281 4282 4283 ] final   -9.16 input  108.09 | X-H torsion
[  535  513  514  515 ] final  141.03 input  105.58 | X-H torsion
[ 2069 2062 2060 2057 ] final   40.62 input   60.00 | X-H torsion
[ 4334 4326 4327 4328 ] final  -90.89 input   45.76 | X-H torsion
[ 5109 5102 5100 5097 ] final   88.57 input   60.01 | X-H torsion
[ 2099 2094 2093 2090 ] final   36.75 input   60.02 | X-H torsion
[ 4376 4367 4366 4364 ] final   88.55 input   59.97 | X-H torsion
[ 1144 1124 1125 1126 ] final  -13.80 input   64.50 | X-H torsion
[  249  231  232  233 ] final  163.30 input  105.30 | X-H torsion
[ 3038 3033 3034 3035 ] final   70.18 input   60.01 | X-H torsion
[  280  266  267  268 ] final  103.84 input  114.84 | X-H torsion
[ 4687 4679 4680 4681 ] final -161.44 input   46.48 | X-H torsion
[ 3081 3072 3071 3069 ] final   72.55 input   59.99 | X-H torsion
[  336  328  327  326 ] final -125.53 input   59.97 | X-H torsion
[ 1444 1430 1431 1432 ] final  -46.31 input   54.63 | X-H torsion
[ 3113 3104 3103 3101 ] final  -84.84 input   60.00 | X-H torsion
[ 3627 3618 3617 3615 ] final -135.34 input   60.02 | X-H torsion
[  387  379  378  376 ] final -148.12 input   59.98 | X-H torsion
[ 1488 1482 1480 1477 ] final  -38.67 input   59.97 | X-H torsion
[  421  400  401  402 ] final   62.26 input   82.00 | X-H torsion
[  472  463  461  458 ] final   12.05 input   59.98 | X-H torsion
[  478  464  465  466 ] final   -0.23 input  115.28 | X-H torsion
[  484  470  468  465 ] final   96.46 input   59.99 | X-H torsion
[ 14714 2030 2029 2028 ] final   -5.86 input    0.00 | X-H torsion
[ 14723 4284 4283 4282 ] final  -93.00 input    0.00 | X-H torsion
[ 14732  516  515  514 ] final  -62.48 input    0.00 | X-H torsion
[ 14755 4329 4328 4327 ] final -132.79 input    0.00 | X-H torsion
[ 14795 1127 1126 1125 ] final -110.15 input   -0.00 | X-H torsion
[ 14802  234  233  232 ] final   42.79 input   -0.00 | X-H torsion
[ 14817  269  268  267 ] final   96.35 input    0.00 | X-H torsion
[ 14824 4682 4681 4680 ] final  163.97 input   -0.00 | X-H torsion
[ 14854 1433 1432 1431 ] final  -62.77 input   -0.00 | X-H torsion
[ 14913  403  402  401 ] final  -62.46 input   -0.00 | X-H torsion
[ 14928  467  466  465 ] final   50.41 input    0.00 | X-H torsion

> <Gold.Protein.ActiveResidues>
 GLU27   LEU30   GLN31   ASP33   LYS34   GLN35   VAL36   TYR37   ARG38   THR40  
 HIS41   ARG42   ILE207  GLU209  HIS220  PHE222  CYS237  PHE238  ASN239  ASP240 
 VAL241  THR242  ARG280  TRP281  ARG283  THR284  ILE285  SER286  ARG356  HIS357 
 TYR358  TYR360  ASP381  ILE382  ILE383  GLN384  ARG385  MET386  HIS387  LEU388 
 ARG389  GLN390  TYR391  GLU392  LEU393  LEU394  ALA56   LYS57   ILE58   TYR59  
 ALA60   MET61   LEU79   ILE80   ILE81   TRP82   ILE93   VAL100  MET101  THR102 
 CYS103  CYS121  ASP312  ASN313  TRP332  ASP333  SER334  PHE335 

> <Gold.Protein.RotatedAtoms>
  122.9223  155.5890  186.9849 H   0  0  0  0  0  0  0  0  0  0  0  0  # atno 249  bound_to 231 
  110.6879  140.7787  101.2844 H   0  0  0  0  0  0  0  0  0  0  0  0  # atno 280  bound_to 266 
  148.8355  144.8822  145.8906 H   0  0  0  0  0  0  0  0  0  0  0  0  # atno 336  bound_to 328 
  149.5889  143.4128  146.0284 H   0  0  0  0  0  0  0  0  0  0  0  0  # atno 337  bound_to 328 
  149.9144  144.6162  147.1193 H   0  0  0  0  0  0  0  0  0  0  0  0  # atno 338  bound_to 328 
  149.8822  137.5683  153.3256 H   0  0  0  0  0  0  0  0  0  0  0  0  # atno 387  bound_to 379 
  137.2672  115.4933  183.2652 H   0  0  0  0  0  0  0  0  0  0  0  0  # atno 421  bound_to 400 
  156.4740  130.6838  150.3368 H   0  0  0  0  0  0  0  0  0  0  0  0  # atno 472  bound_to 463 
  117.6020  141.8953  114.2332 H   0  0  0  0  0  0  0  0  0  0  0  0  # atno 478  bound_to 464 
  114.9407  144.0655  113.2347 H   0  0  0  0  0  0  0  0  0  0  0  0  # atno 484  bound_to 470 
  120.7090  163.6235  165.5188 H   0  0  0  0  0  0  0  0  0  0  0  0  # atno 535  bound_to 513 
  138.3295  144.7721  189.4775 H   0  0  0  0  0  0  0  0  0  0  0  0  # atno 1144 bound_to 1124
  139.4830  159.3832  185.0284 H   0  0  0  0  0  0  0  0  0  0  0  0  # atno 1444 bound_to 1430
  148.1714  129.7404  150.9513 H   0  0  0  0  0  0  0  0  0  0  0  0  # atno 1488 bound_to 1482
  132.5763  163.9501  174.8679 H   0  0  0  0  0  0  0  0  0  0  0  0  # atno 2038 bound_to 2027
  137.8688  129.1721  152.8156 H   0  0  0  0  0  0  0  0  0  0  0  0  # atno 2069 bound_to 2062
  143.7832  123.7363  153.3641 H   0  0  0  0  0  0  0  0  0  0  0  0  # atno 2099 bound_to 2094
  133.6745  124.0746  151.5521 H   0  0  0  0  0  0  0  0  0  0  0  0  # atno 3038 bound_to 3033
  132.9663  125.1594  150.5176 H   0  0  0  0  0  0  0  0  0  0  0  0  # atno 3039 bound_to 3033
  134.6877  119.9928  146.8127 H   0  0  0  0  0  0  0  0  0  0  0  0  # atno 3081 bound_to 3072
  140.8562  120.1171  148.9165 H   0  0  0  0  0  0  0  0  0  0  0  0  # atno 3113 bound_to 3104
  143.8988  135.0323  136.4160 H   0  0  0  0  0  0  0  0  0  0  0  0  # atno 3627 bound_to 3618
  121.0307  119.7283  172.9945 H   0  0  0  0  0  0  0  0  0  0  0  0  # atno 4286 bound_to 4281
  124.8980  117.2019  172.0138 H   0  0  0  0  0  0  0  0  0  0  0  0  # atno 4334 bound_to 4326
  145.8356  139.1200  166.7004 H   0  0  0  0  0  0  0  0  0  0  0  0  # atno 4376 bound_to 4367
  122.7708  123.3845  185.5979 H   0  0  0  0  0  0  0  0  0  0  0  0  # atno 4687 bound_to 4679
  150.1333  147.8469  171.1389 H   0  0  0  0  0  0  0  0  0  0  0  0  # atno 5109 bound_to 5102
  132.3873  162.9525  176.2907 LP  0  0  0  0  0  0  0  0  0  0  0  0  # atno 14713 bound_to 2027
  128.6628  161.5646  175.3160 LP  0  0  0  0  0  0  0  0  0  0  0  0  # atno 14714 bound_to 2030
  129.0617  160.5362  173.9806 LP  0  0  0  0  0  0  0  0  0  0  0  0  # atno 14715 bound_to 2030
  119.5057  120.5276  172.7025 LP  0  0  0  0  0  0  0  0  0  0  0  0  # atno 14722 bound_to 4281
  121.0854  116.2012  171.2453 LP  0  0  0  0  0  0  0  0  0  0  0  0  # atno 14723 bound_to 4284
  120.9247  116.7651  169.6155 LP  0  0  0  0  0  0  0  0  0  0  0  0  # atno 14724 bound_to 4284
  122.2549  163.7582  166.3225 LP  0  0  0  0  0  0  0  0  0  0  0  0  # atno 14731 bound_to 513 
  123.4600  164.6797  163.2507 LP  0  0  0  0  0  0  0  0  0  0  0  0  # atno 14732 bound_to 516 
  124.5487  164.7042  164.5976 LP  0  0  0  0  0  0  0  0  0  0  0  0  # atno 14733 bound_to 516 
  139.1435  130.1191  153.1697 LP  0  0  0  0  0  0  0  0  0  0  0  0  # atno 14736 bound_to 2062
  137.7184  130.7903  152.7391 LP  0  0  0  0  0  0  0  0  0  0  0  0  # atno 14737 bound_to 2062
  123.7130  115.9106  171.9913 LP  0  0  0  0  0  0  0  0  0  0  0  0  # atno 14754 bound_to 4326
  126.1680  112.9914  172.7157 LP  0  0  0  0  0  0  0  0  0  0  0  0  # atno 14755 bound_to 4329
  125.3874  114.1103  171.6486 LP  0  0  0  0  0  0  0  0  0  0  0  0  # atno 14756 bound_to 4329
  151.4594  148.2821  170.3025 LP  0  0  0  0  0  0  0  0  0  0  0  0  # atno 14759 bound_to 5102
  151.6076  147.6311  171.7927 LP  0  0  0  0  0  0  0  0  0  0  0  0  # atno 14760 bound_to 5102
  142.7350  124.5776  152.4465 LP  0  0  0  0  0  0  0  0  0  0  0  0  # atno 14769 bound_to 2094
  143.1871  123.0724  152.0031 LP  0  0  0  0  0  0  0  0  0  0  0  0  # atno 14770 bound_to 2094
  144.3962  139.5403  166.0679 LP  0  0  0  0  0  0  0  0  0  0  0  0  # atno 14775 bound_to 4367
  144.8966  140.1998  167.4755 LP  0  0  0  0  0  0  0  0  0  0  0  0  # atno 14776 bound_to 4367
  138.3409  146.4775  189.8804 LP  0  0  0  0  0  0  0  0  0  0  0  0  # atno 14794 bound_to 1124
  136.5974  144.1592  186.4247 LP  0  0  0  0  0  0  0  0  0  0  0  0  # atno 14795 bound_to 1127
  137.7606  143.6950  187.6211 LP  0  0  0  0  0  0  0  0  0  0  0  0  # atno 14796 bound_to 1127
  121.2950  155.8073  186.3892 LP  0  0  0  0  0  0  0  0  0  0  0  0  # atno 14801 bound_to 231 
  122.3083  159.3451  184.0426 LP  0  0  0  0  0  0  0  0  0  0  0  0  # atno 14802 bound_to 234 
  120.5932  159.1034  184.0342 LP  0  0  0  0  0  0  0  0  0  0  0  0  # atno 14803 bound_to 234 
  134.3564  124.3916  150.0883 LP  0  0  0  0  0  0  0  0  0  0  0  0  # atno 14808 bound_to 3033
  110.1808  140.3003  102.8858 LP  0  0  0  0  0  0  0  0  0  0  0  0  # atno 14816 bound_to 266 
  114.7047  140.5439  104.1679 LP  0  0  0  0  0  0  0  0  0  0  0  0  # atno 14817 bound_to 269 
  113.3294  140.3415  105.2010 LP  0  0  0  0  0  0  0  0  0  0  0  0  # atno 14818 bound_to 269 
  123.2893  122.5165  187.0263 LP  0  0  0  0  0  0  0  0  0  0  0  0  # atno 14823 bound_to 4679
  124.5363  119.4912  187.6681 LP  0  0  0  0  0  0  0  0  0  0  0  0  # atno 14824 bound_to 4682
  125.2767  120.9536  187.1086 LP  0  0  0  0  0  0  0  0  0  0  0  0  # atno 14825 bound_to 4682
  133.6743  119.5862  148.0198 LP  0  0  0  0  0  0  0  0  0  0  0  0  # atno 14843 bound_to 3072
  134.4666  118.4248  147.1892 LP  0  0  0  0  0  0  0  0  0  0  0  0  # atno 14844 bound_to 3072
  139.1749  160.9664  185.7064 LP  0  0  0  0  0  0  0  0  0  0  0  0  # atno 14853 bound_to 1430
  137.0792  157.2562  188.0980 LP  0  0  0  0  0  0  0  0  0  0  0  0  # atno 14854 bound_to 1433
  135.7019  157.8594  187.2383 LP  0  0  0  0  0  0  0  0  0  0  0  0  # atno 14855 bound_to 1433
  141.9653  119.8324  147.7609 LP  0  0  0  0  0  0  0  0  0  0  0  0  # atno 14860 bound_to 3104
  142.2213  121.0010  148.8725 LP  0  0  0  0  0  0  0  0  0  0  0  0  # atno 14861 bound_to 3104
  144.4359  133.4966  136.4150 LP  0  0  0  0  0  0  0  0  0  0  0  0  # atno 14880 bound_to 3618
  144.1503  134.2641  137.8278 LP  0  0  0  0  0  0  0  0  0  0  0  0  # atno 14881 bound_to 3618
  150.5232  138.6734  154.3339 LP  0  0  0  0  0  0  0  0  0  0  0  0  # atno 14898 bound_to 379 
  151.0446  137.1265  154.3756 LP  0  0  0  0  0  0  0  0  0  0  0  0  # atno 14899 bound_to 379 
  149.4195  128.9339  150.2869 LP  0  0  0  0  0  0  0  0  0  0  0  0  # atno 14902 bound_to 1482
  149.5955  129.6659  151.7360 LP  0  0  0  0  0  0  0  0  0  0  0  0  # atno 14903 bound_to 1482
  136.2291  116.4707  184.2784 LP  0  0  0  0  0  0  0  0  0  0  0  0  # atno 14912 bound_to 400 
  139.7060  115.3456  183.7156 LP  0  0  0  0  0  0  0  0  0  0  0  0  # atno 14913 bound_to 403 
  140.0763  116.7075  184.7197 LP  0  0  0  0  0  0  0  0  0  0  0  0  # atno 14914 bound_to 403 
  156.5519  131.8185  151.5006 LP  0  0  0  0  0  0  0  0  0  0  0  0  # atno 14925 bound_to 463 
  157.9063  131.3586  150.7127 LP  0  0  0  0  0  0  0  0  0  0  0  0  # atno 14926 bound_to 463 
  117.2896  143.2899  113.2254 LP  0  0  0  0  0  0  0  0  0  0  0  0  # atno 14927 bound_to 464 
  117.0463  144.1370  117.9653 LP  0  0  0  0  0  0  0  0  0  0  0  0  # atno 14928 bound_to 467 
  118.1609  142.8239  118.1486 LP  0  0  0  0  0  0  0  0  0  0  0  0  # atno 14929 bound_to 467 
  116.2461  145.0008  113.4982 LP  0  0  0  0  0  0  0  0  0  0  0  0  # atno 14930 bound_to 470 
  114.7580  145.5385  113.9019 LP  0  0  0  0  0  0  0  0  0  0  0  0  # atno 14931 bound_to 470 

> <Gold.Score>
     Fitness  S(hb_ext) S(vdw_ext)  S(hb_int)    S(int)      intcor
     28.32       1.12      20.81       0.00      -1.41      -0.77

> <Gold.Goldscore.Fitness>
28.3205

> <Gold.Goldscore.Internal.Vdw>
-1.7293

> <Gold.Goldscore.Internal.Torsion>
-0.4507

> <Gold.Goldscore.External.Vdw>
20.8116

> <Gold.Goldscore.Internal.HBond>
0.0000

> <Gold.Goldscore.External.HBond>
1.1192

> <Gold.Goldscore.Internal.Correction>
-0.7653

> <Gold.Goldscore.Hbonds>
donor molecule, donor type, donor heavy atom, donor atom, acceptor molecule, acceptor atom, score
      L1  H    10    23       P1  1425  0.56

> <Gold.Goldscore.Internal.Vdw.Weighted>
-1.7293

> <Gold.Goldscore.Internal.Torsion.Weighted>
-0.4507

> <Gold.Goldscore.External.Vdw.Weighted>
28.6159

> <Gold.Goldscore.Internal.HBond.Weighted>
0.0000

> <Gold.Goldscore.External.HBond.Weighted>
1.1192

> <Gold.Goldscore.Internal.Correction.Weighted>
-0.7653

> <Gold.Rescore>
     Score     S(PLP)   S(hbond)     S(cho)   S(metal)  DE(clash)   DE(tors)     intcor
     17.44     -19.60       0.00       0.00       0.00       1.87       0.15       ----

> <Gold.PLP.Fitness>
17.4364

> <Gold.PLP.PLP>
-19.6014

> <Gold.PLP.part.hbond>
0.0000

> <Gold.PLP.part.metal>
0.0000

> <Gold.PLP.part.buried>
0.7094

> <Gold.PLP.part.nonpolar>
-21.9800

> <Gold.PLP.part.repulsive>
0.6247

> <Gold.PLP.ligand.clash>
1.8668

> <Gold.PLP.ligand.torsion>
0.1491

> <Gold.PLP.Chemscore.Hbond>
0.0000

> <Gold.PLP.Chemscore.CHOScore>
0.0000

> <Gold.PLP.Chemscore.Metal>
0.0000

> <Gold.PLP.Chemscore.Internal.Correction>
   9.000000E+99

