#       Name:                CT1002167954
#       Creating user name   hitesit
#       Creation time:       Sun Apr 16 23:04:26 2023


#       File generated by GOLD software.
#

@<TRIPOS>MOLECULE
CT1002167954|ligand_prepared|mol2|1|dock9
    29    30     1
SMALL
NO_CHARGES


@<TRIPOS>ATOM
      1 C1         144.6674 132.1259 150.4201 C.3            1 RES1               0.0000
      2 C2         144.2597 130.6634 150.6915 C.ar           1 RES1               0.0000
      3 C3         145.1964 132.6755 151.7416 C.2            1 RES1               0.0000
      4 C4         145.7065 132.0792 149.3053 C.2            1 RES1               0.0000
      5 C5         143.4995 133.0227 149.9474 C.3            1 RES1               0.0000
      6 C6         143.1194 130.3719 151.4341 C.ar           1 RES1               0.0000
      7 C7         145.0109 129.5971 150.2045 C.ar           1 RES1               0.0000
      8 N8         146.5438 132.8507 151.8589 N.am           1 RES1               0.0000
      9 O9         144.4466 132.9142 152.6802 O.2            1 RES1               0.0000
     10 N10        146.9852 132.4718 149.6025 N.am           1 RES1               0.0000
     11 O11        145.4332 131.6903 148.1764 O.2            1 RES1               0.0000
     12 C12        143.9330 134.4117 149.5057 C.3            1 RES1               0.0000
     13 C13        142.7421 129.0618 151.6786 C.ar           1 RES1               0.0000
     14 C14        144.6319 128.2877 150.4502 C.ar           1 RES1               0.0000
     15 C15        147.4581 132.8262 150.8366 C.2            1 RES1               0.0000
     16 C16        143.4977 128.0190 151.1865 C.ar           1 RES1               0.0000
     17 O17        148.6347 133.1144 151.0359 O.2            1 RES1               0.0000
     18 H18        142.9913 132.5285 149.1103 H              1 RES1               0.0000
     19 H19        142.7769 133.1223 150.7667 H              1 RES1               0.0000
     20 H20        142.5136 131.1794 151.8316 H              1 RES1               0.0000
     21 H21        145.9076 129.7848 149.6237 H              1 RES1               0.0000
     22 H22        146.9049 133.0150 152.7932 H              1 RES1               0.0000
     23 H23        147.6458 132.5027 148.8325 H              1 RES1               0.0000
     24 H24        143.0756 134.9992 149.1841 H              1 RES1               0.0000
     25 H25        144.4200 134.9415 150.3217 H              1 RES1               0.0000
     26 H26        144.6332 134.3512 148.6751 H              1 RES1               0.0000
     27 H27        141.8493 128.8556 152.2597 H              1 RES1               0.0000
     28 H28        145.2300 127.4701 150.0615 H              1 RES1               0.0000
     29 H29        143.2017 126.9928 151.3778 H              1 RES1               0.0000
@<TRIPOS>BOND
    1    1    2 1     
    2    1    3 1     
    3    1    4 1     
    4    1    5 1     
    5    2    6 ar    
    6    2    7 ar    
    7    3    8 1     
    8    3    9 2     
    9    4   10 1     
   10    4   11 2     
   11    5   12 1     
   12    5   18 1     
   13    5   19 1     
   14    6   13 ar    
   15    6   20 1     
   16    7   14 ar    
   17    7   21 1     
   18    8   15 1     
   19    8   22 1     
   20   10   15 1     
   21   10   23 1     
   22   12   24 1     
   23   12   25 1     
   24   12   26 1     
   25   13   16 ar    
   26   13   27 1     
   27   14   16 ar    
   28   14   28 1     
   29   15   17 2     
   30   16   29 1     
@<TRIPOS>SUBSTRUCTURE
      1 RES1           1
@<TRIPOS>SET
DONOR_HYDROGENS      STATIC     ATOMS    <user>   **** ""
2 22 23
ATOM$RED        STATIC     ATOMS    COLORGROUP SYSTEM
2 22 23
@<TRIPOS>COMMENT
> <Gold.Version>
2022.3.0

> <Gold.Id.Protein>
unknown|7rmh_cavity_clean|pdb

> <Gold.Protein.RotatedTorsions>
[ 2038 2027 2028 2029 ] final   22.22 input  103.58 | X-H torsion
[ 4286 4281 4282 4283 ] final   67.40 input  108.09 | X-H torsion
[  535  513  514  515 ] final -132.62 input  105.58 | X-H torsion
[ 2069 2062 2060 2057 ] final  -75.02 input   60.00 | X-H torsion
[ 4334 4326 4327 4328 ] final  135.86 input   45.76 | X-H torsion
[ 5109 5102 5100 5097 ] final -167.63 input   60.01 | X-H torsion
[ 2099 2094 2093 2090 ] final  -68.38 input   60.02 | X-H torsion
[ 4376 4367 4366 4364 ] final -128.36 input   59.97 | X-H torsion
[ 1144 1124 1125 1126 ] final  -40.08 input   64.50 | X-H torsion
[  249  231  232  233 ] final   71.70 input  105.30 | X-H torsion
[ 3038 3033 3034 3035 ] final   -4.41 input   60.01 | X-H torsion
[  280  266  267  268 ] final   -1.53 input  114.84 | X-H torsion
[ 4687 4679 4680 4681 ] final -144.59 input   46.48 | X-H torsion
[ 3081 3072 3071 3069 ] final -123.73 input   59.99 | X-H torsion
[  336  328  327  326 ] final  -48.02 input   59.97 | X-H torsion
[ 1444 1430 1431 1432 ] final  -27.97 input   54.63 | X-H torsion
[ 3113 3104 3103 3101 ] final  147.52 input   60.00 | X-H torsion
[ 3627 3618 3617 3615 ] final   27.95 input   60.02 | X-H torsion
[  387  379  378  376 ] final -125.97 input   59.98 | X-H torsion
[ 1488 1482 1480 1477 ] final  -35.23 input   59.97 | X-H torsion
[  421  400  401  402 ] final  120.56 input   82.00 | X-H torsion
[  472  463  461  458 ] final  -96.22 input   59.98 | X-H torsion
[  478  464  465  466 ] final  -77.37 input  115.28 | X-H torsion
[  484  470  468  465 ] final -132.92 input   59.99 | X-H torsion
[ 14714 2030 2029 2028 ] final   41.91 input    0.00 | X-H torsion
[ 14723 4284 4283 4282 ] final -124.75 input    0.00 | X-H torsion
[ 14732  516  515  514 ] final  119.12 input    0.00 | X-H torsion
[ 14755 4329 4328 4327 ] final  -53.81 input    0.00 | X-H torsion
[ 14795 1127 1126 1125 ] final  -88.82 input   -0.00 | X-H torsion
[ 14802  234  233  232 ] final  -46.99 input   -0.00 | X-H torsion
[ 14817  269  268  267 ] final  -50.17 input    0.00 | X-H torsion
[ 14824 4682 4681 4680 ] final  -14.70 input   -0.00 | X-H torsion
[ 14854 1433 1432 1431 ] final  -24.71 input   -0.00 | X-H torsion
[ 14913  403  402  401 ] final  -79.97 input   -0.00 | X-H torsion
[ 14928  467  466  465 ] final   44.90 input    0.00 | X-H torsion

> <Gold.Protein.ActiveResidues>
 GLU27   LEU30   GLN31   ASP33   LYS34   GLN35   VAL36   TYR37   ARG38   THR40  
 HIS41   ARG42   ILE207  GLU209  HIS220  PHE222  CYS237  PHE238  ASN239  ASP240 
 VAL241  THR242  ARG280  TRP281  ARG283  THR284  ILE285  SER286  ARG356  HIS357 
 TYR358  TYR360  ASP381  ILE382  ILE383  GLN384  ARG385  MET386  HIS387  LEU388 
 ARG389  GLN390  TYR391  GLU392  LEU393  LEU394  ALA56   LYS57   ILE58   TYR59  
 ALA60   MET61   LEU79   ILE80   ILE81   TRP82   ILE93   VAL100  MET101  THR102 
 CYS103  CYS121  ASP312  ASN313  TRP332  ASP333  SER334  PHE335 

> <Gold.Protein.RotatedAtoms>
  122.2509  155.1592  186.0032 H   0  0  0  0  0  0  0  0  0  0  0  0  # atno 249  bound_to 231 
  110.5423  141.2527  102.5969 H   0  0  0  0  0  0  0  0  0  0  0  0  # atno 280  bound_to 266 
  149.1302  143.7503  145.6324 H   0  0  0  0  0  0  0  0  0  0  0  0  # atno 336  bound_to 328 
  150.0852  143.9612  146.9700 H   0  0  0  0  0  0  0  0  0  0  0  0  # atno 337  bound_to 328 
  149.1230  145.1992  146.4354 H   0  0  0  0  0  0  0  0  0  0  0  0  # atno 338  bound_to 328 
  150.0393  137.2501  153.3850 H   0  0  0  0  0  0  0  0  0  0  0  0  # atno 387  bound_to 379 
  136.4759  115.2049  183.4595 H   0  0  0  0  0  0  0  0  0  0  0  0  # atno 421  bound_to 400 
  156.3960  131.7264  151.4367 H   0  0  0  0  0  0  0  0  0  0  0  0  # atno 472  bound_to 463 
  118.2953  142.7056  113.9443 H   0  0  0  0  0  0  0  0  0  0  0  0  # atno 478  bound_to 464 
  114.9098  145.6209  113.9234 H   0  0  0  0  0  0  0  0  0  0  0  0  # atno 484  bound_to 470 
  121.2473  162.9807  166.3901 H   0  0  0  0  0  0  0  0  0  0  0  0  # atno 535  bound_to 513 
  138.2004  144.7769  189.8627 H   0  0  0  0  0  0  0  0  0  0  0  0  # atno 1144 bound_to 1124
  139.2321  159.4357  184.9083 H   0  0  0  0  0  0  0  0  0  0  0  0  # atno 1444 bound_to 1430
  148.1790  129.7650  151.0012 H   0  0  0  0  0  0  0  0  0  0  0  0  # atno 1488 bound_to 1482
  132.6831  162.9209  174.9052 H   0  0  0  0  0  0  0  0  0  0  0  0  # atno 2038 bound_to 2027
  139.1401  130.0474  153.1719 H   0  0  0  0  0  0  0  0  0  0  0  0  # atno 2069 bound_to 2062
  142.8417  124.6430  152.6552 H   0  0  0  0  0  0  0  0  0  0  0  0  # atno 2099 bound_to 2094
  134.4485  123.9855  150.6921 H   0  0  0  0  0  0  0  0  0  0  0  0  # atno 3038 bound_to 3033
  133.0980  124.5317  151.4837 H   0  0  0  0  0  0  0  0  0  0  0  0  # atno 3039 bound_to 3033
  134.0125  118.5190  147.7131 H   0  0  0  0  0  0  0  0  0  0  0  0  # atno 3081 bound_to 3072
  142.0662  119.9063  147.7712 H   0  0  0  0  0  0  0  0  0  0  0  0  # atno 3113 bound_to 3104
  144.3619  133.6579  137.5672 H   0  0  0  0  0  0  0  0  0  0  0  0  # atno 3627 bound_to 3618
  120.8323  120.5986  172.3644 H   0  0  0  0  0  0  0  0  0  0  0  0  # atno 4286 bound_to 4281
  123.4811  116.4506  172.3656 H   0  0  0  0  0  0  0  0  0  0  0  0  # atno 4334 bound_to 4326
  144.5856  140.2464  167.2694 H   0  0  0  0  0  0  0  0  0  0  0  0  # atno 4376 bound_to 4367
  122.5517  123.2507  185.6429 H   0  0  0  0  0  0  0  0  0  0  0  0  # atno 4687 bound_to 4679
  151.3695  147.5728  171.8924 H   0  0  0  0  0  0  0  0  0  0  0  0  # atno 5109 bound_to 5102
  132.2829  163.9577  176.2542 LP  0  0  0  0  0  0  0  0  0  0  0  0  # atno 14713 bound_to 2027
  128.4062  161.7846  174.7016 LP  0  0  0  0  0  0  0  0  0  0  0  0  # atno 14714 bound_to 2030
  129.3183  160.3161  174.5950 LP  0  0  0  0  0  0  0  0  0  0  0  0  # atno 14715 bound_to 2030
  119.7002  119.6743  173.3203 LP  0  0  0  0  0  0  0  0  0  0  0  0  # atno 14722 bound_to 4281
  121.5251  116.2166  171.0695 LP  0  0  0  0  0  0  0  0  0  0  0  0  # atno 14723 bound_to 4284
  120.4850  116.7498  169.7912 LP  0  0  0  0  0  0  0  0  0  0  0  0  # atno 14724 bound_to 4284
  121.7286  164.3867  165.4708 LP  0  0  0  0  0  0  0  0  0  0  0  0  # atno 14731 bound_to 513 
  124.5667  164.6983  164.5828 LP  0  0  0  0  0  0  0  0  0  0  0  0  # atno 14732 bound_to 516 
  123.4420  164.6855  163.2656 LP  0  0  0  0  0  0  0  0  0  0  0  0  # atno 14733 bound_to 516 
  137.7758  130.8298  152.7551 LP  0  0  0  0  0  0  0  0  0  0  0  0  # atno 14736 bound_to 2062
  137.8050  129.1976  152.7946 LP  0  0  0  0  0  0  0  0  0  0  0  0  # atno 14737 bound_to 2062
  125.0726  116.6315  171.6537 LP  0  0  0  0  0  0  0  0  0  0  0  0  # atno 14754 bound_to 4326
  125.1157  113.3158  172.6887 LP  0  0  0  0  0  0  0  0  0  0  0  0  # atno 14755 bound_to 4329
  126.4397  113.7858  171.6756 LP  0  0  0  0  0  0  0  0  0  0  0  0  # atno 14756 bound_to 4329
  150.1399  147.9566  170.8981 LP  0  0  0  0  0  0  0  0  0  0  0  0  # atno 14759 bound_to 5102
  151.6823  148.2327  170.4383 LP  0  0  0  0  0  0  0  0  0  0  0  0  # atno 14760 bound_to 5102
  143.0326  123.2212  151.8867 LP  0  0  0  0  0  0  0  0  0  0  0  0  # atno 14769 bound_to 2094
  143.8375  123.5158  153.2767 LP  0  0  0  0  0  0  0  0  0  0  0  0  # atno 14770 bound_to 2094
  145.8899  139.3048  167.0233 LP  0  0  0  0  0  0  0  0  0  0  0  0  # atno 14775 bound_to 4367
  144.6618  139.3009  165.9470 LP  0  0  0  0  0  0  0  0  0  0  0  0  # atno 14776 bound_to 4367
  138.4650  146.4729  189.5104 LP  0  0  0  0  0  0  0  0  0  0  0  0  # atno 14794 bound_to 1124
  136.7715  144.4274  186.4453 LP  0  0  0  0  0  0  0  0  0  0  0  0  # atno 14795 bound_to 1127
  137.5865  143.4268  187.6005 LP  0  0  0  0  0  0  0  0  0  0  0  0  # atno 14796 bound_to 1127
  121.9531  156.2287  187.3515 LP  0  0  0  0  0  0  0  0  0  0  0  0  # atno 14801 bound_to 231 
  121.4160  159.4653  184.8694 LP  0  0  0  0  0  0  0  0  0  0  0  0  # atno 14802 bound_to 234 
  121.4855  158.9831  183.2073 LP  0  0  0  0  0  0  0  0  0  0  0  0  # atno 14803 bound_to 234 
  133.4645  125.0979  149.9832 LP  0  0  0  0  0  0  0  0  0  0  0  0  # atno 14808 bound_to 3033
  110.3236  139.8357  101.5995 LP  0  0  0  0  0  0  0  0  0  0  0  0  # atno 14816 bound_to 266 
  113.3974  139.9070  104.9655 LP  0  0  0  0  0  0  0  0  0  0  0  0  # atno 14817 bound_to 269 
  114.6367  140.9785  104.4034 LP  0  0  0  0  0  0  0  0  0  0  0  0  # atno 14818 bound_to 269 
  123.5013  122.6459  186.9828 LP  0  0  0  0  0  0  0  0  0  0  0  0  # atno 14823 bound_to 4679
  125.2631  120.9642  187.1190 LP  0  0  0  0  0  0  0  0  0  0  0  0  # atno 14824 bound_to 4682
  124.5499  119.4806  187.6577 LP  0  0  0  0  0  0  0  0  0  0  0  0  # atno 14825 bound_to 4682
  134.8907  119.3505  146.6237 LP  0  0  0  0  0  0  0  0  0  0  0  0  # atno 14843 bound_to 3072
  133.9300  120.1442  147.6790 LP  0  0  0  0  0  0  0  0  0  0  0  0  # atno 14844 bound_to 3072
  139.4182  160.9156  185.8230 LP  0  0  0  0  0  0  0  0  0  0  0  0  # atno 14853 bound_to 1430
  136.9546  157.7729  188.2891 LP  0  0  0  0  0  0  0  0  0  0  0  0  # atno 14854 bound_to 1433
  135.8264  157.3427  187.0472 LP  0  0  0  0  0  0  0  0  0  0  0  0  # atno 14855 bound_to 1433
  142.1307  121.0168  148.9583 LP  0  0  0  0  0  0  0  0  0  0  0  0  # atno 14860 bound_to 3104
  140.8366  120.0291  148.8293 LP  0  0  0  0  0  0  0  0  0  0  0  0  # atno 14861 bound_to 3104
  143.8577  135.1326  137.1004 LP  0  0  0  0  0  0  0  0  0  0  0  0  # atno 14880 bound_to 3618
  144.2619  134.0128  135.9826 LP  0  0  0  0  0  0  0  0  0  0  0  0  # atno 14881 bound_to 3618
  150.2658  138.7039  154.0808 LP  0  0  0  0  0  0  0  0  0  0  0  0  # atno 14898 bound_to 379 
  151.1438  137.4164  154.5689 LP  0  0  0  0  0  0  0  0  0  0  0  0  # atno 14899 bound_to 379 
  149.3694  128.9375  150.2610 LP  0  0  0  0  0  0  0  0  0  0  0  0  # atno 14902 bound_to 1482
  149.6379  129.6374  151.7118 LP  0  0  0  0  0  0  0  0  0  0  0  0  # atno 14903 bound_to 1482
  136.9978  116.7509  184.0897 LP  0  0  0  0  0  0  0  0  0  0  0  0  # atno 14912 bound_to 400 
  139.9267  115.2543  183.8274 LP  0  0  0  0  0  0  0  0  0  0  0  0  # atno 14913 bound_to 403 
  139.8556  116.7989  184.6079 LP  0  0  0  0  0  0  0  0  0  0  0  0  # atno 14914 bound_to 403 
  157.8964  131.4910  150.8524 LP  0  0  0  0  0  0  0  0  0  0  0  0  # atno 14925 bound_to 463 
  156.6404  130.6363  150.2535 LP  0  0  0  0  0  0  0  0  0  0  0  0  # atno 14926 bound_to 463 
  116.6145  142.5009  113.5067 LP  0  0  0  0  0  0  0  0  0  0  0  0  # atno 14927 bound_to 464 
  117.1060  144.1764  117.9229 LP  0  0  0  0  0  0  0  0  0  0  0  0  # atno 14928 bound_to 467 
  118.1012  142.7844  118.1911 LP  0  0  0  0  0  0  0  0  0  0  0  0  # atno 14929 bound_to 467 
  114.7860  144.1317  113.2790 LP  0  0  0  0  0  0  0  0  0  0  0  0  # atno 14930 bound_to 470 
  116.2493  144.8412  113.4276 LP  0  0  0  0  0  0  0  0  0  0  0  0  # atno 14931 bound_to 470 

> <Gold.Score>
     Fitness  S(hb_ext) S(vdw_ext)  S(hb_int)    S(int)      intcor
     29.01       6.55      17.40       0.00      -1.45      -0.76

> <Gold.Goldscore.Fitness>
29.0129

> <Gold.Goldscore.Internal.Vdw>
-1.7538

> <Gold.Goldscore.Internal.Torsion>
-0.4556

> <Gold.Goldscore.External.Vdw>
17.3954

> <Gold.Goldscore.Internal.HBond>
0.0000

> <Gold.Goldscore.External.HBond>
6.5450

> <Gold.Goldscore.Internal.Correction>
-0.7585

> <Gold.Goldscore.Hbonds>
donor molecule, donor type, donor heavy atom, donor atom, acceptor molecule, acceptor atom, score
      P1  H   512   525       L1    17  1.00
      L1  H     8    22       P1  1453  0.28

> <Gold.Goldscore.Internal.Vdw.Weighted>
-1.7538

> <Gold.Goldscore.Internal.Torsion.Weighted>
-0.4556

> <Gold.Goldscore.External.Vdw.Weighted>
23.9187

> <Gold.Goldscore.Internal.HBond.Weighted>
0.0000

> <Gold.Goldscore.External.HBond.Weighted>
6.5450

> <Gold.Goldscore.Internal.Correction.Weighted>
-0.7585

> <Gold.Rescore>
     Score     S(PLP)   S(hbond)     S(cho)   S(metal)  DE(clash)   DE(tors)     intcor
     27.52     -23.49       1.96       0.00       0.00       1.03       0.41       ----

> <Gold.PLP.Fitness>
27.5234

> <Gold.PLP.PLP>
-23.4938

> <Gold.PLP.part.hbond>
-1.7329

> <Gold.PLP.part.metal>
0.0000

> <Gold.PLP.part.buried>
-3.2657

> <Gold.PLP.part.nonpolar>
-20.2365

> <Gold.PLP.part.repulsive>
0.4221

> <Gold.PLP.ligand.clash>
1.0293

> <Gold.PLP.ligand.torsion>
0.4106

> <Gold.PLP.Chemscore.Hbond>
1.9600

> <Gold.PLP.Chemscore.CHOScore>
0.0000

> <Gold.PLP.Chemscore.Metal>
0.0000

> <Gold.Chemscore.Hbonds>
donor molecule, donor type, donor heavy atom, donor atom, acceptor molecule, acceptor atom, score
      L1  H     8    22       P1  1453  0.37
      P1  H   512   525       L1    17  1.00

> <Gold.PLP.Chemscore.Internal.Correction>
   9.000000E+99

