#       Name:                CT1002167954
#       Creating user name   hitesit
#       Creation time:       Sun Apr 16 23:03:51 2023


#       File generated by GOLD software.
#

@<TRIPOS>MOLECULE
CT1002167954|ligand_prepared|mol2|1|dock6
    29    30     1
SMALL
NO_CHARGES


@<TRIPOS>ATOM
      1 C1         142.7283 128.8246 150.6979 C.3            1 RES1               0.0000
      2 C2         141.7769 127.6107 150.6914 C.ar           1 RES1               0.0000
      3 C3         141.8409 130.0647 150.6433 C.2            1 RES1               0.0000
      4 C4         143.5584 128.7092 151.9716 C.2            1 RES1               0.0000
      5 C5         143.7005 128.8629 149.4959 C.3            1 RES1               0.0000
      6 C6         141.3963 127.0151 149.4926 C.ar           1 RES1               0.0000
      7 C7         141.2746 127.0746 151.8742 C.ar           1 RES1               0.0000
      8 N8         141.7099 130.7987 151.7852 N.am           1 RES1               0.0000
      9 O9         141.2340 130.3718 149.6246 O.2            1 RES1               0.0000
     10 N10        143.3931 129.6697 152.9350 N.am           1 RES1               0.0000
     11 O11        144.3419 127.7862 152.1568 O.2            1 RES1               0.0000
     12 C12        144.7866 129.9200 149.6192 C.3            1 RES1               0.0000
     13 C13        140.5467 125.9213 149.4769 C.ar           1 RES1               0.0000
     14 C14        140.4250 125.9809 151.8562 C.ar           1 RES1               0.0000
     15 C15        142.4841 130.6921 152.9126 C.2            1 RES1               0.0000
     16 C16        140.0609 125.4032 150.6585 C.ar           1 RES1               0.0000
     17 O17        142.3574 131.4844 153.8418 O.2            1 RES1               0.0000
     18 H18        144.1751 127.8792 149.3942 H              1 RES1               0.0000
     19 H19        143.1246 129.0534 148.5819 H              1 RES1               0.0000
     20 H20        141.7665 127.4105 148.5526 H              1 RES1               0.0000
     21 H21        141.5467 127.5134 152.8282 H              1 RES1               0.0000
     22 H22        140.9676 131.4908 151.8025 H              1 RES1               0.0000
     23 H23        144.0043 129.6176 153.7436 H              1 RES1               0.0000
     24 H24        145.4408 129.9040 148.7500 H              1 RES1               0.0000
     25 H25        144.3506 130.9138 149.6970 H              1 RES1               0.0000
     26 H26        145.3949 129.7465 150.5044 H              1 RES1               0.0000
     27 H27        140.2621 125.4712 148.5315 H              1 RES1               0.0000
     28 H28        140.0446 125.5768 152.7885 H              1 RES1               0.0000
     29 H29        139.3957 124.5462 150.6459 H              1 RES1               0.0000
@<TRIPOS>BOND
    1    1    2 1     
    2    1    3 1     
    3    1    4 1     
    4    1    5 1     
    5    2    6 ar    
    6    2    7 ar    
    7    3    8 1     
    8    3    9 2     
    9    4   10 1     
   10    4   11 2     
   11    5   12 1     
   12    5   18 1     
   13    5   19 1     
   14    6   13 ar    
   15    6   20 1     
   16    7   14 ar    
   17    7   21 1     
   18    8   15 1     
   19    8   22 1     
   20   10   15 1     
   21   10   23 1     
   22   12   24 1     
   23   12   25 1     
   24   12   26 1     
   25   13   16 ar    
   26   13   27 1     
   27   14   16 ar    
   28   14   28 1     
   29   15   17 2     
   30   16   29 1     
@<TRIPOS>SUBSTRUCTURE
      1 RES1           1
@<TRIPOS>SET
DONOR_HYDROGENS      STATIC     ATOMS    <user>   **** ""
2 22 23
ATOM$RED        STATIC     ATOMS    COLORGROUP SYSTEM
2 22 23
@<TRIPOS>COMMENT
> <Gold.Version>
2022.3.0

> <Gold.Id.Protein>
unknown|7rmh_cavity_clean|pdb

> <Gold.Protein.RotatedTorsions>
[ 2038 2027 2028 2029 ] final  148.88 input  103.58 | X-H torsion
[ 4286 4281 4282 4283 ] final -173.51 input  108.09 | X-H torsion
[  535  513  514  515 ] final  166.09 input  105.58 | X-H torsion
[ 2069 2062 2060 2057 ] final   65.20 input   60.00 | X-H torsion
[ 4334 4326 4327 4328 ] final   36.51 input   45.76 | X-H torsion
[ 5109 5102 5100 5097 ] final   87.29 input   60.01 | X-H torsion
[ 2099 2094 2093 2090 ] final  -88.46 input   60.02 | X-H torsion
[ 4376 4367 4366 4364 ] final  165.67 input   59.97 | X-H torsion
[ 1144 1124 1125 1126 ] final   59.87 input   64.50 | X-H torsion
[  249  231  232  233 ] final  -16.68 input  105.30 | X-H torsion
[ 3038 3033 3034 3035 ] final -149.32 input   60.01 | X-H torsion
[  280  266  267  268 ] final  -25.64 input  114.84 | X-H torsion
[ 4687 4679 4680 4681 ] final  163.28 input   46.48 | X-H torsion
[ 3081 3072 3071 3069 ] final  157.12 input   59.99 | X-H torsion
[  336  328  327  326 ] final  121.93 input   59.97 | X-H torsion
[ 1444 1430 1431 1432 ] final   20.63 input   54.63 | X-H torsion
[ 3113 3104 3103 3101 ] final  129.40 input   60.00 | X-H torsion
[ 3627 3618 3617 3615 ] final   88.43 input   60.02 | X-H torsion
[  387  379  378  376 ] final   91.01 input   59.98 | X-H torsion
[ 1488 1482 1480 1477 ] final  -81.88 input   59.97 | X-H torsion
[  421  400  401  402 ] final  -61.17 input   82.00 | X-H torsion
[  472  463  461  458 ] final   58.40 input   59.98 | X-H torsion
[  478  464  465  466 ] final   26.78 input  115.28 | X-H torsion
[  484  470  468  465 ] final   87.63 input   59.99 | X-H torsion
[ 14714 2030 2029 2028 ] final   85.41 input    0.00 | X-H torsion
[ 14723 4284 4283 4282 ] final  161.35 input    0.00 | X-H torsion
[ 14732  516  515  514 ] final -162.05 input    0.00 | X-H torsion
[ 14755 4329 4328 4327 ] final   51.52 input    0.00 | X-H torsion
[ 14795 1127 1126 1125 ] final   72.26 input   -0.00 | X-H torsion
[ 14802  234  233  232 ] final   84.85 input   -0.00 | X-H torsion
[ 14817  269  268  267 ] final -147.16 input    0.00 | X-H torsion
[ 14824 4682 4681 4680 ] final   11.88 input   -0.00 | X-H torsion
[ 14854 1433 1432 1431 ] final  160.81 input   -0.00 | X-H torsion
[ 14913  403  402  401 ] final  -12.38 input   -0.00 | X-H torsion
[ 14928  467  466  465 ] final  -70.05 input    0.00 | X-H torsion

> <Gold.Protein.ActiveResidues>
 GLU27   LEU30   GLN31   ASP33   LYS34   GLN35   VAL36   TYR37   ARG38   THR40  
 HIS41   ARG42   ILE207  GLU209  HIS220  PHE222  CYS237  PHE238  ASN239  ASP240 
 VAL241  THR242  ARG280  TRP281  ARG283  THR284  ILE285  SER286  ARG356  HIS357 
 TYR358  TYR360  ASP381  ILE382  ILE383  GLN384  ARG385  MET386  HIS387  LEU388 
 ARG389  GLN390  TYR391  GLU392  LEU393  LEU394  ALA56   LYS57   ILE58   TYR59  
 ALA60   MET61   LEU79   ILE80   ILE81   TRP82   ILE93   VAL100  MET101  THR102 
 CYS103  CYS121  ASP312  ASN313  TRP332  ASP333  SER334  PHE335 

> <Gold.Protein.RotatedAtoms>
  121.2788  155.8095  186.3830 H   0  0  0  0  0  0  0  0  0  0  0  0  # atno 249  bound_to 231 
  110.4118  141.0075  102.8391 H   0  0  0  0  0  0  0  0  0  0  0  0  # atno 280  bound_to 266 
  149.8542  144.7234  147.1028 H   0  0  0  0  0  0  0  0  0  0  0  0  # atno 336  bound_to 328 
  148.8167  144.7867  145.8123 H   0  0  0  0  0  0  0  0  0  0  0  0  # atno 337  bound_to 328 
  149.6684  143.4003  146.1234 H   0  0  0  0  0  0  0  0  0  0  0  0  # atno 338  bound_to 328 
  150.5344  138.6641  154.3394 H   0  0  0  0  0  0  0  0  0  0  0  0  # atno 387  bound_to 379 
  136.9869  116.7692  184.1227 H   0  0  0  0  0  0  0  0  0  0  0  0  # atno 421  bound_to 400 
  157.1913  130.6798  150.1682 H   0  0  0  0  0  0  0  0  0  0  0  0  # atno 472  bound_to 463 
  117.2039  141.8519  114.1290 H   0  0  0  0  0  0  0  0  0  0  0  0  # atno 478  bound_to 464 
  115.0762  144.0277  113.2029 H   0  0  0  0  0  0  0  0  0  0  0  0  # atno 484  bound_to 470 
  120.7002  163.3304  165.7657 H   0  0  0  0  0  0  0  0  0  0  0  0  # atno 535  bound_to 513 
  138.6001  145.5830  188.8314 H   0  0  0  0  0  0  0  0  0  0  0  0  # atno 1144 bound_to 1124
  138.6758  159.9045  184.8383 H   0  0  0  0  0  0  0  0  0  0  0  0  # atno 1444 bound_to 1430
  148.3431  129.3731  150.3933 H   0  0  0  0  0  0  0  0  0  0  0  0  # atno 1488 bound_to 1482
  132.3843  164.3242  175.5678 H   0  0  0  0  0  0  0  0  0  0  0  0  # atno 2038 bound_to 2027
  137.5629  129.4094  152.7214 H   0  0  0  0  0  0  0  0  0  0  0  0  # atno 2069 bound_to 2062
  142.7072  124.5334  152.3786 H   0  0  0  0  0  0  0  0  0  0  0  0  # atno 2099 bound_to 2094
  133.1496  125.1833  150.2316 H   0  0  0  0  0  0  0  0  0  0  0  0  # atno 3038 bound_to 3033
  134.4632  124.1763  150.3264 H   0  0  0  0  0  0  0  0  0  0  0  0  # atno 3039 bound_to 3033
  134.7693  118.7352  146.8160 H   0  0  0  0  0  0  0  0  0  0  0  0  # atno 3081 bound_to 3072
  142.2776  120.1026  147.8312 H   0  0  0  0  0  0  0  0  0  0  0  0  # atno 3113 bound_to 3104
  144.4607  133.4079  136.6638 H   0  0  0  0  0  0  0  0  0  0  0  0  # atno 3627 bound_to 3618
  119.4102  120.3650  172.8483 H   0  0  0  0  0  0  0  0  0  0  0  0  # atno 4286 bound_to 4281
  124.3833  115.7299  171.6402 H   0  0  0  0  0  0  0  0  0  0  0  0  # atno 4334 bound_to 4326
  145.5012  139.8769  167.5235 H   0  0  0  0  0  0  0  0  0  0  0  0  # atno 4376 bound_to 4367
  123.2791  123.5303  185.7020 H   0  0  0  0  0  0  0  0  0  0  0  0  # atno 4687 bound_to 4679
  150.1316  147.8553  171.1198 H   0  0  0  0  0  0  0  0  0  0  0  0  # atno 5109 bound_to 5102
  132.5748  162.5872  175.6072 LP  0  0  0  0  0  0  0  0  0  0  0  0  # atno 14713 bound_to 2027
  128.4318  161.5638  174.0995 LP  0  0  0  0  0  0  0  0  0  0  0  0  # atno 14714 bound_to 2030
  129.2926  160.5370  175.1971 LP  0  0  0  0  0  0  0  0  0  0  0  0  # atno 14715 bound_to 2030
  121.0945  119.9034  172.8458 LP  0  0  0  0  0  0  0  0  0  0  0  0  # atno 14722 bound_to 4281
  121.8100  116.5101  170.1121 LP  0  0  0  0  0  0  0  0  0  0  0  0  # atno 14723 bound_to 4284
  120.2001  116.4563  170.7486 LP  0  0  0  0  0  0  0  0  0  0  0  0  # atno 14724 bound_to 4284
  122.2635  164.0448  166.0811 LP  0  0  0  0  0  0  0  0  0  0  0  0  # atno 14731 bound_to 513 
  124.7409  164.4861  163.5178 LP  0  0  0  0  0  0  0  0  0  0  0  0  # atno 14732 bound_to 516 
  123.2678  164.8977  164.3305 LP  0  0  0  0  0  0  0  0  0  0  0  0  # atno 14733 bound_to 516 
  139.0974  129.7204  153.1638 LP  0  0  0  0  0  0  0  0  0  0  0  0  # atno 14736 bound_to 2062
  138.0727  130.9499  152.8399 LP  0  0  0  0  0  0  0  0  0  0  0  0  # atno 14737 bound_to 2062
  124.2069  117.3230  172.3497 LP  0  0  0  0  0  0  0  0  0  0  0  0  # atno 14754 bound_to 4326
  125.4449  114.1185  171.6191 LP  0  0  0  0  0  0  0  0  0  0  0  0  # atno 14755 bound_to 4329
  126.1105  112.9832  172.7452 LP  0  0  0  0  0  0  0  0  0  0  0  0  # atno 14756 bound_to 4329
  151.4784  148.2792  170.3111 LP  0  0  0  0  0  0  0  0  0  0  0  0  # atno 14759 bound_to 5102
  151.5903  147.6256  171.8033 LP  0  0  0  0  0  0  0  0  0  0  0  0  # atno 14760 bound_to 5102
  143.2425  123.0313  152.0538 LP  0  0  0  0  0  0  0  0  0  0  0  0  # atno 14769 bound_to 2094
  143.7630  123.8160  153.3880 LP  0  0  0  0  0  0  0  0  0  0  0  0  # atno 14770 bound_to 2094
  145.4309  138.9906  166.1604 LP  0  0  0  0  0  0  0  0  0  0  0  0  # atno 14775 bound_to 4367
  144.1987  139.9873  166.5540 LP  0  0  0  0  0  0  0  0  0  0  0  0  # atno 14776 bound_to 4367
  138.0810  145.6986  190.5011 LP  0  0  0  0  0  0  0  0  0  0  0  0  # atno 14794 bound_to 1124
  137.7446  143.6624  187.6229 LP  0  0  0  0  0  0  0  0  0  0  0  0  # atno 14795 bound_to 1127
  136.6134  144.1918  186.4229 LP  0  0  0  0  0  0  0  0  0  0  0  0  # atno 14796 bound_to 1127
  122.9059  155.5912  186.9792 LP  0  0  0  0  0  0  0  0  0  0  0  0  # atno 14801 bound_to 231 
  122.1129  159.1528  183.4848 LP  0  0  0  0  0  0  0  0  0  0  0  0  # atno 14802 bound_to 234 
  120.7885  159.2957  184.5919 LP  0  0  0  0  0  0  0  0  0  0  0  0  # atno 14803 bound_to 234 
  133.3983  124.2686  151.5769 LP  0  0  0  0  0  0  0  0  0  0  0  0  # atno 14808 bound_to 3033
  110.4515  140.0760  101.3621 LP  0  0  0  0  0  0  0  0  0  0  0  0  # atno 14816 bound_to 266 
  113.7851  141.1298  105.1579 LP  0  0  0  0  0  0  0  0  0  0  0  0  # atno 14817 bound_to 269 
  114.2491  139.7557  104.2110 LP  0  0  0  0  0  0  0  0  0  0  0  0  # atno 14818 bound_to 269 
  122.7973  122.3754  186.9255 LP  0  0  0  0  0  0  0  0  0  0  0  0  # atno 14823 bound_to 4679
  124.9620  121.0857  187.3495 LP  0  0  0  0  0  0  0  0  0  0  0  0  # atno 14824 bound_to 4682
  124.8509  119.3590  187.4273 LP  0  0  0  0  0  0  0  0  0  0  0  0  # atno 14825 bound_to 4682
  134.3472  120.2634  147.1844 LP  0  0  0  0  0  0  0  0  0  0  0  0  # atno 14843 bound_to 3072
  133.7115  119.0136  148.0213 LP  0  0  0  0  0  0  0  0  0  0  0  0  # atno 14844 bound_to 3072
  139.9580  160.4608  185.8909 LP  0  0  0  0  0  0  0  0  0  0  0  0  # atno 14853 bound_to 1430
  135.8672  157.2703  187.0409 LP  0  0  0  0  0  0  0  0  0  0  0  0  # atno 14854 bound_to 1433
  136.9139  157.8454  188.2954 LP  0  0  0  0  0  0  0  0  0  0  0  0  # atno 14855 bound_to 1433
  141.8871  121.0044  149.1277 LP  0  0  0  0  0  0  0  0  0  0  0  0  # atno 14860 bound_to 3104
  140.8671  119.8437  148.5994 LP  0  0  0  0  0  0  0  0  0  0  0  0  # atno 14861 bound_to 3104
  144.0642  134.5131  137.7899 LP  0  0  0  0  0  0  0  0  0  0  0  0  # atno 14880 bound_to 3618
  143.9558  134.8843  136.2033 LP  0  0  0  0  0  0  0  0  0  0  0  0  # atno 14881 bound_to 3618
  151.0389  137.1169  154.3667 LP  0  0  0  0  0  0  0  0  0  0  0  0  # atno 14898 bound_to 379 
  149.8723  137.5798  153.3221 LP  0  0  0  0  0  0  0  0  0  0  0  0  # atno 14899 bound_to 379 
  149.8871  129.0423  150.7885 LP  0  0  0  0  0  0  0  0  0  0  0  0  # atno 14902 bound_to 1482
  148.9551  129.9271  151.7961 LP  0  0  0  0  0  0  0  0  0  0  0  0  # atno 14903 bound_to 1482
  136.5014  115.2313  183.4454 LP  0  0  0  0  0  0  0  0  0  0  0  0  # atno 14912 bound_to 400 
  139.2318  115.9028  183.6700 LP  0  0  0  0  0  0  0  0  0  0  0  0  # atno 14913 bound_to 403 
  140.5505  116.1503  184.7653 LP  0  0  0  0  0  0  0  0  0  0  0  0  # atno 14914 bound_to 403 
  156.0838  131.3687  151.1412 LP  0  0  0  0  0  0  0  0  0  0  0  0  # atno 14925 bound_to 463 
  157.6522  131.8124  151.2419 LP  0  0  0  0  0  0  0  0  0  0  0  0  # atno 14926 bound_to 463 
  117.6772  143.3321  113.3268 LP  0  0  0  0  0  0  0  0  0  0  0  0  # atno 14927 bound_to 464 
  118.3991  143.5293  117.7181 LP  0  0  0  0  0  0  0  0  0  0  0  0  # atno 14928 bound_to 467 
  116.8082  143.4316  118.3959 LP  0  0  0  0  0  0  0  0  0  0  0  0  # atno 14929 bound_to 467 
  116.2191  145.1302  113.5583 LP  0  0  0  0  0  0  0  0  0  0  0  0  # atno 14930 bound_to 470 
  114.6486  145.4472  113.8739 LP  0  0  0  0  0  0  0  0  0  0  0  0  # atno 14931 bound_to 470 

> <Gold.Score>
     Fitness  S(hb_ext) S(vdw_ext)  S(hb_int)    S(int)      intcor
     32.00       0.53      23.41       0.00      -0.71      -0.76

> <Gold.Goldscore.Fitness>
32.0009

> <Gold.Goldscore.Internal.Vdw>
-0.9614

> <Gold.Goldscore.Internal.Torsion>
-0.5101

> <Gold.Goldscore.External.Vdw>
23.4083

> <Gold.Goldscore.Internal.HBond>
0.0000

> <Gold.Goldscore.External.HBond>
0.5276

> <Gold.Goldscore.Internal.Correction>
-0.7585

> <Gold.Goldscore.Hbonds>
donor molecule, donor type, donor heavy atom, donor atom, acceptor molecule, acceptor atom, score
      L1  H    10    23       P1  1463  0.26

> <Gold.Goldscore.Internal.Vdw.Weighted>
-0.9614

> <Gold.Goldscore.Internal.Torsion.Weighted>
-0.5101

> <Gold.Goldscore.External.Vdw.Weighted>
32.1864

> <Gold.Goldscore.Internal.HBond.Weighted>
0.0000

> <Gold.Goldscore.External.HBond.Weighted>
0.5276

> <Gold.Goldscore.Internal.Correction.Weighted>
-0.7585

> <Gold.Rescore>
     Score     S(PLP)   S(hbond)     S(cho)   S(metal)  DE(clash)   DE(tors)     intcor
     23.10     -25.28       0.08       0.00       0.00       0.00       1.21       ----

> <Gold.PLP.Fitness>
23.0980

> <Gold.PLP.PLP>
-25.2815

> <Gold.PLP.part.hbond>
-0.9095

> <Gold.PLP.part.metal>
0.0000

> <Gold.PLP.part.buried>
0.5507

> <Gold.PLP.part.nonpolar>
-31.6473

> <Gold.PLP.part.repulsive>
6.7722

> <Gold.PLP.ligand.clash>
0.0000

> <Gold.PLP.ligand.torsion>
1.2146

> <Gold.PLP.Chemscore.Hbond>
0.0819

> <Gold.PLP.Chemscore.CHOScore>
0.0000

> <Gold.PLP.Chemscore.Metal>
0.0000

> <Gold.Chemscore.Hbonds>
donor molecule, donor type, donor heavy atom, donor atom, acceptor molecule, acceptor atom, score
      L1  H    10    23       P1  1463  0.94

> <Gold.PLP.Chemscore.Internal.Correction>
   9.000000E+99

