#       Name:                CT1002167954
#       Creating user name   hitesit
#       Creation time:       Sun Apr 16 23:04:40 2023


#       File generated by GOLD software.
#

@<TRIPOS>MOLECULE
CT1002167954|ligand_prepared|mol2|1|dock10
    29    30     1
SMALL
NO_CHARGES


@<TRIPOS>ATOM
      1 C1         143.0217 131.9198 152.1294 C.3            1 RES1               0.0000
      2 C2         143.2789 130.4244 151.8529 C.ar           1 RES1               0.0000
      3 C3         141.5457 132.1634 151.8286 C.2            1 RES1               0.0000
      4 C4         143.4074 132.1570 153.5853 C.2            1 RES1               0.0000
      5 C5         143.8658 132.8719 151.2504 C.3            1 RES1               0.0000
      6 C6         142.7907 129.4497 152.7180 C.ar           1 RES1               0.0000
      7 C7         143.9989 130.0048 150.7375 C.ar           1 RES1               0.0000
      8 N8         140.7058 132.3405 152.8884 N.am           1 RES1               0.0000
      9 O9         141.1186 132.1609 150.6807 O.2            1 RES1               0.0000
     10 N10        142.4146 132.5023 154.4644 N.am           1 RES1               0.0000
     11 O11        144.5593 132.0316 153.9824 O.2            1 RES1               0.0000
     12 C12        143.7970 134.3280 151.6828 C.3            1 RES1               0.0000
     13 C13        143.0118 128.1041 152.4753 C.ar           1 RES1               0.0000
     14 C14        144.2191 128.6587 150.4968 C.ar           1 RES1               0.0000
     15 C15        141.0764 132.5748 154.1882 C.2            1 RES1               0.0000
     16 C16        143.7257 127.7077 151.3645 C.ar           1 RES1               0.0000
     17 O17        140.2380 132.8387 155.0452 O.2            1 RES1               0.0000
     18 H18        144.9122 132.5441 151.2789 H              1 RES1               0.0000
     19 H19        143.5186 132.7951 150.2126 H              1 RES1               0.0000
     20 H20        142.2289 129.7427 153.5986 H              1 RES1               0.0000
     21 H21        144.3975 130.7354 150.0418 H              1 RES1               0.0000
     22 H22        139.7101 132.2943 152.6968 H              1 RES1               0.0000
     23 H23        142.6996 132.7262 155.4126 H              1 RES1               0.0000
     24 H24        144.4066 134.9526 151.0331 H              1 RES1               0.0000
     25 H25        142.7734 134.6946 151.6422 H              1 RES1               0.0000
     26 H26        144.1588 134.4451 152.7023 H              1 RES1               0.0000
     27 H27        142.6226 127.3597 153.1620 H              1 RES1               0.0000
     28 H28        144.7820 128.3513 149.6217 H              1 RES1               0.0000
     29 H29        143.8984 126.6535 151.1744 H              1 RES1               0.0000
@<TRIPOS>BOND
    1    1    2 1     
    2    1    3 1     
    3    1    4 1     
    4    1    5 1     
    5    2    6 ar    
    6    2    7 ar    
    7    3    8 1     
    8    3    9 2     
    9    4   10 1     
   10    4   11 2     
   11    5   12 1     
   12    5   18 1     
   13    5   19 1     
   14    6   13 ar    
   15    6   20 1     
   16    7   14 ar    
   17    7   21 1     
   18    8   15 1     
   19    8   22 1     
   20   10   15 1     
   21   10   23 1     
   22   12   24 1     
   23   12   25 1     
   24   12   26 1     
   25   13   16 ar    
   26   13   27 1     
   27   14   16 ar    
   28   14   28 1     
   29   15   17 2     
   30   16   29 1     
@<TRIPOS>SUBSTRUCTURE
      1 RES1           1
@<TRIPOS>SET
DONOR_HYDROGENS      STATIC     ATOMS    <user>   **** ""
2 22 23
ATOM$RED        STATIC     ATOMS    COLORGROUP SYSTEM
2 22 23
@<TRIPOS>COMMENT
> <Gold.Version>
2022.3.0

> <Gold.Id.Protein>
unknown|7rmh_cavity_clean|pdb

> <Gold.Protein.RotatedTorsions>
[ 2038 2027 2028 2029 ] final   78.73 input  103.58 | X-H torsion
[ 4286 4281 4282 4283 ] final   61.83 input  108.09 | X-H torsion
[  535  513  514  515 ] final  -68.72 input  105.58 | X-H torsion
[ 2069 2062 2060 2057 ] final  -73.75 input   60.00 | X-H torsion
[ 4334 4326 4327 4328 ] final  -52.56 input   45.76 | X-H torsion
[ 5109 5102 5100 5097 ] final   77.00 input   60.01 | X-H torsion
[ 2099 2094 2093 2090 ] final  -76.20 input   60.02 | X-H torsion
[ 4376 4367 4366 4364 ] final  -36.67 input   59.97 | X-H torsion
[ 1144 1124 1125 1126 ] final   83.08 input   64.50 | X-H torsion
[  249  231  232  233 ] final  -22.42 input  105.30 | X-H torsion
[ 3038 3033 3034 3035 ] final  -88.84 input   60.01 | X-H torsion
[  280  266  267  268 ] final    7.06 input  114.84 | X-H torsion
[ 4687 4679 4680 4681 ] final   23.26 input   46.48 | X-H torsion
[ 3081 3072 3071 3069 ] final  -53.80 input   59.99 | X-H torsion
[  336  328  327  326 ] final  -39.18 input   59.97 | X-H torsion
[ 1444 1430 1431 1432 ] final  150.93 input   54.63 | X-H torsion
[ 3113 3104 3103 3101 ] final  -62.90 input   60.00 | X-H torsion
[ 3627 3618 3617 3615 ] final  -12.47 input   60.02 | X-H torsion
[  387  379  378  376 ] final  145.06 input   59.98 | X-H torsion
[ 1488 1482 1480 1477 ] final  -23.75 input   59.97 | X-H torsion
[  421  400  401  402 ] final   75.75 input   82.00 | X-H torsion
[  472  463  461  458 ] final  -45.06 input   59.98 | X-H torsion
[  478  464  465  466 ] final  122.92 input  115.28 | X-H torsion
[  484  470  468  465 ] final   -8.54 input   59.99 | X-H torsion
[ 14714 2030 2029 2028 ] final   20.48 input    0.00 | X-H torsion
[ 14723 4284 4283 4282 ] final  110.57 input    0.00 | X-H torsion
[ 14732  516  515  514 ] final  162.13 input    0.00 | X-H torsion
[ 14755 4329 4328 4327 ] final  100.15 input    0.00 | X-H torsion
[ 14795 1127 1126 1125 ] final  -41.50 input   -0.00 | X-H torsion
[ 14802  234  233  232 ] final  -38.60 input   -0.00 | X-H torsion
[ 14817  269  268  267 ] final  166.24 input    0.00 | X-H torsion
[ 14824 4682 4681 4680 ] final   51.02 input   -0.00 | X-H torsion
[ 14854 1433 1432 1431 ] final  113.05 input   -0.00 | X-H torsion
[ 14913  403  402  401 ] final  -80.81 input   -0.00 | X-H torsion
[ 14928  467  466  465 ] final  103.06 input    0.00 | X-H torsion

> <Gold.Protein.ActiveResidues>
 GLU27   LEU30   GLN31   ASP33   LYS34   GLN35   VAL36   TYR37   ARG38   THR40  
 HIS41   ARG42   ILE207  GLU209  HIS220  PHE222  CYS237  PHE238  ASN239  ASP240 
 VAL241  THR242  ARG280  TRP281  ARG283  THR284  ILE285  SER286  ARG356  HIS357 
 TYR358  TYR360  ASP381  ILE382  ILE383  GLN384  ARG385  MET386  HIS387  LEU388 
 ARG389  GLN390  TYR391  GLU392  LEU393  LEU394  ALA56   LYS57   ILE58   TYR59  
 ALA60   MET61   LEU79   ILE80   ILE81   TRP82   ILE93   VAL100  MET101  THR102 
 CYS103  CYS121  ASP312  ASN313  TRP332  ASP333  SER334  PHE335 

> <Gold.Protein.RotatedAtoms>
  121.2655  155.8633  186.4517 H   0  0  0  0  0  0  0  0  0  0  0  0  # atno 249  bound_to 231 
  110.5852  141.3115  102.4867 H   0  0  0  0  0  0  0  0  0  0  0  0  # atno 280  bound_to 266 
  149.2194  143.6469  145.6883 H   0  0  0  0  0  0  0  0  0  0  0  0  # atno 336  bound_to 328 
  150.0769  144.0939  147.0338 H   0  0  0  0  0  0  0  0  0  0  0  0  # atno 337  bound_to 328 
  149.0421  145.1699  146.3156 H   0  0  0  0  0  0  0  0  0  0  0  0  # atno 338  bound_to 328 
  149.9715  138.5177  153.7181 H   0  0  0  0  0  0  0  0  0  0  0  0  # atno 387  bound_to 379 
  137.1039  115.3637  183.2652 H   0  0  0  0  0  0  0  0  0  0  0  0  # atno 421  bound_to 400 
  156.0513  131.1809  150.9496 H   0  0  0  0  0  0  0  0  0  0  0  0  # atno 472  bound_to 463 
  116.6532  142.7698  113.3591 H   0  0  0  0  0  0  0  0  0  0  0  0  # atno 478  bound_to 464 
  116.2350  144.7751  113.4023 H   0  0  0  0  0  0  0  0  0  0  0  0  # atno 484  bound_to 470 
  122.0742  163.3978  166.5202 H   0  0  0  0  0  0  0  0  0  0  0  0  # atno 535  bound_to 513 
  138.6058  145.9385  188.8844 H   0  0  0  0  0  0  0  0  0  0  0  0  # atno 1144 bound_to 1124
  139.3985  160.9365  185.8434 H   0  0  0  0  0  0  0  0  0  0  0  0  # atno 1444 bound_to 1430
  148.2273  129.8385  151.1667 H   0  0  0  0  0  0  0  0  0  0  0  0  # atno 1488 bound_to 1482
  132.6208  163.7444  174.7674 H   0  0  0  0  0  0  0  0  0  0  0  0  # atno 2038 bound_to 2027
  139.1402  130.0265  153.1723 H   0  0  0  0  0  0  0  0  0  0  0  0  # atno 2069 bound_to 2062
  142.7826  124.6121  152.5463 H   0  0  0  0  0  0  0  0  0  0  0  0  # atno 2099 bound_to 2094
  133.9514  124.8145  149.8428 H   0  0  0  0  0  0  0  0  0  0  0  0  # atno 3038 bound_to 3033
  134.1813  123.8976  151.2049 H   0  0  0  0  0  0  0  0  0  0  0  0  # atno 3039 bound_to 3033
  133.6694  119.4834  148.0367 H   0  0  0  0  0  0  0  0  0  0  0  0  # atno 3081 bound_to 3072
  140.9706  120.3816  149.1257 H   0  0  0  0  0  0  0  0  0  0  0  0  # atno 3113 bound_to 3104
  144.1634  134.2190  137.8197 H   0  0  0  0  0  0  0  0  0  0  0  0  # atno 3627 bound_to 3618
  120.8932  120.5453  172.3926 H   0  0  0  0  0  0  0  0  0  0  0  0  # atno 4286 bound_to 4281
  125.1176  116.7441  171.7192 H   0  0  0  0  0  0  0  0  0  0  0  0  # atno 4334 bound_to 4326
  144.3550  139.5990  166.1150 H   0  0  0  0  0  0  0  0  0  0  0  0  # atno 4376 bound_to 4367
  123.3690  122.5207  187.0311 H   0  0  0  0  0  0  0  0  0  0  0  0  # atno 4687 bound_to 4679
  150.1352  147.9232  170.9664 H   0  0  0  0  0  0  0  0  0  0  0  0  # atno 5109 bound_to 5102
  132.3438  163.1534  176.3888 LP  0  0  0  0  0  0  0  0  0  0  0  0  # atno 14713 bound_to 2027
  128.4905  161.7441  175.0097 LP  0  0  0  0  0  0  0  0  0  0  0  0  # atno 14714 bound_to 2030
  129.2339  160.3567  174.2869 LP  0  0  0  0  0  0  0  0  0  0  0  0  # atno 14715 bound_to 2030
  119.6404  119.7265  173.2926 LP  0  0  0  0  0  0  0  0  0  0  0  0  # atno 14722 bound_to 4281
  121.2747  116.7212  169.6426 LP  0  0  0  0  0  0  0  0  0  0  0  0  # atno 14723 bound_to 4284
  120.7354  116.2451  171.2182 LP  0  0  0  0  0  0  0  0  0  0  0  0  # atno 14724 bound_to 4284
  120.9203  163.9789  165.3436 LP  0  0  0  0  0  0  0  0  0  0  0  0  # atno 14731 bound_to 513 
  124.8519  164.5526  164.0345 LP  0  0  0  0  0  0  0  0  0  0  0  0  # atno 14732 bound_to 516 
  123.1567  164.8312  163.8139 LP  0  0  0  0  0  0  0  0  0  0  0  0  # atno 14733 bound_to 516 
  137.7932  130.8405  152.7600 LP  0  0  0  0  0  0  0  0  0  0  0  0  # atno 14736 bound_to 2062
  137.7874  129.2078  152.7892 LP  0  0  0  0  0  0  0  0  0  0  0  0  # atno 14737 bound_to 2062
  123.5023  116.3499  172.2740 LP  0  0  0  0  0  0  0  0  0  0  0  0  # atno 14754 bound_to 4326
  126.1413  113.9921  171.5317 LP  0  0  0  0  0  0  0  0  0  0  0  0  # atno 14755 bound_to 4329
  125.4141  113.1096  172.8326 LP  0  0  0  0  0  0  0  0  0  0  0  0  # atno 14756 bound_to 4329
  151.6228  148.2496  170.3937 LP  0  0  0  0  0  0  0  0  0  0  0  0  # atno 14759 bound_to 5102
  151.4424  147.5869  171.8752 LP  0  0  0  0  0  0  0  0  0  0  0  0  # atno 14760 bound_to 5102
  143.1127  123.1375  151.9423 LP  0  0  0  0  0  0  0  0  0  0  0  0  # atno 14769 bound_to 2094
  143.8169  123.6306  153.3307 LP  0  0  0  0  0  0  0  0  0  0  0  0  # atno 14770 bound_to 2094
  144.9732  140.1751  167.5058 LP  0  0  0  0  0  0  0  0  0  0  0  0  # atno 14775 bound_to 4367
  145.8108  139.0827  166.6273 LP  0  0  0  0  0  0  0  0  0  0  0  0  # atno 14776 bound_to 4367
  138.0755  145.3571  190.4501 LP  0  0  0  0  0  0  0  0  0  0  0  0  # atno 14794 bound_to 1124
  137.3111  144.7393  186.7531 LP  0  0  0  0  0  0  0  0  0  0  0  0  # atno 14795 bound_to 1127
  137.0469  143.1148  187.2927 LP  0  0  0  0  0  0  0  0  0  0  0  0  # atno 14796 bound_to 1127
  122.9188  155.5385  186.9118 LP  0  0  0  0  0  0  0  0  0  0  0  0  # atno 14801 bound_to 231 
  121.5415  159.4802  184.8607 LP  0  0  0  0  0  0  0  0  0  0  0  0  # atno 14802 bound_to 234 
  121.3599  158.9682  183.2160 LP  0  0  0  0  0  0  0  0  0  0  0  0  # atno 14803 bound_to 234 
  132.8865  124.9064  151.0942 LP  0  0  0  0  0  0  0  0  0  0  0  0  # atno 14808 bound_to 3033
  110.2816  139.7781  101.7075 LP  0  0  0  0  0  0  0  0  0  0  0  0  # atno 14816 bound_to 266 
  114.3319  141.2458  104.7619 LP  0  0  0  0  0  0  0  0  0  0  0  0  # atno 14817 bound_to 269 
  113.7022  139.6397  104.6070 LP  0  0  0  0  0  0  0  0  0  0  0  0  # atno 14818 bound_to 269 
  122.7103  123.3525  185.6393 LP  0  0  0  0  0  0  0  0  0  0  0  0  # atno 14823 bound_to 4679
  124.5166  120.9348  187.6891 LP  0  0  0  0  0  0  0  0  0  0  0  0  # atno 14824 bound_to 4682
  125.2964  119.5100  187.0877 LP  0  0  0  0  0  0  0  0  0  0  0  0  # atno 14825 bound_to 4682
  134.5303  118.4567  147.1126 LP  0  0  0  0  0  0  0  0  0  0  0  0  # atno 14843 bound_to 3072
  134.6357  120.0672  146.8642 LP  0  0  0  0  0  0  0  0  0  0  0  0  # atno 14844 bound_to 3072
  139.2569  159.4597  184.9158 LP  0  0  0  0  0  0  0  0  0  0  0  0  # atno 14853 bound_to 1430
  135.7063  157.9121  187.2728 LP  0  0  0  0  0  0  0  0  0  0  0  0  # atno 14854 bound_to 1433
  137.0748  157.2036  188.0635 LP  0  0  0  0  0  0  0  0  0  0  0  0  # atno 14855 bound_to 1433
  141.6485  119.6769  147.8255 LP  0  0  0  0  0  0  0  0  0  0  0  0  # atno 14860 bound_to 3104
  142.4228  120.8900  148.5971 LP  0  0  0  0  0  0  0  0  0  0  0  0  # atno 14861 bound_to 3104
  143.8913  135.0601  136.4539 LP  0  0  0  0  0  0  0  0  0  0  0  0  # atno 14880 bound_to 3618
  144.4283  133.5200  136.3747 LP  0  0  0  0  0  0  0  0  0  0  0  0  # atno 14881 bound_to 3618
  151.1177  137.9036  154.6969 LP  0  0  0  0  0  0  0  0  0  0  0  0  # atno 14898 bound_to 379 
  150.3602  136.9405  153.6175 LP  0  0  0  0  0  0  0  0  0  0  0  0  # atno 14899 bound_to 379 
  149.1950  128.9629  150.1939 LP  0  0  0  0  0  0  0  0  0  0  0  0  # atno 14902 bound_to 1482
  149.7637  129.5381  151.6124 LP  0  0  0  0  0  0  0  0  0  0  0  0  # atno 14903 bound_to 1482
  136.3877  116.5966  184.2784 LP  0  0  0  0  0  0  0  0  0  0  0  0  # atno 14912 bound_to 400 
  139.9373  115.2517  183.8337 LP  0  0  0  0  0  0  0  0  0  0  0  0  # atno 14913 bound_to 403 
  139.8451  116.8015  184.6016 LP  0  0  0  0  0  0  0  0  0  0  0  0  # atno 14914 bound_to 403 
  157.4418  131.9048  151.3861 LP  0  0  0  0  0  0  0  0  0  0  0  0  # atno 14925 bound_to 463 
  157.4420  130.7717  150.2102 LP  0  0  0  0  0  0  0  0  0  0  0  0  # atno 14926 bound_to 463 
  118.2133  142.4384  114.0764 LP  0  0  0  0  0  0  0  0  0  0  0  0  # atno 14927 bound_to 464 
  116.7925  143.5267  118.3568 LP  0  0  0  0  0  0  0  0  0  0  0  0  # atno 14928 bound_to 467 
  118.4148  143.4341  117.7572 LP  0  0  0  0  0  0  0  0  0  0  0  0  # atno 14929 bound_to 467 
  114.9724  145.6561  113.9296 LP  0  0  0  0  0  0  0  0  0  0  0  0  # atno 14930 bound_to 470 
  114.7282  144.1686  113.3017 LP  0  0  0  0  0  0  0  0  0  0  0  0  # atno 14931 bound_to 470 

> <Gold.Score>
     Fitness  S(hb_ext) S(vdw_ext)  S(hb_int)    S(int)      intcor
     28.38       2.00      19.32       0.00      -0.18      -0.76

> <Gold.Goldscore.Fitness>
28.3832

> <Gold.Goldscore.Internal.Vdw>
-0.4138

> <Gold.Goldscore.Internal.Torsion>
-0.5249

> <Gold.Goldscore.External.Vdw>
19.3188

> <Gold.Goldscore.Internal.HBond>
0.0000

> <Gold.Goldscore.External.HBond>
2.0000

> <Gold.Goldscore.Internal.Correction>
-0.7585

> <Gold.Goldscore.Hbonds>
donor molecule, donor type, donor heavy atom, donor atom, acceptor molecule, acceptor atom, score
      L1  H    10    23       P1  1425  1.00

> <Gold.Goldscore.Internal.Vdw.Weighted>
-0.4138

> <Gold.Goldscore.Internal.Torsion.Weighted>
-0.5249

> <Gold.Goldscore.External.Vdw.Weighted>
26.5633

> <Gold.Goldscore.Internal.HBond.Weighted>
0.0000

> <Gold.Goldscore.External.HBond.Weighted>
2.0000

> <Gold.Goldscore.Internal.Correction.Weighted>
-0.7585

> <Gold.Rescore>
     Score     S(PLP)   S(hbond)     S(cho)   S(metal)  DE(clash)   DE(tors)     intcor
     16.98     -15.54       0.83       0.00       0.00       0.00       0.52       ----

> <Gold.PLP.Fitness>
16.9787

> <Gold.PLP.PLP>
-15.5385

> <Gold.PLP.part.hbond>
-1.6853

> <Gold.PLP.part.metal>
0.0000

> <Gold.PLP.part.buried>
0.3771

> <Gold.PLP.part.nonpolar>
-19.6726

> <Gold.PLP.part.repulsive>
5.6324

> <Gold.PLP.ligand.clash>
0.0000

> <Gold.PLP.ligand.torsion>
0.5230

> <Gold.PLP.Chemscore.Hbond>
0.8288

> <Gold.PLP.Chemscore.CHOScore>
0.0000

> <Gold.PLP.Chemscore.Metal>
0.0000

> <Gold.Chemscore.Hbonds>
donor molecule, donor type, donor heavy atom, donor atom, acceptor molecule, acceptor atom, score
      L1  H    10    23       P1  1425  1.00

> <Gold.PLP.Chemscore.Internal.Correction>
   9.000000E+99

