#       Name:                CT1002167954
#       Creating user name   hitesit
#       Creation time:       Sun Apr 16 23:02:52 2023


#       File generated by GOLD software.
#

@<TRIPOS>MOLECULE
CT1002167954|ligand_prepared|mol2|1|dock1
    29    30     1
SMALL
NO_CHARGES


@<TRIPOS>ATOM
      1 C1         144.8304 147.9268 170.3425 C.3            1 RES1               0.0000
      2 C2         144.2479 146.8347 169.4223 C.ar           1 RES1               0.0000
      3 C3         146.0851 147.3307 170.9738 C.2            1 RES1               0.0000
      4 C4         145.0959 149.1367 169.4535 C.2            1 RES1               0.0000
      5 C5         143.8725 148.3664 171.4742 C.3            1 RES1               0.0000
      6 C6         144.9752 146.3637 168.3332 C.ar           1 RES1               0.0000
      7 C7         142.9881 146.2876 169.6508 C.ar           1 RES1               0.0000
      8 N8         147.2924 147.7761 170.5220 N.am           1 RES1               0.0000
      9 O9         146.0167 146.4547 171.8271 O.2            1 RES1               0.0000
     10 N10        146.3969 149.5260 169.2708 N.am           1 RES1               0.0000
     11 O11        144.1913 149.7463 168.8963 O.2            1 RES1               0.0000
     12 C12        144.4283 149.4776 172.3508 C.3            1 RES1               0.0000
     13 C13        144.4630 145.3794 167.5044 C.ar           1 RES1               0.0000
     14 C14        142.4776 145.3035 168.8205 C.ar           1 RES1               0.0000
     15 C15        147.5093 148.8820 169.7399 C.2            1 RES1               0.0000
     16 C16        143.2142 144.8483 167.7476 C.ar           1 RES1               0.0000
     17 O17        148.6489 149.2624 169.4878 O.2            1 RES1               0.0000
     18 H18        142.9305 148.7071 171.0270 H              1 RES1               0.0000
     19 H19        143.6490 147.4973 172.1052 H              1 RES1               0.0000
     20 H20        145.9587 146.7714 168.1247 H              1 RES1               0.0000
     21 H21        142.3904 146.6311 170.4882 H              1 RES1               0.0000
     22 H22        148.1094 147.2369 170.7903 H              1 RES1               0.0000
     23 H23        146.5504 150.3747 168.7355 H              1 RES1               0.0000
     24 H24        143.7169 149.7480 173.1283 H              1 RES1               0.0000
     25 H25        145.3526 149.1640 172.8314 H              1 RES1               0.0000
     26 H26        144.6384 150.3666 171.7597 H              1 RES1               0.0000
     27 H27        145.0461 145.0256 166.6605 H              1 RES1               0.0000
     28 H28        141.4941 144.8888 169.0153 H              1 RES1               0.0000
     29 H29        142.8133 144.0770 167.0984 H              1 RES1               0.0000
@<TRIPOS>BOND
    1    1    2 1     
    2    1    3 1     
    3    1    4 1     
    4    1    5 1     
    5    2    6 ar    
    6    2    7 ar    
    7    3    8 1     
    8    3    9 2     
    9    4   10 1     
   10    4   11 2     
   11    5   12 1     
   12    5   18 1     
   13    5   19 1     
   14    6   13 ar    
   15    6   20 1     
   16    7   14 ar    
   17    7   21 1     
   18    8   15 1     
   19    8   22 1     
   20   10   15 1     
   21   10   23 1     
   22   12   24 1     
   23   12   25 1     
   24   12   26 1     
   25   13   16 ar    
   26   13   27 1     
   27   14   16 ar    
   28   14   28 1     
   29   15   17 2     
   30   16   29 1     
@<TRIPOS>SUBSTRUCTURE
      1 RES1           1
@<TRIPOS>SET
DONOR_HYDROGENS      STATIC     ATOMS    <user>   **** ""
2 22 23
ATOM$RED        STATIC     ATOMS    COLORGROUP SYSTEM
2 22 23
@<TRIPOS>COMMENT
> <Gold.Version>
2022.3.0

> <Gold.Id.Protein>
unknown|7rmh_cavity_clean|pdb

> <Gold.Protein.RotatedTorsions>
[ 2038 2027 2028 2029 ] final  -68.56 input  103.58 | X-H torsion
[ 4286 4281 4282 4283 ] final  -19.33 input  108.09 | X-H torsion
[  535  513  514  515 ] final -108.54 input  105.58 | X-H torsion
[ 2069 2062 2060 2057 ] final  145.23 input   60.00 | X-H torsion
[ 4334 4326 4327 4328 ] final  153.49 input   45.76 | X-H torsion
[ 5109 5102 5100 5097 ] final   45.67 input   60.01 | X-H torsion
[ 2099 2094 2093 2090 ] final  172.84 input   60.02 | X-H torsion
[ 4376 4367 4366 4364 ] final -118.63 input   59.97 | X-H torsion
[ 1144 1124 1125 1126 ] final  -51.35 input   64.50 | X-H torsion
[  249  231  232  233 ] final   15.54 input  105.30 | X-H torsion
[ 3038 3033 3034 3035 ] final  169.05 input   60.01 | X-H torsion
[  280  266  267  268 ] final -143.22 input  114.84 | X-H torsion
[ 4687 4679 4680 4681 ] final   -5.99 input   46.48 | X-H torsion
[ 3081 3072 3071 3069 ] final  132.15 input   59.99 | X-H torsion
[  336  328  327  326 ] final  -99.89 input   59.97 | X-H torsion
[ 1444 1430 1431 1432 ] final  -30.52 input   54.63 | X-H torsion
[ 3113 3104 3103 3101 ] final  134.77 input   60.00 | X-H torsion
[ 3627 3618 3617 3615 ] final   55.32 input   60.02 | X-H torsion
[  387  379  378  376 ] final   32.27 input   59.98 | X-H torsion
[ 1488 1482 1480 1477 ] final   93.45 input   59.97 | X-H torsion
[  421  400  401  402 ] final  -60.40 input   82.00 | X-H torsion
[  472  463  461  458 ] final  147.25 input   59.98 | X-H torsion
[  478  464  465  466 ] final   46.34 input  115.28 | X-H torsion
[  484  470  468  465 ] final   -4.76 input   59.99 | X-H torsion
[ 14714 2030 2029 2028 ] final  -82.53 input    0.00 | X-H torsion
[ 14723 4284 4283 4282 ] final  -75.95 input    0.00 | X-H torsion
[ 14732  516  515  514 ] final    2.83 input    0.00 | X-H torsion
[ 14755 4329 4328 4327 ] final  164.60 input    0.00 | X-H torsion
[ 14795 1127 1126 1125 ] final -171.48 input   -0.00 | X-H torsion
[ 14802  234  233  232 ] final   27.38 input   -0.00 | X-H torsion
[ 14817  269  268  267 ] final  105.97 input    0.00 | X-H torsion
[ 14824 4682 4681 4680 ] final -113.58 input   -0.00 | X-H torsion
[ 14854 1433 1432 1431 ] final  -45.91 input   -0.00 | X-H torsion
[ 14913  403  402  401 ] final  139.05 input   -0.00 | X-H torsion
[ 14928  467  466  465 ] final -118.07 input    0.00 | X-H torsion

> <Gold.Protein.ActiveResidues>
 GLU27   LEU30   GLN31   ASP33   LYS34   GLN35   VAL36   TYR37   ARG38   THR40  
 HIS41   ARG42   ILE207  GLU209  HIS220  PHE222  CYS237  PHE238  ASN239  ASP240 
 VAL241  THR242  ARG280  TRP281  ARG283  THR284  ILE285  SER286  ARG356  HIS357 
 TYR358  TYR360  ASP381  ILE382  ILE383  GLN384  ARG385  MET386  HIS387  LEU388 
 ARG389  GLN390  TYR391  GLU392  LEU393  LEU394  ALA56   LYS57   ILE58   TYR59  
 ALA60   MET61   LEU79   ILE80   ILE81   TRP82   ILE93   VAL100  MET101  THR102 
 CYS103  CYS121  ASP312  ASN313  TRP332  ASP333  SER334  PHE335 

> <Gold.Protein.RotatedAtoms>
  121.4979  155.5027  186.0707 H   0  0  0  0  0  0  0  0  0  0  0  0  # atno 249  bound_to 231 
  110.1621  139.6981  102.1321 H   0  0  0  0  0  0  0  0  0  0  0  0  # atno 280  bound_to 266 
  148.8142  144.5246  145.6628 H   0  0  0  0  0  0  0  0  0  0  0  0  # atno 336  bound_to 328 
  149.8443  143.4341  146.3666 H   0  0  0  0  0  0  0  0  0  0  0  0  # atno 337  bound_to 328 
  149.6802  144.9524  147.0087 H   0  0  0  0  0  0  0  0  0  0  0  0  # atno 338  bound_to 328 
  151.0816  138.0163  154.6927 H   0  0  0  0  0  0  0  0  0  0  0  0  # atno 387  bound_to 379 
  136.9976  116.7681  184.1172 H   0  0  0  0  0  0  0  0  0  0  0  0  # atno 421  bound_to 400 
  157.8793  131.5290  150.8916 H   0  0  0  0  0  0  0  0  0  0  0  0  # atno 472  bound_to 463 
  116.9432  141.9240  113.9965 H   0  0  0  0  0  0  0  0  0  0  0  0  # atno 478  bound_to 464 
  116.2237  144.7191  113.3789 H   0  0  0  0  0  0  0  0  0  0  0  0  # atno 484  bound_to 470 
  121.5822  163.0514  166.5273 H   0  0  0  0  0  0  0  0  0  0  0  0  # atno 535  bound_to 513 
  138.1511  144.8352  190.0207 H   0  0  0  0  0  0  0  0  0  0  0  0  # atno 1144 bound_to 1124
  139.2671  159.4236  184.9224 H   0  0  0  0  0  0  0  0  0  0  0  0  # atno 1444 bound_to 1430
  149.7304  129.5602  151.6360 H   0  0  0  0  0  0  0  0  0  0  0  0  # atno 1488 bound_to 1482
  132.4400  162.7467  176.1282 H   0  0  0  0  0  0  0  0  0  0  0  0  # atno 2038 bound_to 2027
  137.5463  130.6123  152.6938 H   0  0  0  0  0  0  0  0  0  0  0  0  # atno 2069 bound_to 2062
  143.0199  123.2381  151.8857 H   0  0  0  0  0  0  0  0  0  0  0  0  # atno 2099 bound_to 2094
  132.8693  125.0532  150.8379 H   0  0  0  0  0  0  0  0  0  0  0  0  # atno 3038 bound_to 3033
  134.1699  124.6218  149.9046 H   0  0  0  0  0  0  0  0  0  0  0  0  # atno 3039 bound_to 3033
  134.8773  119.0939  146.6624 H   0  0  0  0  0  0  0  0  0  0  0  0  # atno 3081 bound_to 3072
  142.2202  120.0412  147.8059 H   0  0  0  0  0  0  0  0  0  0  0  0  # atno 3113 bound_to 3104
  144.4457  133.4310  137.1963 H   0  0  0  0  0  0  0  0  0  0  0  0  # atno 3627 bound_to 3618
  120.9473  119.6329  173.0860 H   0  0  0  0  0  0  0  0  0  0  0  0  # atno 4286 bound_to 4281
  123.5348  116.7066  172.4474 H   0  0  0  0  0  0  0  0  0  0  0  0  # atno 4334 bound_to 4326
  144.4732  140.2370  167.1576 H   0  0  0  0  0  0  0  0  0  0  0  0  # atno 4376 bound_to 4367
  122.9502  122.3631  186.9926 H   0  0  0  0  0  0  0  0  0  0  0  0  # atno 4687 bound_to 4679
  150.3245  148.1200  170.5410 H   0  0  0  0  0  0  0  0  0  0  0  0  # atno 5109 bound_to 5102
  132.5204  164.1278  175.0598 LP  0  0  0  0  0  0  0  0  0  0  0  0  # atno 14713 bound_to 2027
  129.2395  160.6581  175.3220 LP  0  0  0  0  0  0  0  0  0  0  0  0  # atno 14714 bound_to 2030
  128.4850  161.4426  173.9747 LP  0  0  0  0  0  0  0  0  0  0  0  0  # atno 14715 bound_to 2030
  119.5874  120.6211  172.6128 LP  0  0  0  0  0  0  0  0  0  0  0  0  # atno 14722 bound_to 4281
  120.8302  116.2286  171.2394 LP  0  0  0  0  0  0  0  0  0  0  0  0  # atno 14723 bound_to 4284
  121.1800  116.7378  169.6213 LP  0  0  0  0  0  0  0  0  0  0  0  0  # atno 14724 bound_to 4284
  121.4013  164.3176  165.3366 LP  0  0  0  0  0  0  0  0  0  0  0  0  # atno 14731 bound_to 513 
  123.1817  164.8783  164.1205 LP  0  0  0  0  0  0  0  0  0  0  0  0  # atno 14732 bound_to 516 
  124.8270  164.5055  163.7279 LP  0  0  0  0  0  0  0  0  0  0  0  0  # atno 14733 bound_to 516 
  138.0983  129.0936  152.8826 LP  0  0  0  0  0  0  0  0  0  0  0  0  # atno 14736 bound_to 2062
  139.0885  130.3644  153.1490 LP  0  0  0  0  0  0  0  0  0  0  0  0  # atno 14737 bound_to 2062
  125.0210  116.3858  171.5752 LP  0  0  0  0  0  0  0  0  0  0  0  0  # atno 14754 bound_to 4326
  126.6235  113.4094  172.0616 LP  0  0  0  0  0  0  0  0  0  0  0  0  # atno 14755 bound_to 4329
  124.9318  113.6923  172.3027 LP  0  0  0  0  0  0  0  0  0  0  0  0  # atno 14756 bound_to 4329
  151.9359  148.0999  170.7662 LP  0  0  0  0  0  0  0  0  0  0  0  0  # atno 14759 bound_to 5102
  150.9386  147.5383  171.9310 LP  0  0  0  0  0  0  0  0  0  0  0  0  # atno 14760 bound_to 5102
  143.8397  123.4983  153.2671 LP  0  0  0  0  0  0  0  0  0  0  0  0  # atno 14769 bound_to 2094
  142.8510  124.6532  152.6711 LP  0  0  0  0  0  0  0  0  0  0  0  0  # atno 14770 bound_to 2094
  145.8700  139.4018  167.1488 LP  0  0  0  0  0  0  0  0  0  0  0  0  # atno 14775 bound_to 4367
  144.7950  139.2133  165.9341 LP  0  0  0  0  0  0  0  0  0  0  0  0  # atno 14776 bound_to 4367
  138.5122  146.4169  189.3587 LP  0  0  0  0  0  0  0  0  0  0  0  0  # atno 14794 bound_to 1124
  136.5760  143.3528  186.7849 LP  0  0  0  0  0  0  0  0  0  0  0  0  # atno 14795 bound_to 1127
  137.7820  144.5014  187.2609 LP  0  0  0  0  0  0  0  0  0  0  0  0  # atno 14796 bound_to 1127
  122.6911  155.8919  187.2853 LP  0  0  0  0  0  0  0  0  0  0  0  0  # atno 14801 bound_to 231 
  122.2673  159.4047  184.2634 LP  0  0  0  0  0  0  0  0  0  0  0  0  # atno 14802 bound_to 234 
  120.6341  159.0438  183.8134 LP  0  0  0  0  0  0  0  0  0  0  0  0  # atno 14803 bound_to 234 
  133.9634  123.9576  151.3955 LP  0  0  0  0  0  0  0  0  0  0  0  0  # atno 14808 bound_to 3033
  110.6962  141.3593  102.0550 LP  0  0  0  0  0  0  0  0  0  0  0  0  # atno 14816 bound_to 266 
  114.7090  140.6793  104.2205 LP  0  0  0  0  0  0  0  0  0  0  0  0  # atno 14817 bound_to 269 
  113.3251  140.2062  105.1484 LP  0  0  0  0  0  0  0  0  0  0  0  0  # atno 14818 bound_to 269 
  123.1157  123.5049  185.6766 LP  0  0  0  0  0  0  0  0  0  0  0  0  # atno 14823 bound_to 4679
  125.4330  119.6663  186.9840 LP  0  0  0  0  0  0  0  0  0  0  0  0  # atno 14824 bound_to 4682
  124.3800  120.7785  187.7927 LP  0  0  0  0  0  0  0  0  0  0  0  0  # atno 14825 bound_to 4682
  134.0824  120.2456  147.4937 LP  0  0  0  0  0  0  0  0  0  0  0  0  # atno 14843 bound_to 3072
  133.8676  118.6703  147.8666 LP  0  0  0  0  0  0  0  0  0  0  0  0  # atno 14844 bound_to 3072
  139.3843  160.9273  185.8093 LP  0  0  0  0  0  0  0  0  0  0  0  0  # atno 14853 bound_to 1430
  137.0599  157.4821  188.2124 LP  0  0  0  0  0  0  0  0  0  0  0  0  # atno 14854 bound_to 1433
  135.7212  157.6335  187.1238 LP  0  0  0  0  0  0  0  0  0  0  0  0  # atno 14855 bound_to 1433
  141.9627  121.0154  149.0830 LP  0  0  0  0  0  0  0  0  0  0  0  0  # atno 14860 bound_to 3104
  140.8494  119.8946  148.6696 LP  0  0  0  0  0  0  0  0  0  0  0  0  # atno 14861 bound_to 3104
  143.9193  134.9404  137.4983 LP  0  0  0  0  0  0  0  0  0  0  0  0  # atno 14880 bound_to 3618
  144.1158  134.4337  135.9584 LP  0  0  0  0  0  0  0  0  0  0  0  0  # atno 14881 bound_to 3618
  150.4445  136.9023  153.6916 LP  0  0  0  0  0  0  0  0  0  0  0  0  # atno 14898 bound_to 379 
  149.9158  138.4466  153.6417 LP  0  0  0  0  0  0  0  0  0  0  0  0  # atno 14899 bound_to 379 
  148.2076  129.8263  151.1265 LP  0  0  0  0  0  0  0  0  0  0  0  0  # atno 14902 bound_to 1482
  149.2383  128.9549  150.2074 LP  0  0  0  0  0  0  0  0  0  0  0  0  # atno 14903 bound_to 1482
  136.4910  115.2323  183.4507 LP  0  0  0  0  0  0  0  0  0  0  0  0  # atno 14912 bound_to 400 
  140.3218  116.5104  184.7925 LP  0  0  0  0  0  0  0  0  0  0  0  0  # atno 14913 bound_to 403 
  139.4605  115.5428  183.6428 LP  0  0  0  0  0  0  0  0  0  0  0  0  # atno 14914 bound_to 403 
  156.6936  130.6292  150.2339 LP  0  0  0  0  0  0  0  0  0  0  0  0  # atno 14925 bound_to 463 
  156.3496  131.6968  151.4207 LP  0  0  0  0  0  0  0  0  0  0  0  0  # atno 14926 bound_to 463 
  117.9310  143.2620  113.4558 LP  0  0  0  0  0  0  0  0  0  0  0  0  # atno 14927 bound_to 464 
  118.2685  142.9256  118.0574 LP  0  0  0  0  0  0  0  0  0  0  0  0  # atno 14928 bound_to 467 
  116.9387  144.0353  118.0565 LP  0  0  0  0  0  0  0  0  0  0  0  0  # atno 14929 bound_to 467 
  115.0308  145.6775  113.9325 LP  0  0  0  0  0  0  0  0  0  0  0  0  # atno 14930 bound_to 470 
  114.6812  144.2036  113.3224 LP  0  0  0  0  0  0  0  0  0  0  0  0  # atno 14931 bound_to 470 

> <Gold.Score>
     Fitness  S(hb_ext) S(vdw_ext)  S(hb_int)    S(int)      intcor
     32.12       4.71      19.96       0.00      -0.03      -0.77

> <Gold.Goldscore.Fitness>
32.1167

> <Gold.Goldscore.Internal.Vdw>
-0.4239

> <Gold.Goldscore.Internal.Torsion>
-0.3732

> <Gold.Goldscore.External.Vdw>
19.9552

> <Gold.Goldscore.Internal.HBond>
0.0000

> <Gold.Goldscore.External.HBond>
4.7100

> <Gold.Goldscore.Internal.Correction>
-0.7653

> <Gold.Goldscore.Hbonds>
donor molecule, donor type, donor heavy atom, donor atom, acceptor molecule, acceptor atom, score
      P1  H  5110  5116       L1    17  0.79
      P1  H  5102  5109       L1    17  1.00
      L1  H    10    23       P1  4390  0.57

> <Gold.Goldscore.Internal.Vdw.Weighted>
-0.4239

> <Gold.Goldscore.Internal.Torsion.Weighted>
-0.3732

> <Gold.Goldscore.External.Vdw.Weighted>
27.4384

> <Gold.Goldscore.Internal.HBond.Weighted>
0.0000

> <Gold.Goldscore.External.HBond.Weighted>
4.7100

> <Gold.Goldscore.Internal.Correction.Weighted>
-0.7653

> <Gold.Rescore>
     Score     S(PLP)   S(hbond)     S(cho)   S(metal)  DE(clash)   DE(tors)     intcor
     28.09     -22.36       1.93       0.00       0.00       0.00       0.03       ----

> <Gold.PLP.Fitness>
28.0900

> <Gold.PLP.PLP>
-22.3640

> <Gold.PLP.part.hbond>
-1.9192

> <Gold.PLP.part.metal>
0.0000

> <Gold.PLP.part.buried>
-5.7527

> <Gold.PLP.part.nonpolar>
-16.7534

> <Gold.PLP.part.repulsive>
0.7993

> <Gold.PLP.ligand.clash>
0.0000

> <Gold.PLP.ligand.torsion>
0.0264

> <Gold.PLP.Chemscore.Hbond>
1.9263

> <Gold.PLP.Chemscore.CHOScore>
0.0000

> <Gold.PLP.Chemscore.Metal>
0.0000

> <Gold.Chemscore.Hbonds>
donor molecule, donor type, donor heavy atom, donor atom, acceptor molecule, acceptor atom, score
      P1  H  5110  5116       L1    17  0.50
      P1  H  5102  5109       L1    17  0.54

> <Gold.PLP.Chemscore.Internal.Correction>
   9.000000E+99

