#       Name:                CT1002167954
#       Creating user name   hitesit
#       Creation time:       Sun Apr 16 23:03:05 2023


#       File generated by GOLD software.
#

@<TRIPOS>MOLECULE
CT1002167954|ligand_prepared|mol2|1|dock2
    29    30     1
SMALL
NO_CHARGES


@<TRIPOS>ATOM
      1 C1         144.4800 132.2589 150.6331 C.3            1 RES1               0.0000
      2 C2         144.0849 130.7853 150.8591 C.ar           1 RES1               0.0000
      3 C3         145.0919 132.7443 151.9439 C.2            1 RES1               0.0000
      4 C4         145.4476 132.2652 149.4548 C.2            1 RES1               0.0000
      5 C5         143.2881 133.1779 150.2774 C.3            1 RES1               0.0000
      6 C6         142.8989 130.4616 151.5114 C.ar           1 RES1               0.0000
      7 C7         144.8933 129.7404 150.4193 C.ar           1 RES1               0.0000
      8 N8         146.4446 132.9130 151.9854 N.am           1 RES1               0.0000
      9 O9         144.4027 132.9380 152.9377 O.2            1 RES1               0.0000
     10 N10        146.7437 132.6425 149.6904 N.am           1 RES1               0.0000
     11 O11        145.1034 131.9310 148.3278 O.2            1 RES1               0.0000
     12 C12        143.7021 134.5476 149.7631 C.3            1 RES1               0.0000
     13 C13        142.5329 129.1413 151.7142 C.ar           1 RES1               0.0000
     14 C14        144.5254 128.4207 150.6234 C.ar           1 RES1               0.0000
     15 C15        147.2936 132.9371 150.9082 C.2            1 RES1               0.0000
     16 C16        143.3455 128.1201 151.2700 C.ar           1 RES1               0.0000
     17 O17        148.4812 133.2150 151.0475 O.2            1 RES1               0.0000
     18 H18        142.6770 132.6833 149.5124 H              1 RES1               0.0000
     19 H19        142.6651 133.3097 151.1706 H              1 RES1               0.0000
     20 H20        142.2479 131.2519 151.8702 H              1 RES1               0.0000
     21 H21        145.8265 129.9532 149.9091 H              1 RES1               0.0000
     22 H22        146.8636 133.0322 152.9022 H              1 RES1               0.0000
     23 H23        147.3553 132.7101 148.8831 H              1 RES1               0.0000
     24 H24        142.8283 135.1519 149.5286 H              1 RES1               0.0000
     25 H25        144.2907 135.0779 150.5088 H              1 RES1               0.0000
     26 H26        144.3025 134.4553 148.8604 H              1 RES1               0.0000
     27 H27        141.6039 128.9100 152.2249 H              1 RES1               0.0000
     28 H28        145.1683 127.6202 150.2726 H              1 RES1               0.0000
     29 H29        143.0583 127.0859 151.4287 H              1 RES1               0.0000
@<TRIPOS>BOND
    1    1    2 1     
    2    1    3 1     
    3    1    4 1     
    4    1    5 1     
    5    2    6 ar    
    6    2    7 ar    
    7    3    8 1     
    8    3    9 2     
    9    4   10 1     
   10    4   11 2     
   11    5   12 1     
   12    5   18 1     
   13    5   19 1     
   14    6   13 ar    
   15    6   20 1     
   16    7   14 ar    
   17    7   21 1     
   18    8   15 1     
   19    8   22 1     
   20   10   15 1     
   21   10   23 1     
   22   12   24 1     
   23   12   25 1     
   24   12   26 1     
   25   13   16 ar    
   26   13   27 1     
   27   14   16 ar    
   28   14   28 1     
   29   15   17 2     
   30   16   29 1     
@<TRIPOS>SUBSTRUCTURE
      1 RES1           1
@<TRIPOS>SET
DONOR_HYDROGENS      STATIC     ATOMS    <user>   **** ""
2 22 23
ATOM$RED        STATIC     ATOMS    COLORGROUP SYSTEM
2 22 23
@<TRIPOS>COMMENT
> <Gold.Version>
2022.3.0

> <Gold.Id.Protein>
unknown|7rmh_cavity_clean|pdb

> <Gold.Protein.RotatedTorsions>
[ 2038 2027 2028 2029 ] final  140.97 input  103.58 | X-H torsion
[ 4286 4281 4282 4283 ] final  146.91 input  108.09 | X-H torsion
[  535  513  514  515 ] final  172.86 input  105.58 | X-H torsion
[ 2069 2062 2060 2057 ] final  -81.00 input   60.00 | X-H torsion
[ 4334 4326 4327 4328 ] final   89.03 input   45.76 | X-H torsion
[ 5109 5102 5100 5097 ] final -175.35 input   60.01 | X-H torsion
[ 2099 2094 2093 2090 ] final  -69.94 input   60.02 | X-H torsion
[ 4376 4367 4366 4364 ] final   21.89 input   59.97 | X-H torsion
[ 1144 1124 1125 1126 ] final -126.73 input   64.50 | X-H torsion
[  249  231  232  233 ] final   63.22 input  105.30 | X-H torsion
[ 3038 3033 3034 3035 ] final  152.30 input   60.01 | X-H torsion
[  280  266  267  268 ] final   60.64 input  114.84 | X-H torsion
[ 4687 4679 4680 4681 ] final   45.82 input   46.48 | X-H torsion
[ 3081 3072 3071 3069 ] final   38.52 input   59.99 | X-H torsion
[  336  328  327  326 ] final -109.58 input   59.97 | X-H torsion
[ 1444 1430 1431 1432 ] final   85.40 input   54.63 | X-H torsion
[ 3113 3104 3103 3101 ] final   30.07 input   60.00 | X-H torsion
[ 3627 3618 3617 3615 ] final  -66.92 input   60.02 | X-H torsion
[  387  379  378  376 ] final  -36.36 input   59.98 | X-H torsion
[ 1488 1482 1480 1477 ] final  -20.49 input   59.97 | X-H torsion
[  421  400  401  402 ] final -167.85 input   82.00 | X-H torsion
[  472  463  461  458 ] final  -71.70 input   59.98 | X-H torsion
[  478  464  465  466 ] final  109.85 input  115.28 | X-H torsion
[  484  470  468  465 ] final   32.14 input   59.99 | X-H torsion
[ 14714 2030 2029 2028 ] final -174.01 input    0.00 | X-H torsion
[ 14723 4284 4283 4282 ] final   59.51 input    0.00 | X-H torsion
[ 14732  516  515  514 ] final -175.07 input    0.00 | X-H torsion
[ 14755 4329 4328 4327 ] final   45.13 input    0.00 | X-H torsion
[ 14795 1127 1126 1125 ] final  149.62 input   -0.00 | X-H torsion
[ 14802  234  233  232 ] final  -75.54 input   -0.00 | X-H torsion
[ 14817  269  268  267 ] final   46.25 input    0.00 | X-H torsion
[ 14824 4682 4681 4680 ] final  144.19 input   -0.00 | X-H torsion
[ 14854 1433 1432 1431 ] final  -62.63 input   -0.00 | X-H torsion
[ 14913  403  402  401 ] final  134.58 input   -0.00 | X-H torsion
[ 14928  467  466  465 ] final   26.18 input    0.00 | X-H torsion

> <Gold.Protein.ActiveResidues>
 GLU27   LEU30   GLN31   ASP33   LYS34   GLN35   VAL36   TYR37   ARG38   THR40  
 HIS41   ARG42   ILE207  GLU209  HIS220  PHE222  CYS237  PHE238  ASN239  ASP240 
 VAL241  THR242  ARG280  TRP281  ARG283  THR284  ILE285  SER286  ARG356  HIS357 
 TYR358  TYR360  ASP381  ILE382  ILE383  GLN384  ARG385  MET386  HIS387  LEU388 
 ARG389  GLN390  TYR391  GLU392  LEU393  LEU394  ALA56   LYS57   ILE58   TYR59  
 ALA60   MET61   LEU79   ILE80   ILE81   TRP82   ILE93   VAL100  MET101  THR102 
 CYS103  CYS121  ASP312  ASN313  TRP332  ASP333  SER334  PHE335 

> <Gold.Protein.RotatedAtoms>
  122.1273  155.1836  185.9690 H   0  0  0  0  0  0  0  0  0  0  0  0  # atno 249  bound_to 231 
  110.7450  141.2667  101.7090 H   0  0  0  0  0  0  0  0  0  0  0  0  # atno 280  bound_to 266 
  148.8073  144.6689  145.7349 H   0  0  0  0  0  0  0  0  0  0  0  0  # atno 336  bound_to 328 
  149.7545  143.4049  146.2356 H   0  0  0  0  0  0  0  0  0  0  0  0  # atno 337  bound_to 328 
  149.7768  144.8373  147.0676 H   0  0  0  0  0  0  0  0  0  0  0  0  # atno 338  bound_to 328 
  150.9835  137.0472  154.2849 H   0  0  0  0  0  0  0  0  0  0  0  0  # atno 387  bound_to 379 
  135.9179  115.8308  184.0711 H   0  0  0  0  0  0  0  0  0  0  0  0  # atno 421  bound_to 400 
  156.1494  131.4834  151.2410 H   0  0  0  0  0  0  0  0  0  0  0  0  # atno 472  bound_to 463 
  116.6002  142.5983  113.4513 H   0  0  0  0  0  0  0  0  0  0  0  0  # atno 478  bound_to 464 
  115.9213  144.2412  113.2022 H   0  0  0  0  0  0  0  0  0  0  0  0  # atno 484  bound_to 470 
  120.7240  163.2607  165.8397 H   0  0  0  0  0  0  0  0  0  0  0  0  # atno 535  bound_to 513 
  138.0494  145.8050  190.5140 H   0  0  0  0  0  0  0  0  0  0  0  0  # atno 1144 bound_to 1124
  138.6403  160.7437  185.2848 H   0  0  0  0  0  0  0  0  0  0  0  0  # atno 1444 bound_to 1430
  148.2472  129.8567  151.2127 H   0  0  0  0  0  0  0  0  0  0  0  0  # atno 1488 bound_to 1482
  132.4107  164.3159  175.4491 H   0  0  0  0  0  0  0  0  0  0  0  0  # atno 2038 bound_to 2027
  139.1335  130.1446  153.1681 H   0  0  0  0  0  0  0  0  0  0  0  0  # atno 2069 bound_to 2062
  142.8293  124.6380  152.6334 H   0  0  0  0  0  0  0  0  0  0  0  0  # atno 2099 bound_to 2094
  132.8691  124.9188  151.0823 H   0  0  0  0  0  0  0  0  0  0  0  0  # atno 3038 bound_to 3033
  133.9664  124.8027  149.8449 H   0  0  0  0  0  0  0  0  0  0  0  0  # atno 3039 bound_to 3033
  134.3632  120.2532  147.1697 H   0  0  0  0  0  0  0  0  0  0  0  0  # atno 3081 bound_to 3072
  142.1593  121.0061  148.9285 H   0  0  0  0  0  0  0  0  0  0  0  0  # atno 3113 bound_to 3104
  143.9113  134.9567  137.4653 H   0  0  0  0  0  0  0  0  0  0  0  0  # atno 3627 bound_to 3618
  119.7205  120.7345  172.4966 H   0  0  0  0  0  0  0  0  0  0  0  0  # atno 4286 bound_to 4281
  123.7030  115.8710  172.0190 H   0  0  0  0  0  0  0  0  0  0  0  0  # atno 4334 bound_to 4326
  145.0949  139.0745  165.9877 H   0  0  0  0  0  0  0  0  0  0  0  0  # atno 4376 bound_to 4367
  123.6393  122.7176  186.9353 H   0  0  0  0  0  0  0  0  0  0  0  0  # atno 4687 bound_to 4679
  151.2479  147.5546  171.9204 H   0  0  0  0  0  0  0  0  0  0  0  0  # atno 5109 bound_to 5102
  132.5490  162.5952  175.7231 LP  0  0  0  0  0  0  0  0  0  0  0  0  # atno 14713 bound_to 2027
  129.1467  160.4394  174.1045 LP  0  0  0  0  0  0  0  0  0  0  0  0  # atno 14714 bound_to 2030
  128.5778  161.6614  175.1921 LP  0  0  0  0  0  0  0  0  0  0  0  0  # atno 14715 bound_to 2030
  120.7902  119.5411  173.1906 LP  0  0  0  0  0  0  0  0  0  0  0  0  # atno 14722 bound_to 4281
  120.5376  116.7568  169.7547 LP  0  0  0  0  0  0  0  0  0  0  0  0  # atno 14723 bound_to 4284
  121.4726  116.2095  171.1061 LP  0  0  0  0  0  0  0  0  0  0  0  0  # atno 14724 bound_to 4284
  122.2402  164.1129  166.0088 LP  0  0  0  0  0  0  0  0  0  0  0  0  # atno 14731 bound_to 513 
  124.8183  164.5020  163.6976 LP  0  0  0  0  0  0  0  0  0  0  0  0  # atno 14732 bound_to 516 
  123.1903  164.8818  164.1508 LP  0  0  0  0  0  0  0  0  0  0  0  0  # atno 14733 bound_to 516 
  137.6977  130.7744  152.7333 LP  0  0  0  0  0  0  0  0  0  0  0  0  # atno 14736 bound_to 2062
  137.8897  129.1550  152.8202 LP  0  0  0  0  0  0  0  0  0  0  0  0  # atno 14737 bound_to 2062
  124.8597  117.1876  171.9863 LP  0  0  0  0  0  0  0  0  0  0  0  0  # atno 14754 bound_to 4326
  125.3604  114.1052  171.6639 LP  0  0  0  0  0  0  0  0  0  0  0  0  # atno 14755 bound_to 4329
  126.1950  112.9965  172.7004 LP  0  0  0  0  0  0  0  0  0  0  0  0  # atno 14756 bound_to 4329
  150.1724  148.0075  170.7864 LP  0  0  0  0  0  0  0  0  0  0  0  0  # atno 14759 bound_to 5102
  151.7723  148.2001  170.5218 LP  0  0  0  0  0  0  0  0  0  0  0  0  # atno 14760 bound_to 5102
  143.0483  123.2036  151.8968 LP  0  0  0  0  0  0  0  0  0  0  0  0  # atno 14769 bound_to 2094
  143.8343  123.5384  153.2885 LP  0  0  0  0  0  0  0  0  0  0  0  0  # atno 14770 bound_to 2094
  144.2874  140.1624  166.8893 LP  0  0  0  0  0  0  0  0  0  0  0  0  # atno 14775 bound_to 4367
  145.7514  139.6235  167.3719 LP  0  0  0  0  0  0  0  0  0  0  0  0  # atno 14776 bound_to 4367
  138.6099  145.4854  188.8848 LP  0  0  0  0  0  0  0  0  0  0  0  0  # atno 14794 bound_to 1124
  136.9190  143.1169  187.1842 LP  0  0  0  0  0  0  0  0  0  0  0  0  # atno 14795 bound_to 1127
  137.4390  144.7373  186.8616 LP  0  0  0  0  0  0  0  0  0  0  0  0  # atno 14796 bound_to 1127
  122.0741  156.2048  187.3850 LP  0  0  0  0  0  0  0  0  0  0  0  0  # atno 14801 bound_to 231 
  121.0104  159.3787  184.7679 LP  0  0  0  0  0  0  0  0  0  0  0  0  # atno 14802 bound_to 234 
  121.8911  159.0697  183.3088 LP  0  0  0  0  0  0  0  0  0  0  0  0  # atno 14803 bound_to 234 
  134.1640  123.9118  151.2137 LP  0  0  0  0  0  0  0  0  0  0  0  0  # atno 14808 bound_to 3033
  110.1249  139.8219  102.4697 LP  0  0  0  0  0  0  0  0  0  0  0  0  # atno 14816 bound_to 266 
  114.3940  139.8800  104.1448 LP  0  0  0  0  0  0  0  0  0  0  0  0  # atno 14817 bound_to 269 
  113.6401  141.0055  105.2241 LP  0  0  0  0  0  0  0  0  0  0  0  0  # atno 14818 bound_to 269 
  122.4488  123.1619  185.7320 LP  0  0  0  0  0  0  0  0  0  0  0  0  # atno 14823 bound_to 4679
  124.3618  119.6913  187.8022 LP  0  0  0  0  0  0  0  0  0  0  0  0  # atno 14824 bound_to 4682
  125.4512  120.7535  186.9745 LP  0  0  0  0  0  0  0  0  0  0  0  0  # atno 14825 bound_to 4682
  133.7057  119.0354  148.0264 LP  0  0  0  0  0  0  0  0  0  0  0  0  # atno 14843 bound_to 3072
  134.7619  118.7136  146.8232 LP  0  0  0  0  0  0  0  0  0  0  0  0  # atno 14844 bound_to 3072
  139.9924  159.6467  185.4577 LP  0  0  0  0  0  0  0  0  0  0  0  0  # atno 14853 bound_to 1430
  137.0793  157.2581  188.0992 LP  0  0  0  0  0  0  0  0  0  0  0  0  # atno 14854 bound_to 1433
  135.7018  157.8576  187.2371 LP  0  0  0  0  0  0  0  0  0  0  0  0  # atno 14855 bound_to 1433
  140.8391  120.0580  148.8597 LP  0  0  0  0  0  0  0  0  0  0  0  0  # atno 14860 bound_to 3104
  142.0344  119.8796  147.7615 LP  0  0  0  0  0  0  0  0  0  0  0  0  # atno 14861 bound_to 3104
  144.1278  134.3993  135.9523 LP  0  0  0  0  0  0  0  0  0  0  0  0  # atno 14880 bound_to 3618
  144.4457  133.4377  137.2333 LP  0  0  0  0  0  0  0  0  0  0  0  0  # atno 14881 bound_to 3618
  149.8398  137.6966  153.3261 LP  0  0  0  0  0  0  0  0  0  0  0  0  # atno 14898 bound_to 379 
  150.6193  138.6279  154.4177 LP  0  0  0  0  0  0  0  0  0  0  0  0  # atno 14899 bound_to 379 
  149.1442  128.9737  150.1805 LP  0  0  0  0  0  0  0  0  0  0  0  0  # atno 14902 bound_to 1482
  149.7945  129.5091  151.5795 LP  0  0  0  0  0  0  0  0  0  0  0  0  # atno 14903 bound_to 1482
  137.5399  116.1429  183.4956 LP  0  0  0  0  0  0  0  0  0  0  0  0  # atno 14912 bound_to 400 
  140.2748  116.5579  184.7838 LP  0  0  0  0  0  0  0  0  0  0  0  0  # atno 14913 bound_to 403 
  139.5076  115.4953  183.6515 LP  0  0  0  0  0  0  0  0  0  0  0  0  # atno 14914 bound_to 403 
  157.7539  131.7339  151.1371 LP  0  0  0  0  0  0  0  0  0  0  0  0  # atno 14925 bound_to 463 
  157.0311  130.6381  150.1658 LP  0  0  0  0  0  0  0  0  0  0  0  0  # atno 14926 bound_to 463 
  118.2650  142.6054  113.9867 LP  0  0  0  0  0  0  0  0  0  0  0  0  # atno 14927 bound_to 464 
  117.3397  144.2608  117.7900 LP  0  0  0  0  0  0  0  0  0  0  0  0  # atno 14928 bound_to 467 
  117.8676  142.7000  118.3240 LP  0  0  0  0  0  0  0  0  0  0  0  0  # atno 14929 bound_to 467 
  115.6242  145.6937  113.8732 LP  0  0  0  0  0  0  0  0  0  0  0  0  # atno 14930 bound_to 470 
  114.3923  144.6687  113.5597 LP  0  0  0  0  0  0  0  0  0  0  0  0  # atno 14931 bound_to 470 

> <Gold.Score>
     Fitness  S(hb_ext) S(vdw_ext)  S(hb_int)    S(int)      intcor
     27.80       6.52      16.14       0.00      -0.91      -0.77

> <Gold.Goldscore.Fitness>
27.7983

> <Gold.Goldscore.Internal.Vdw>
-1.0689

> <Gold.Goldscore.Internal.Torsion>
-0.6065

> <Gold.Goldscore.External.Vdw>
16.1367

> <Gold.Goldscore.Internal.HBond>
0.0000

> <Gold.Goldscore.External.HBond>
6.5203

> <Gold.Goldscore.Internal.Correction>
-0.7653

> <Gold.Goldscore.Hbonds>
donor molecule, donor type, donor heavy atom, donor atom, acceptor molecule, acceptor atom, score
      P1  H   512   525       L1    17  1.00
      L1  H     8    22       P1  1453  0.26

> <Gold.Goldscore.Internal.Vdw.Weighted>
-1.0689

> <Gold.Goldscore.Internal.Torsion.Weighted>
-0.6065

> <Gold.Goldscore.External.Vdw.Weighted>
22.1880

> <Gold.Goldscore.Internal.HBond.Weighted>
0.0000

> <Gold.Goldscore.External.HBond.Weighted>
6.5203

> <Gold.Goldscore.Internal.Correction.Weighted>
-0.7653

> <Gold.Rescore>
     Score     S(PLP)   S(hbond)     S(cho)   S(metal)  DE(clash)   DE(tors)     intcor
     27.36     -23.05       2.00       0.00       0.00       0.51       0.59       ----

> <Gold.PLP.Fitness>
27.3604

> <Gold.PLP.PLP>
-23.0519

> <Gold.PLP.part.hbond>
-1.7670

> <Gold.PLP.part.metal>
0.0000

> <Gold.PLP.part.buried>
-3.3148

> <Gold.PLP.part.nonpolar>
-19.0085

> <Gold.PLP.part.repulsive>
0.5942

> <Gold.PLP.ligand.clash>
0.5112

> <Gold.PLP.ligand.torsion>
0.5902

> <Gold.PLP.Chemscore.Hbond>
2.0000

> <Gold.PLP.Chemscore.CHOScore>
0.0000

> <Gold.PLP.Chemscore.Metal>
0.0000

> <Gold.Chemscore.Hbonds>
donor molecule, donor type, donor heavy atom, donor atom, acceptor molecule, acceptor atom, score
      L1  H     8    22       P1  1453  0.15
      P1  H   512   525       L1    17  0.84

> <Gold.PLP.Chemscore.Internal.Correction>
   9.000000E+99

