#       Name:                CT1002167954
#       Creating user name   hitesit
#       Creation time:       Sun Apr 16 23:04:15 2023


#       File generated by GOLD software.
#

@<TRIPOS>MOLECULE
CT1002167954|ligand_prepared|mol2|1|dock8
    29    30     1
SMALL
NO_CHARGES


@<TRIPOS>ATOM
      1 C1         142.7478 130.0422 151.7668 C.3            1 RES1               0.0000
      2 C2         141.9733 128.8094 151.2576 C.ar           1 RES1               0.0000
      3 C3         143.9073 130.2503 150.7970 C.2            1 RES1               0.0000
      4 C4         141.7473 131.1923 151.7963 C.2            1 RES1               0.0000
      5 C5         143.3238 129.8733 153.1921 C.3            1 RES1               0.0000
      6 C6         142.1813 127.5569 151.8272 C.ar           1 RES1               0.0000
      7 C7         141.0473 128.9094 150.2226 C.ar           1 RES1               0.0000
      8 N8         143.8205 131.2936 149.9230 N.am           1 RES1               0.0000
      9 O9         144.8650 129.4871 150.7729 O.2            1 RES1               0.0000
     10 N10        141.9503 132.2420 150.9393 N.am           1 RES1               0.0000
     11 O11        140.7758 131.1912 152.5423 O.2            1 RES1               0.0000
     12 C12        143.7672 131.1790 153.8329 C.3            1 RES1               0.0000
     13 C13        141.4867 126.4450 151.3805 C.ar           1 RES1               0.0000
     14 C14        140.3539 127.7962 149.7772 C.ar           1 RES1               0.0000
     15 C15        142.9244 132.3305 149.9824 C.2            1 RES1               0.0000
     16 C16        140.5723 126.5639 150.3556 C.ar           1 RES1               0.0000
     17 O17        143.0095 133.2825 149.2120 O.2            1 RES1               0.0000
     18 H18        142.5605 129.4089 153.8286 H              1 RES1               0.0000
     19 H19        144.1827 129.1924 153.1474 H              1 RES1               0.0000
     20 H20        142.8988 127.4434 152.6332 H              1 RES1               0.0000
     21 H21        140.8601 129.8686 149.7520 H              1 RES1               0.0000
     22 H22        144.4830 131.3037 149.1541 H              1 RES1               0.0000
     23 H23        141.3166 133.0306 151.0223 H              1 RES1               0.0000
     24 H24        144.1630 131.0039 154.8310 H              1 RES1               0.0000
     25 H25        144.5442 131.6558 153.2390 H              1 RES1               0.0000
     26 H26        142.9317 131.8710 153.9162 H              1 RES1               0.0000
     27 H27        141.6632 125.4772 151.8381 H              1 RES1               0.0000
     28 H28        139.6357 127.8943 148.9699 H              1 RES1               0.0000
     29 H29        140.0280 125.6928 150.0061 H              1 RES1               0.0000
@<TRIPOS>BOND
    1    1    2 1     
    2    1    3 1     
    3    1    4 1     
    4    1    5 1     
    5    2    6 ar    
    6    2    7 ar    
    7    3    8 1     
    8    3    9 2     
    9    4   10 1     
   10    4   11 2     
   11    5   12 1     
   12    5   18 1     
   13    5   19 1     
   14    6   13 ar    
   15    6   20 1     
   16    7   14 ar    
   17    7   21 1     
   18    8   15 1     
   19    8   22 1     
   20   10   15 1     
   21   10   23 1     
   22   12   24 1     
   23   12   25 1     
   24   12   26 1     
   25   13   16 ar    
   26   13   27 1     
   27   14   16 ar    
   28   14   28 1     
   29   15   17 2     
   30   16   29 1     
@<TRIPOS>SUBSTRUCTURE
      1 RES1           1
@<TRIPOS>SET
DONOR_HYDROGENS      STATIC     ATOMS    <user>   **** ""
2 22 23
ATOM$RED        STATIC     ATOMS    COLORGROUP SYSTEM
2 22 23
@<TRIPOS>COMMENT
> <Gold.Version>
2022.3.0

> <Gold.Id.Protein>
unknown|7rmh_cavity_clean|pdb

> <Gold.Protein.RotatedTorsions>
[ 2038 2027 2028 2029 ] final  136.85 input  103.58 | X-H torsion
[ 4286 4281 4282 4283 ] final  140.26 input  108.09 | X-H torsion
[  535  513  514  515 ] final  -85.95 input  105.58 | X-H torsion
[ 2069 2062 2060 2057 ] final -108.07 input   60.00 | X-H torsion
[ 4334 4326 4327 4328 ] final  128.90 input   45.76 | X-H torsion
[ 5109 5102 5100 5097 ] final -140.71 input   60.01 | X-H torsion
[ 2099 2094 2093 2090 ] final  -26.42 input   60.02 | X-H torsion
[ 4376 4367 4366 4364 ] final   89.67 input   59.97 | X-H torsion
[ 1144 1124 1125 1126 ] final   63.31 input   64.50 | X-H torsion
[  249  231  232  233 ] final -141.74 input  105.30 | X-H torsion
[ 3038 3033 3034 3035 ] final   75.58 input   60.01 | X-H torsion
[  280  266  267  268 ] final  127.76 input  114.84 | X-H torsion
[ 4687 4679 4680 4681 ] final   92.72 input   46.48 | X-H torsion
[ 3081 3072 3071 3069 ] final -111.60 input   59.99 | X-H torsion
[  336  328  327  326 ] final -153.92 input   59.97 | X-H torsion
[ 1444 1430 1431 1432 ] final    0.87 input   54.63 | X-H torsion
[ 3113 3104 3103 3101 ] final    6.39 input   60.00 | X-H torsion
[ 3627 3618 3617 3615 ] final  151.11 input   60.02 | X-H torsion
[  387  379  378  376 ] final  -29.05 input   59.98 | X-H torsion
[ 1488 1482 1480 1477 ] final  -33.52 input   59.97 | X-H torsion
[  421  400  401  402 ] final  -18.55 input   82.00 | X-H torsion
[  472  463  461  458 ] final  -47.38 input   59.98 | X-H torsion
[  478  464  465  466 ] final  149.80 input  115.28 | X-H torsion
[  484  470  468  465 ] final -126.59 input   59.99 | X-H torsion
[ 14714 2030 2029 2028 ] final  157.02 input    0.00 | X-H torsion
[ 14723 4284 4283 4282 ] final   84.50 input    0.00 | X-H torsion
[ 14732  516  515  514 ] final  117.04 input    0.00 | X-H torsion
[ 14755 4329 4328 4327 ] final   77.79 input    0.00 | X-H torsion
[ 14795 1127 1126 1125 ] final    5.00 input   -0.00 | X-H torsion
[ 14802  234  233  232 ] final   58.08 input   -0.00 | X-H torsion
[ 14817  269  268  267 ] final  167.73 input    0.00 | X-H torsion
[ 14824 4682 4681 4680 ] final   98.92 input   -0.00 | X-H torsion
[ 14854 1433 1432 1431 ] final  -71.16 input   -0.00 | X-H torsion
[ 14913  403  402  401 ] final  137.77 input   -0.00 | X-H torsion
[ 14928  467  466  465 ] final -127.68 input    0.00 | X-H torsion

> <Gold.Protein.ActiveResidues>
 GLU27   LEU30   GLN31   ASP33   LYS34   GLN35   VAL36   TYR37   ARG38   THR40  
 HIS41   ARG42   ILE207  GLU209  HIS220  PHE222  CYS237  PHE238  ASN239  ASP240 
 VAL241  THR242  ARG280  TRP281  ARG283  THR284  ILE285  SER286  ARG356  HIS357 
 TYR358  TYR360  ASP381  ILE382  ILE383  GLN384  ARG385  MET386  HIS387  LEU388 
 ARG389  GLN390  TYR391  GLU392  LEU393  LEU394  ALA56   LYS57   ILE58   TYR59  
 ALA60   MET61   LEU79   ILE80   ILE81   TRP82   ILE93   VAL100  MET101  THR102 
 CYS103  CYS121  ASP312  ASN313  TRP332  ASP333  SER334  PHE335 

> <Gold.Protein.RotatedAtoms>
  122.4304  156.0809  187.4076 H   0  0  0  0  0  0  0  0  0  0  0  0  # atno 249  bound_to 231 
  110.5910  140.4300  101.2322 H   0  0  0  0  0  0  0  0  0  0  0  0  # atno 280  bound_to 266 
  148.9985  145.1429  146.2449 H   0  0  0  0  0  0  0  0  0  0  0  0  # atno 336  bound_to 328 
  149.2757  143.5927  145.7293 H   0  0  0  0  0  0  0  0  0  0  0  0  # atno 337  bound_to 328 
  150.0647  144.1754  147.0643 H   0  0  0  0  0  0  0  0  0  0  0  0  # atno 338  bound_to 328 
  151.0363  137.1212  154.3623 H   0  0  0  0  0  0  0  0  0  0  0  0  # atno 387  bound_to 379 
  137.4566  116.5129  183.7628 H   0  0  0  0  0  0  0  0  0  0  0  0  # atno 421  bound_to 400 
  156.0521  131.2073  150.9768 H   0  0  0  0  0  0  0  0  0  0  0  0  # atno 472  bound_to 463 
  116.8853  143.0860  113.2337 H   0  0  0  0  0  0  0  0  0  0  0  0  # atno 478  bound_to 464 
  115.0047  145.6611  113.9304 H   0  0  0  0  0  0  0  0  0  0  0  0  # atno 484  bound_to 470 
  121.8829  163.2192  166.5607 H   0  0  0  0  0  0  0  0  0  0  0  0  # atno 535  bound_to 513 
  138.6039  145.6365  188.8306 H   0  0  0  0  0  0  0  0  0  0  0  0  # atno 1144 bound_to 1124
  138.8659  159.6669  184.8192 H   0  0  0  0  0  0  0  0  0  0  0  0  # atno 1444 bound_to 1430
  148.1840  129.7769  151.0261 H   0  0  0  0  0  0  0  0  0  0  0  0  # atno 1488 bound_to 1482
  132.4250  164.3050  175.3880 H   0  0  0  0  0  0  0  0  0  0  0  0  # atno 2038 bound_to 2027
  138.9857  130.5538  153.1171 H   0  0  0  0  0  0  0  0  0  0  0  0  # atno 2069 bound_to 2062
  143.2511  124.5384  153.1757 H   0  0  0  0  0  0  0  0  0  0  0  0  # atno 2099 bound_to 2094
  133.5985  124.1187  151.5724 H   0  0  0  0  0  0  0  0  0  0  0  0  # atno 3038 bound_to 3033
  133.0068  125.1735  150.4383 H   0  0  0  0  0  0  0  0  0  0  0  0  # atno 3039 bound_to 3033
  133.9025  118.6330  147.8320 H   0  0  0  0  0  0  0  0  0  0  0  0  # atno 3081 bound_to 3072
  141.8438  120.9890  149.1468 H   0  0  0  0  0  0  0  0  0  0  0  0  # atno 3113 bound_to 3104
  144.2425  134.0610  135.9758 H   0  0  0  0  0  0  0  0  0  0  0  0  # atno 3627 bound_to 3618
  119.8030  120.7725  172.4497 H   0  0  0  0  0  0  0  0  0  0  0  0  # atno 4286 bound_to 4281
  123.4810  116.3505  172.3238 H   0  0  0  0  0  0  0  0  0  0  0  0  # atno 4334 bound_to 4326
  145.8410  139.1275  166.7161 H   0  0  0  0  0  0  0  0  0  0  0  0  # atno 4376 bound_to 4367
  123.8757  123.1932  186.4675 H   0  0  0  0  0  0  0  0  0  0  0  0  # atno 4687 bound_to 4679
  151.7367  147.6818  171.6848 H   0  0  0  0  0  0  0  0  0  0  0  0  # atno 5109 bound_to 5102
  132.5350  162.6059  175.7827 LP  0  0  0  0  0  0  0  0  0  0  0  0  # atno 14713 bound_to 2027
  128.9248  160.7136  173.8529 LP  0  0  0  0  0  0  0  0  0  0  0  0  # atno 14714 bound_to 2030
  128.7997  161.3872  175.4437 LP  0  0  0  0  0  0  0  0  0  0  0  0  # atno 14715 bound_to 2030
  120.7093  119.5039  173.2366 LP  0  0  0  0  0  0  0  0  0  0  0  0  # atno 14722 bound_to 4281
  120.8874  116.7671  169.6207 LP  0  0  0  0  0  0  0  0  0  0  0  0  # atno 14723 bound_to 4284
  121.1228  116.1993  171.2400 LP  0  0  0  0  0  0  0  0  0  0  0  0  # atno 14724 bound_to 4284
  121.1073  164.1535  165.3040 LP  0  0  0  0  0  0  0  0  0  0  0  0  # atno 14731 bound_to 513 
  124.5431  164.7060  164.6021 LP  0  0  0  0  0  0  0  0  0  0  0  0  # atno 14732 bound_to 516 
  123.4656  164.6779  163.2462 LP  0  0  0  0  0  0  0  0  0  0  0  0  # atno 14733 bound_to 516 
  137.4288  130.4320  152.6609 LP  0  0  0  0  0  0  0  0  0  0  0  0  # atno 14736 bound_to 2062
  138.3075  129.0850  152.9441 LP  0  0  0  0  0  0  0  0  0  0  0  0  # atno 14737 bound_to 2062
  125.0726  116.7275  171.6938 LP  0  0  0  0  0  0  0  0  0  0  0  0  # atno 14754 bound_to 4326
  125.8234  114.0989  171.5132 LP  0  0  0  0  0  0  0  0  0  0  0  0  # atno 14755 bound_to 4329
  125.7320  113.0028  172.8512 LP  0  0  0  0  0  0  0  0  0  0  0  0  # atno 14756 bound_to 4329
  150.1589  147.7802  171.2995 LP  0  0  0  0  0  0  0  0  0  0  0  0  # atno 14759 bound_to 5102
  151.2935  148.2992  170.2460 LP  0  0  0  0  0  0  0  0  0  0  0  0  # atno 14760 bound_to 5102
  142.7004  123.8062  151.8308 LP  0  0  0  0  0  0  0  0  0  0  0  0  # atno 14769 bound_to 2094
  143.7575  123.0361  152.8085 LP  0  0  0  0  0  0  0  0  0  0  0  0  # atno 14770 bound_to 2094
  144.4069  139.5281  166.0594 LP  0  0  0  0  0  0  0  0  0  0  0  0  # atno 14775 bound_to 4367
  144.8805  140.2045  167.4683 LP  0  0  0  0  0  0  0  0  0  0  0  0  # atno 14776 bound_to 4367
  138.0773  145.6472  190.5019 LP  0  0  0  0  0  0  0  0  0  0  0  0  # atno 14794 bound_to 1124
  137.7604  144.5357  187.2266 LP  0  0  0  0  0  0  0  0  0  0  0  0  # atno 14795 bound_to 1127
  136.5976  143.3184  186.8192 LP  0  0  0  0  0  0  0  0  0  0  0  0  # atno 14796 bound_to 1127
  121.7770  155.3252  185.9749 LP  0  0  0  0  0  0  0  0  0  0  0  0  # atno 14801 bound_to 231 
  122.2879  159.2773  183.8233 LP  0  0  0  0  0  0  0  0  0  0  0  0  # atno 14802 bound_to 234 
  120.6135  159.1711  184.2534 LP  0  0  0  0  0  0  0  0  0  0  0  0  # atno 14803 bound_to 234 
  134.3913  124.3342  150.1464 LP  0  0  0  0  0  0  0  0  0  0  0  0  # atno 14808 bound_to 3033
  110.2758  140.6420  102.9370 LP  0  0  0  0  0  0  0  0  0  0  0  0  # atno 14816 bound_to 266 
  114.3158  141.2504  104.7768 LP  0  0  0  0  0  0  0  0  0  0  0  0  # atno 14817 bound_to 269 
  113.7183  139.6351  104.5920 LP  0  0  0  0  0  0  0  0  0  0  0  0  # atno 14818 bound_to 269 
  122.2200  122.7016  186.1847 LP  0  0  0  0  0  0  0  0  0  0  0  0  # atno 14823 bound_to 4679
  124.2243  120.3347  187.9099 LP  0  0  0  0  0  0  0  0  0  0  0  0  # atno 14824 bound_to 4682
  125.5887  120.1101  186.8669 LP  0  0  0  0  0  0  0  0  0  0  0  0  # atno 14825 bound_to 4682
  134.8866  119.1522  146.6440 LP  0  0  0  0  0  0  0  0  0  0  0  0  # atno 14843 bound_to 3072
  134.0447  120.2278  147.5390 LP  0  0  0  0  0  0  0  0  0  0  0  0  # atno 14844 bound_to 3072
  139.7735  160.6912  185.9094 LP  0  0  0  0  0  0  0  0  0  0  0  0  # atno 14853 bound_to 1430
  137.0666  157.1524  188.0266 LP  0  0  0  0  0  0  0  0  0  0  0  0  # atno 14854 bound_to 1433
  135.7144  157.9633  187.3097 LP  0  0  0  0  0  0  0  0  0  0  0  0  # atno 14855 bound_to 1433
  140.8802  119.8170  148.5598 LP  0  0  0  0  0  0  0  0  0  0  0  0  # atno 14860 bound_to 3104
  142.3112  120.1378  147.8415 LP  0  0  0  0  0  0  0  0  0  0  0  0  # atno 14861 bound_to 3104
  144.3785  133.6195  137.5357 LP  0  0  0  0  0  0  0  0  0  0  0  0  # atno 14880 bound_to 3618
  143.8614  135.1198  137.1507 LP  0  0  0  0  0  0  0  0  0  0  0  0  # atno 14881 bound_to 3618
  149.8719  137.5809  153.3221 LP  0  0  0  0  0  0  0  0  0  0  0  0  # atno 14898 bound_to 379 
  150.5340  138.6692  154.3437 LP  0  0  0  0  0  0  0  0  0  0  0  0  # atno 14899 bound_to 379 
  149.3440  128.9400  150.2491 LP  0  0  0  0  0  0  0  0  0  0  0  0  # atno 14902 bound_to 1482
  149.6583  129.6230  151.6987 LP  0  0  0  0  0  0  0  0  0  0  0  0  # atno 14903 bound_to 1482
  136.0451  115.4803  183.7951 LP  0  0  0  0  0  0  0  0  0  0  0  0  # atno 14912 bound_to 400 
  140.3086  116.5243  184.7904 LP  0  0  0  0  0  0  0  0  0  0  0  0  # atno 14913 bound_to 403 
  139.4737  115.5289  183.6449 LP  0  0  0  0  0  0  0  0  0  0  0  0  # atno 14914 bound_to 403 
  157.4741  131.8948  151.3683 LP  0  0  0  0  0  0  0  0  0  0  0  0  # atno 14925 bound_to 463 
  157.4089  130.7551  150.2006 LP  0  0  0  0  0  0  0  0  0  0  0  0  # atno 14926 bound_to 463 
  117.9873  142.1305  114.1986 LP  0  0  0  0  0  0  0  0  0  0  0  0  # atno 14927 bound_to 464 
  118.1804  142.8390  118.1336 LP  0  0  0  0  0  0  0  0  0  0  0  0  # atno 14928 bound_to 467 
  117.0268  144.1218  117.9803 LP  0  0  0  0  0  0  0  0  0  0  0  0  # atno 14929 bound_to 467 
  114.7038  144.1862  113.3122 LP  0  0  0  0  0  0  0  0  0  0  0  0  # atno 14930 bound_to 470 
  116.2359  144.7462  113.3872 LP  0  0  0  0  0  0  0  0  0  0  0  0  # atno 14931 bound_to 470 

> <Gold.Score>
     Fitness  S(hb_ext) S(vdw_ext)  S(hb_int)    S(int)      intcor
     29.71       1.04      21.38       0.00      -0.72      -0.76

> <Gold.Goldscore.Fitness>
29.7080

> <Gold.Goldscore.Internal.Vdw>
-0.7806

> <Gold.Goldscore.Internal.Torsion>
-0.7006

> <Gold.Goldscore.External.Vdw>
21.3772

> <Gold.Goldscore.Internal.HBond>
0.0000

> <Gold.Goldscore.External.HBond>
1.0369

> <Gold.Goldscore.Internal.Correction>
-0.7585

> <Gold.Goldscore.Hbonds>
donor molecule, donor type, donor heavy atom, donor atom, acceptor molecule, acceptor atom, score
      P1  H  2062  2069       L1    11  0.52

> <Gold.Goldscore.Internal.Vdw.Weighted>
-0.7806

> <Gold.Goldscore.Internal.Torsion.Weighted>
-0.7006

> <Gold.Goldscore.External.Vdw.Weighted>
29.3937

> <Gold.Goldscore.Internal.HBond.Weighted>
0.0000

> <Gold.Goldscore.External.HBond.Weighted>
1.0369

> <Gold.Goldscore.Internal.Correction.Weighted>
-0.7585

> <Gold.Rescore>
     Score     S(PLP)   S(hbond)     S(cho)   S(metal)  DE(clash)   DE(tors)     intcor
     25.99     -23.63       1.00       0.00       0.00       0.00       0.32       ----

> <Gold.PLP.Fitness>
25.9870

> <Gold.PLP.PLP>
-23.6298

> <Gold.PLP.part.hbond>
-1.0000

> <Gold.PLP.part.metal>
0.0000

> <Gold.PLP.part.buried>
-0.8391

> <Gold.PLP.part.nonpolar>
-22.2284

> <Gold.PLP.part.repulsive>
0.2513

> <Gold.PLP.ligand.clash>
0.0000

> <Gold.PLP.ligand.torsion>
0.3214

> <Gold.PLP.Chemscore.Hbond>
1.0000

> <Gold.PLP.Chemscore.CHOScore>
0.0000

> <Gold.PLP.Chemscore.Metal>
0.0000

> <Gold.Chemscore.Hbonds>
donor molecule, donor type, donor heavy atom, donor atom, acceptor molecule, acceptor atom, score
      P1  H  2062  2069       L1    11  1.00

> <Gold.PLP.Chemscore.Internal.Correction>
   9.000000E+99

