#       Name:                CT1002167954
#       Creating user name   hitesit
#       Creation time:       Sun Apr 16 23:04:03 2023


#       File generated by GOLD software.
#

@<TRIPOS>MOLECULE
CT1002167954|ligand_prepared|mol2|1|dock7
    29    30     1
SMALL
NO_CHARGES


@<TRIPOS>ATOM
      1 C1         143.7483 143.0342 168.7434 C.3            1 RES1               0.0000
      2 C2         144.9590 142.4577 169.5055 C.ar           1 RES1               0.0000
      3 C3         144.2524 144.2770 168.0156 C.2            1 RES1               0.0000
      4 C4         143.2601 141.9259 167.8171 C.2            1 RES1               0.0000
      5 C5         142.5715 143.4447 169.6589 C.3            1 RES1               0.0000
      6 C6         144.8801 141.2133 170.1234 C.ar           1 RES1               0.0000
      7 C7         146.1600 143.1561 169.5968 C.ar           1 RES1               0.0000
      8 N8         144.4232 144.1926 166.6651 N.am           1 RES1               0.0000
      9 O9         144.5336 145.3030 168.6226 O.2            1 RES1               0.0000
     10 N10        143.3674 142.1249 166.4656 N.am           1 RES1               0.0000
     11 O11        142.7989 140.8753 168.2456 O.2            1 RES1               0.0000
     12 C12        141.3799 144.0161 168.9067 C.3            1 RES1               0.0000
     13 C13        145.9636 140.6848 170.8054 C.ar           1 RES1               0.0000
     14 C14        147.2422 142.6259 170.2795 C.ar           1 RES1               0.0000
     15 C15        143.9551 143.1952 165.8480 C.2            1 RES1               0.0000
     16 C16        147.1454 141.3904 170.8835 C.ar           1 RES1               0.0000
     17 O17        144.0624 143.2772 164.6278 O.2            1 RES1               0.0000
     18 H18        142.2423 142.5655 170.2264 H              1 RES1               0.0000
     19 H19        142.9275 144.1934 170.3773 H              1 RES1               0.0000
     20 H20        143.9575 140.6445 170.0747 H              1 RES1               0.0000
     21 H21        146.2587 144.1304 169.1302 H              1 RES1               0.0000
     22 H22        144.9475 144.9402 166.2219 H              1 RES1               0.0000
     23 H23        142.9724 141.4089 165.8642 H              1 RES1               0.0000
     24 H24        140.5830 144.2877 169.5958 H              1 RES1               0.0000
     25 H25        141.6656 144.9068 168.3510 H              1 RES1               0.0000
     26 H26        140.9844 143.2885 168.2010 H              1 RES1               0.0000
     27 H27        145.8818 139.7126 171.2802 H              1 RES1               0.0000
     28 H28        148.1702 143.1850 170.3390 H              1 RES1               0.0000
     29 H29        147.9941 140.9760 171.4175 H              1 RES1               0.0000
@<TRIPOS>BOND
    1    1    2 1     
    2    1    3 1     
    3    1    4 1     
    4    1    5 1     
    5    2    6 ar    
    6    2    7 ar    
    7    3    8 1     
    8    3    9 2     
    9    4   10 1     
   10    4   11 2     
   11    5   12 1     
   12    5   18 1     
   13    5   19 1     
   14    6   13 ar    
   15    6   20 1     
   16    7   14 ar    
   17    7   21 1     
   18    8   15 1     
   19    8   22 1     
   20   10   15 1     
   21   10   23 1     
   22   12   24 1     
   23   12   25 1     
   24   12   26 1     
   25   13   16 ar    
   26   13   27 1     
   27   14   16 ar    
   28   14   28 1     
   29   15   17 2     
   30   16   29 1     
@<TRIPOS>SUBSTRUCTURE
      1 RES1           1
@<TRIPOS>SET
DONOR_HYDROGENS      STATIC     ATOMS    <user>   **** ""
2 22 23
ATOM$RED        STATIC     ATOMS    COLORGROUP SYSTEM
2 22 23
@<TRIPOS>COMMENT
> <Gold.Version>
2022.3.0

> <Gold.Id.Protein>
unknown|7rmh_cavity_clean|pdb

> <Gold.Protein.RotatedTorsions>
[ 2038 2027 2028 2029 ] final  -98.95 input  103.58 | X-H torsion
[ 4286 4281 4282 4283 ] final  156.06 input  108.09 | X-H torsion
[  535  513  514  515 ] final   -7.12 input  105.58 | X-H torsion
[ 2069 2062 2060 2057 ] final -118.95 input   60.00 | X-H torsion
[ 4334 4326 4327 4328 ] final  174.63 input   45.76 | X-H torsion
[ 5109 5102 5100 5097 ] final -144.41 input   60.01 | X-H torsion
[ 2099 2094 2093 2090 ] final  -38.59 input   60.02 | X-H torsion
[ 4376 4367 4366 4364 ] final -114.11 input   59.97 | X-H torsion
[ 1144 1124 1125 1126 ] final  176.17 input   64.50 | X-H torsion
[  249  231  232  233 ] final  146.80 input  105.30 | X-H torsion
[ 3038 3033 3034 3035 ] final  -55.02 input   60.01 | X-H torsion
[  280  266  267  268 ] final  143.09 input  114.84 | X-H torsion
[ 4687 4679 4680 4681 ] final  128.20 input   46.48 | X-H torsion
[ 3081 3072 3071 3069 ] final  126.28 input   59.99 | X-H torsion
[  336  328  327  326 ] final  129.61 input   59.97 | X-H torsion
[ 1444 1430 1431 1432 ] final   78.17 input   54.63 | X-H torsion
[ 3113 3104 3103 3101 ] final  -54.13 input   60.00 | X-H torsion
[ 3627 3618 3617 3615 ] final -157.26 input   60.02 | X-H torsion
[  387  379  378  376 ] final  -89.08 input   59.98 | X-H torsion
[ 1488 1482 1480 1477 ] final  -36.44 input   59.97 | X-H torsion
[  421  400  401  402 ] final  -63.83 input   82.00 | X-H torsion
[  472  463  461  458 ] final -161.26 input   59.98 | X-H torsion
[  478  464  465  466 ] final  162.41 input  115.28 | X-H torsion
[  484  470  468  465 ] final  -14.96 input   59.99 | X-H torsion
[ 14714 2030 2029 2028 ] final  122.95 input    0.00 | X-H torsion
[ 14723 4284 4283 4282 ] final    9.21 input    0.00 | X-H torsion
[ 14732  516  515  514 ] final  -50.49 input    0.00 | X-H torsion
[ 14755 4329 4328 4327 ] final   52.92 input    0.00 | X-H torsion
[ 14795 1127 1126 1125 ] final -159.64 input   -0.00 | X-H torsion
[ 14802  234  233  232 ] final -131.53 input   -0.00 | X-H torsion
[ 14817  269  268  267 ] final  114.48 input    0.00 | X-H torsion
[ 14824 4682 4681 4680 ] final   71.98 input   -0.00 | X-H torsion
[ 14854 1433 1432 1431 ] final  130.83 input   -0.00 | X-H torsion
[ 14913  403  402  401 ] final -149.12 input   -0.00 | X-H torsion
[ 14928  467  466  465 ] final -174.79 input    0.00 | X-H torsion

> <Gold.Protein.ActiveResidues>
 GLU27   LEU30   GLN31   ASP33   LYS34   GLN35   VAL36   TYR37   ARG38   THR40  
 HIS41   ARG42   ILE207  GLU209  HIS220  PHE222  CYS237  PHE238  ASN239  ASP240 
 VAL241  THR242  ARG280  TRP281  ARG283  THR284  ILE285  SER286  ARG356  HIS357 
 TYR358  TYR360  ASP381  ILE382  ILE383  GLN384  ARG385  MET386  HIS387  LEU388 
 ARG389  GLN390  TYR391  GLU392  LEU393  LEU394  ALA56   LYS57   ILE58   TYR59  
 ALA60   MET61   LEU79   ILE80   ILE81   TRP82   ILE93   VAL100  MET101  THR102 
 CYS103  CYS121  ASP312  ASN313  TRP332  ASP333  SER334  PHE335 

> <Gold.Protein.RotatedAtoms>
  122.9376  155.4392  186.7814 H   0  0  0  0  0  0  0  0  0  0  0  0  # atno 249  bound_to 231 
  110.5133  140.2125  101.2770 H   0  0  0  0  0  0  0  0  0  0  0  0  # atno 280  bound_to 266 
  149.7848  144.8266  147.0721 H   0  0  0  0  0  0  0  0  0  0  0  0  # atno 336  bound_to 328 
  148.8080  144.6803  145.7416 H   0  0  0  0  0  0  0  0  0  0  0  0  # atno 337  bound_to 328 
  149.7464  143.4035  146.2249 H   0  0  0  0  0  0  0  0  0  0  0  0  # atno 338  bound_to 328 
  150.4304  136.9148  153.6780 H   0  0  0  0  0  0  0  0  0  0  0  0  # atno 387  bound_to 379 
  136.9500  116.7717  184.1409 H   0  0  0  0  0  0  0  0  0  0  0  0  # atno 421  bound_to 400 
  157.3840  131.9166  151.4075 H   0  0  0  0  0  0  0  0  0  0  0  0  # atno 472  bound_to 463 
  117.0399  143.2019  113.2107 H   0  0  0  0  0  0  0  0  0  0  0  0  # atno 478  bound_to 464 
  116.2449  144.8711  113.4434 H   0  0  0  0  0  0  0  0  0  0  0  0  # atno 484  bound_to 470 
  122.2589  164.1204  166.0079 H   0  0  0  0  0  0  0  0  0  0  0  0  # atno 535  bound_to 513 
  138.2600  146.4673  190.0175 H   0  0  0  0  0  0  0  0  0  0  0  0  # atno 1144 bound_to 1124
  138.5962  160.6673  185.2159 H   0  0  0  0  0  0  0  0  0  0  0  0  # atno 1444 bound_to 1430
  148.1760  129.7565  150.9837 H   0  0  0  0  0  0  0  0  0  0  0  0  # atno 1488 bound_to 1482
  132.3418  163.1128  176.3952 H   0  0  0  0  0  0  0  0  0  0  0  0  # atno 2038 bound_to 2027
  138.8773  130.6900  153.0827 H   0  0  0  0  0  0  0  0  0  0  0  0  # atno 2069 bound_to 2062
  143.1230  124.6148  153.0447 H   0  0  0  0  0  0  0  0  0  0  0  0  # atno 2099 bound_to 2094
  134.3244  124.4430  150.0248 H   0  0  0  0  0  0  0  0  0  0  0  0  # atno 3038 bound_to 3033
  133.7478  124.0365  151.5251 H   0  0  0  0  0  0  0  0  0  0  0  0  # atno 3039 bound_to 3033
  134.8868  119.1875  146.6441 H   0  0  0  0  0  0  0  0  0  0  0  0  # atno 3081 bound_to 3072
  141.0466  120.4869  149.1860 H   0  0  0  0  0  0  0  0  0  0  0  0  # atno 3113 bound_to 3104
  143.9787  134.8126  136.1476 H   0  0  0  0  0  0  0  0  0  0  0  0  # atno 3627 bound_to 3618
  119.6191  120.6691  172.5688 H   0  0  0  0  0  0  0  0  0  0  0  0  # atno 4286 bound_to 4281
  123.6931  116.9906  172.4918 H   0  0  0  0  0  0  0  0  0  0  0  0  # atno 4334 bound_to 4326
  144.4264  140.2266  167.1014 H   0  0  0  0  0  0  0  0  0  0  0  0  # atno 4376 bound_to 4367
  123.6970  123.4586  186.0301 H   0  0  0  0  0  0  0  0  0  0  0  0  # atno 4687 bound_to 4679
  151.6934  147.6631  171.7225 H   0  0  0  0  0  0  0  0  0  0  0  0  # atno 5109 bound_to 5102
  132.6162  163.7703  174.7991 LP  0  0  0  0  0  0  0  0  0  0  0  0  # atno 14713 bound_to 2027
  128.6483  161.1372  173.8136 LP  0  0  0  0  0  0  0  0  0  0  0  0  # atno 14714 bound_to 2030
  129.0762  160.9636  175.4830 LP  0  0  0  0  0  0  0  0  0  0  0  0  # atno 14715 bound_to 2030
  120.8896  119.6052  173.1199 LP  0  0  0  0  0  0  0  0  0  0  0  0  # atno 14722 bound_to 4281
  120.1490  116.5927  170.3580 LP  0  0  0  0  0  0  0  0  0  0  0  0  # atno 14723 bound_to 4284
  121.8611  116.3737  170.5028 LP  0  0  0  0  0  0  0  0  0  0  0  0  # atno 14724 bound_to 4284
  120.7397  163.2725  165.8444 LP  0  0  0  0  0  0  0  0  0  0  0  0  # atno 14731 bound_to 513 
  123.3358  164.7237  163.3746 LP  0  0  0  0  0  0  0  0  0  0  0  0  # atno 14732 bound_to 516 
  124.6729  164.6601  164.4738 LP  0  0  0  0  0  0  0  0  0  0  0  0  # atno 14733 bound_to 516 
  137.3688  130.2641  152.6465 LP  0  0  0  0  0  0  0  0  0  0  0  0  # atno 14736 bound_to 2062
  138.4768  129.1156  152.9932 LP  0  0  0  0  0  0  0  0  0  0  0  0  # atno 14737 bound_to 2062
  124.8691  116.1133  171.5327 LP  0  0  0  0  0  0  0  0  0  0  0  0  # atno 14754 bound_to 4326
  125.4640  114.1205  171.6102 LP  0  0  0  0  0  0  0  0  0  0  0  0  # atno 14755 bound_to 4329
  126.0913  112.9812  172.7541 LP  0  0  0  0  0  0  0  0  0  0  0  0  # atno 14756 bound_to 4329
  150.1441  147.8035  171.2453 LP  0  0  0  0  0  0  0  0  0  0  0  0  # atno 14759 bound_to 5102
  151.3519  148.2948  170.2623 LP  0  0  0  0  0  0  0  0  0  0  0  0  # atno 14760 bound_to 5102
  142.7738  123.6224  151.8032 LP  0  0  0  0  0  0  0  0  0  0  0  0  # atno 14769 bound_to 2094
  143.8131  123.1431  152.9680 LP  0  0  0  0  0  0  0  0  0  0  0  0  # atno 14770 bound_to 2094
  145.8525  139.4492  167.2034 LP  0  0  0  0  0  0  0  0  0  0  0  0  # atno 14775 bound_to 4367
  144.8596  139.1764  165.9361 LP  0  0  0  0  0  0  0  0  0  0  0  0  # atno 14776 bound_to 4367
  138.4077  144.8491  189.3617 LP  0  0  0  0  0  0  0  0  0  0  0  0  # atno 14794 bound_to 1124
  136.5205  143.4837  186.6768 LP  0  0  0  0  0  0  0  0  0  0  0  0  # atno 14795 bound_to 1127
  137.8375  144.3705  187.3690 LP  0  0  0  0  0  0  0  0  0  0  0  0  # atno 14796 bound_to 1127
  121.2799  155.9542  186.5887 LP  0  0  0  0  0  0  0  0  0  0  0  0  # atno 14801 bound_to 231 
  120.5936  159.1278  184.1164 LP  0  0  0  0  0  0  0  0  0  0  0  0  # atno 14802 bound_to 234 
  122.3078  159.3207  183.9604 LP  0  0  0  0  0  0  0  0  0  0  0  0  # atno 14803 bound_to 234 
  132.9464  125.1353  150.5994 LP  0  0  0  0  0  0  0  0  0  0  0  0  # atno 14808 bound_to 3033
  110.3520  140.8552  102.8931 LP  0  0  0  0  0  0  0  0  0  0  0  0  # atno 14816 bound_to 266 
  114.6966  140.7935  104.2780 LP  0  0  0  0  0  0  0  0  0  0  0  0  # atno 14817 bound_to 269 
  113.3375  140.0919  105.0908 LP  0  0  0  0  0  0  0  0  0  0  0  0  # atno 14818 bound_to 269 
  122.3929  122.4447  186.6080 LP  0  0  0  0  0  0  0  0  0  0  0  0  # atno 14823 bound_to 4679
  124.3395  120.7115  187.8234 LP  0  0  0  0  0  0  0  0  0  0  0  0  # atno 14824 bound_to 4682
  125.4735  119.7332  186.9533 LP  0  0  0  0  0  0  0  0  0  0  0  0  # atno 14825 bound_to 4682
  134.0238  120.2159  147.5643 LP  0  0  0  0  0  0  0  0  0  0  0  0  # atno 14843 bound_to 3072
  133.9168  118.6058  147.8145 LP  0  0  0  0  0  0  0  0  0  0  0  0  # atno 14844 bound_to 3072
  140.0351  159.7208  185.5245 LP  0  0  0  0  0  0  0  0  0  0  0  0  # atno 14853 bound_to 1430
  135.7128  157.6783  187.1426 LP  0  0  0  0  0  0  0  0  0  0  0  0  # atno 14854 bound_to 1433
  137.0682  157.4373  188.1937 LP  0  0  0  0  0  0  0  0  0  0  0  0  # atno 14855 bound_to 1433
  141.5204  119.6397  147.8805 LP  0  0  0  0  0  0  0  0  0  0  0  0  # atno 14860 bound_to 3104
  142.4743  120.8211  148.4814 LP  0  0  0  0  0  0  0  0  0  0  0  0  # atno 14861 bound_to 3104
  144.4702  133.3853  136.7542 LP  0  0  0  0  0  0  0  0  0  0  0  0  # atno 14880 bound_to 3618
  144.0355  134.5968  137.7591 LP  0  0  0  0  0  0  0  0  0  0  0  0  # atno 14881 bound_to 3618
  149.9247  138.4616  153.6555 LP  0  0  0  0  0  0  0  0  0  0  0  0  # atno 14898 bound_to 379 
  151.0912  137.9962  154.6992 LP  0  0  0  0  0  0  0  0  0  0  0  0  # atno 14899 bound_to 379 
  149.3871  128.9361  150.2698 LP  0  0  0  0  0  0  0  0  0  0  0  0  # atno 14902 bound_to 1482
  149.6232  129.6475  151.7206 LP  0  0  0  0  0  0  0  0  0  0  0  0  # atno 14903 bound_to 1482
  136.5372  115.2288  183.4278 LP  0  0  0  0  0  0  0  0  0  0  0  0  # atno 14912 bound_to 400 
  140.5840  115.5792  184.4819 LP  0  0  0  0  0  0  0  0  0  0  0  0  # atno 14913 bound_to 403 
  139.1984  116.4740  183.9533 LP  0  0  0  0  0  0  0  0  0  0  0  0  # atno 14914 bound_to 403 
  157.4945  130.8007  150.2282 LP  0  0  0  0  0  0  0  0  0  0  0  0  # atno 14925 bound_to 463 
  156.0474  131.1350  150.9070 LP  0  0  0  0  0  0  0  0  0  0  0  0  # atno 14926 bound_to 463 
  117.8369  142.0177  114.2210 LP  0  0  0  0  0  0  0  0  0  0  0  0  # atno 14927 bound_to 464 
  117.5741  142.7036  118.4387 LP  0  0  0  0  0  0  0  0  0  0  0  0  # atno 14928 bound_to 467 
  117.6332  144.2572  117.6752 LP  0  0  0  0  0  0  0  0  0  0  0  0  # atno 14929 bound_to 467 
  114.8769  145.6120  113.9209 LP  0  0  0  0  0  0  0  0  0  0  0  0  # atno 14930 bound_to 470 
  114.8138  144.1161  113.2690 LP  0  0  0  0  0  0  0  0  0  0  0  0  # atno 14931 bound_to 470 

> <Gold.Score>
     Fitness  S(hb_ext) S(vdw_ext)  S(hb_int)    S(int)      intcor
     32.97       4.48      25.37       0.00      -6.39      -0.76

> <Gold.Goldscore.Fitness>
32.9711

> <Gold.Goldscore.Internal.Vdw>
-6.7812

> <Gold.Goldscore.Internal.Torsion>
-0.3667

> <Gold.Goldscore.External.Vdw>
25.3662

> <Gold.Goldscore.Internal.HBond>
0.0000

> <Gold.Goldscore.External.HBond>
4.4821

> <Gold.Goldscore.Internal.Correction>
-0.7585

> <Gold.Goldscore.Hbonds>
donor molecule, donor type, donor heavy atom, donor atom, acceptor molecule, acceptor atom, score
      P1  H  8313  8323       L1    17  1.00
      P1  H  4367  4376       L1    11  0.24
      L1  H     8    22       P1  4359  1.00

> <Gold.Goldscore.Internal.Vdw.Weighted>
-6.7812

> <Gold.Goldscore.Internal.Torsion.Weighted>
-0.3667

> <Gold.Goldscore.External.Vdw.Weighted>
34.8785

> <Gold.Goldscore.Internal.HBond.Weighted>
0.0000

> <Gold.Goldscore.External.HBond.Weighted>
4.4821

> <Gold.Goldscore.Internal.Correction.Weighted>
-0.7585

> <Gold.Rescore>
     Score     S(PLP)   S(hbond)     S(cho)   S(metal)  DE(clash)   DE(tors)     intcor
     35.48     -31.48       2.03       0.00       0.00       0.17       0.96       ----

> <Gold.PLP.Fitness>
35.4774

> <Gold.PLP.PLP>
-31.4792

> <Gold.PLP.part.hbond>
-5.7028

> <Gold.PLP.part.metal>
0.0000

> <Gold.PLP.part.buried>
1.1348

> <Gold.PLP.part.nonpolar>
-29.3448

> <Gold.PLP.part.repulsive>
0.5246

> <Gold.PLP.ligand.clash>
0.1669

> <Gold.PLP.ligand.torsion>
0.9561

> <Gold.PLP.Chemscore.Hbond>
2.0258

> <Gold.PLP.Chemscore.CHOScore>
0.0000

> <Gold.PLP.Chemscore.Metal>
0.0000

> <Gold.Chemscore.Hbonds>
donor molecule, donor type, donor heavy atom, donor atom, acceptor molecule, acceptor atom, score
      L1  H     8    22       P1  4359  1.00
      P1  H  8313  8323       L1    17  0.84

> <Gold.PLP.Chemscore.Internal.Correction>
   9.000000E+99

