#       Name:                CT1002167954
#       Creating user name   hitesit
#       Creation time:       Sun Apr 16 23:03:40 2023


#       File generated by GOLD software.
#

@<TRIPOS>MOLECULE
CT1002167954|ligand_prepared|mol2|1|dock5
    29    30     1
SMALL
NO_CHARGES


@<TRIPOS>ATOM
      1 C1         145.3462 132.1009 150.5083 C.3            1 RES1               0.0000
      2 C2         144.2027 131.7190 151.4703 C.ar           1 RES1               0.0000
      3 C3         145.7817 133.5103 150.8985 C.2            1 RES1               0.0000
      4 C4         146.4284 131.0425 150.6906 C.2            1 RES1               0.0000
      5 C5         144.9325 132.1095 149.0182 C.3            1 RES1               0.0000
      6 C6         144.3682 131.8307 152.8475 C.ar           1 RES1               0.0000
      7 C7         142.9779 131.2569 150.9961 C.ar           1 RES1               0.0000
      8 N8         146.9678 133.6453 151.5578 N.am           1 RES1               0.0000
      9 O9         145.0762 134.4843 150.6664 O.2            1 RES1               0.0000
     10 N10        147.6294 131.4367 151.2198 N.am           1 RES1               0.0000
     11 O11        146.2462 129.8676 150.3962 O.2            1 RES1               0.0000
     12 C12        146.0309 132.5836 148.0797 C.3            1 RES1               0.0000
     13 C13        143.3454 131.4954 153.7192 C.ar           1 RES1               0.0000
     14 C14        141.9564 130.9219 151.8696 C.ar           1 RES1               0.0000
     15 C15        147.9375 132.6841 151.6902 C.2            1 RES1               0.0000
     16 C16        142.1388 131.0413 153.2309 C.ar           1 RES1               0.0000
     17 O17        149.0214 132.9481 152.2027 O.2            1 RES1               0.0000
     18 H18        144.6344 131.0943 148.7287 H              1 RES1               0.0000
     19 H19        144.0592 132.7625 148.8980 H              1 RES1               0.0000
     20 H20        145.3116 132.1840 153.2504 H              1 RES1               0.0000
     21 H21        142.8122 131.1540 149.9291 H              1 RES1               0.0000
     22 H22        147.1508 134.5440 151.9927 H              1 RES1               0.0000
     23 H23        148.3616 130.7353 151.2673 H              1 RES1               0.0000
     24 H24        145.6884 132.5703 147.0471 H              1 RES1               0.0000
     25 H25        146.3343 133.5998 148.3230 H              1 RES1               0.0000
     26 H26        146.9061 131.9414 148.1547 H              1 RES1               0.0000
     27 H27        143.4945 131.5899 154.7897 H              1 RES1               0.0000
     28 H28        141.0086 130.5643 151.4809 H              1 RES1               0.0000
     29 H29        141.3376 130.7790 153.9139 H              1 RES1               0.0000
@<TRIPOS>BOND
    1    1    2 1     
    2    1    3 1     
    3    1    4 1     
    4    1    5 1     
    5    2    6 ar    
    6    2    7 ar    
    7    3    8 1     
    8    3    9 2     
    9    4   10 1     
   10    4   11 2     
   11    5   12 1     
   12    5   18 1     
   13    5   19 1     
   14    6   13 ar    
   15    6   20 1     
   16    7   14 ar    
   17    7   21 1     
   18    8   15 1     
   19    8   22 1     
   20   10   15 1     
   21   10   23 1     
   22   12   24 1     
   23   12   25 1     
   24   12   26 1     
   25   13   16 ar    
   26   13   27 1     
   27   14   16 ar    
   28   14   28 1     
   29   15   17 2     
   30   16   29 1     
@<TRIPOS>SUBSTRUCTURE
      1 RES1           1
@<TRIPOS>SET
DONOR_HYDROGENS      STATIC     ATOMS    <user>   **** ""
2 22 23
ATOM$RED        STATIC     ATOMS    COLORGROUP SYSTEM
2 22 23
@<TRIPOS>COMMENT
> <Gold.Version>
2022.3.0

> <Gold.Id.Protein>
unknown|7rmh_cavity_clean|pdb

> <Gold.Protein.RotatedTorsions>
[ 2038 2027 2028 2029 ] final   57.17 input  103.58 | X-H torsion
[ 4286 4281 4282 4283 ] final   60.55 input  108.09 | X-H torsion
[  535  513  514  515 ] final -159.24 input  105.58 | X-H torsion
[ 2069 2062 2060 2057 ] final -128.63 input   60.00 | X-H torsion
[ 4334 4326 4327 4328 ] final -109.24 input   45.76 | X-H torsion
[ 5109 5102 5100 5097 ] final -106.75 input   60.01 | X-H torsion
[ 2099 2094 2093 2090 ] final  -13.82 input   60.02 | X-H torsion
[ 4376 4367 4366 4364 ] final -140.43 input   59.97 | X-H torsion
[ 1144 1124 1125 1126 ] final   71.96 input   64.50 | X-H torsion
[  249  231  232  233 ] final  -78.66 input  105.30 | X-H torsion
[ 3038 3033 3034 3035 ] final  148.62 input   60.01 | X-H torsion
[  280  266  267  268 ] final   43.21 input  114.84 | X-H torsion
[ 4687 4679 4680 4681 ] final  146.71 input   46.48 | X-H torsion
[ 3081 3072 3071 3069 ] final  -59.40 input   59.99 | X-H torsion
[  336  328  327  326 ] final  -72.26 input   59.97 | X-H torsion
[ 1444 1430 1431 1432 ] final -118.50 input   54.63 | X-H torsion
[ 3113 3104 3103 3101 ] final  159.30 input   60.00 | X-H torsion
[ 3627 3618 3617 3615 ] final -172.01 input   60.02 | X-H torsion
[  387  379  378  376 ] final  -98.58 input   59.98 | X-H torsion
[ 1488 1482 1480 1477 ] final -158.27 input   59.97 | X-H torsion
[  421  400  401  402 ] final   64.93 input   82.00 | X-H torsion
[  472  463  461  458 ] final -149.66 input   59.98 | X-H torsion
[  478  464  465  466 ] final  157.28 input  115.28 | X-H torsion
[  484  470  468  465 ] final  128.74 input   59.99 | X-H torsion
[ 14714 2030 2029 2028 ] final  -15.75 input    0.00 | X-H torsion
[ 14723 4284 4283 4282 ] final -176.02 input    0.00 | X-H torsion
[ 14732  516  515  514 ] final   33.08 input    0.00 | X-H torsion
[ 14755 4329 4328 4327 ] final  -19.02 input    0.00 | X-H torsion
[ 14795 1127 1126 1125 ] final   77.90 input   -0.00 | X-H torsion
[ 14802  234  233  232 ] final  -52.00 input   -0.00 | X-H torsion
[ 14817  269  268  267 ] final   24.85 input    0.00 | X-H torsion
[ 14824 4682 4681 4680 ] final  -53.02 input   -0.00 | X-H torsion
[ 14854 1433 1432 1431 ] final  -63.22 input   -0.00 | X-H torsion
[ 14913  403  402  401 ] final  -69.12 input   -0.00 | X-H torsion
[ 14928  467  466  465 ] final  -21.91 input    0.00 | X-H torsion

> <Gold.Protein.ActiveResidues>
 GLU27   LEU30   GLN31   ASP33   LYS34   GLN35   VAL36   TYR37   ARG38   THR40  
 HIS41   ARG42   ILE207  GLU209  HIS220  PHE222  CYS237  PHE238  ASN239  ASP240 
 VAL241  THR242  ARG280  TRP281  ARG283  THR284  ILE285  SER286  ARG356  HIS357 
 TYR358  TYR360  ASP381  ILE382  ILE383  GLN384  ARG385  MET386  HIS387  LEU388 
 ARG389  GLN390  TYR391  GLU392  LEU393  LEU394  ALA56   LYS57   ILE58   TYR59  
 ALA60   MET61   LEU79   ILE80   ILE81   TRP82   ILE93   VAL100  MET101  THR102 
 CYS103  CYS121  ASP312  ASN313  TRP332  ASP333  SER334  PHE335 

> <Gold.Protein.RotatedAtoms>
  121.5612  156.2309  187.1364 H   0  0  0  0  0  0  0  0  0  0  0  0  # atno 249  bound_to 231 
  110.7185  141.3603  101.9580 H   0  0  0  0  0  0  0  0  0  0  0  0  # atno 280  bound_to 266 
  148.9300  144.0927  145.5687 H   0  0  0  0  0  0  0  0  0  0  0  0  # atno 336  bound_to 328 
  150.0307  143.6479  146.7246 H   0  0  0  0  0  0  0  0  0  0  0  0  # atno 337  bound_to 328 
  149.3778  145.1703  146.7446 H   0  0  0  0  0  0  0  0  0  0  0  0  # atno 338  bound_to 328 
  150.3208  136.9708  153.5838 H   0  0  0  0  0  0  0  0  0  0  0  0  # atno 387  bound_to 379 
  137.2370  115.4653  183.2629 H   0  0  0  0  0  0  0  0  0  0  0  0  # atno 421  bound_to 400 
  157.2088  131.9423  151.4743 H   0  0  0  0  0  0  0  0  0  0  0  0  # atno 472  bound_to 463 
  116.9743  143.1580  113.2171 H   0  0  0  0  0  0  0  0  0  0  0  0  # atno 478  bound_to 464 
  114.5428  144.3539  113.4063 H   0  0  0  0  0  0  0  0  0  0  0  0  # atno 484  bound_to 470 
  120.9289  163.0462  166.1455 H   0  0  0  0  0  0  0  0  0  0  0  0  # atno 535  bound_to 513 
  138.6090  145.7707  188.8420 H   0  0  0  0  0  0  0  0  0  0  0  0  # atno 1144 bound_to 1124
  140.1064  159.9030  185.6890 H   0  0  0  0  0  0  0  0  0  0  0  0  # atno 1444 bound_to 1430
  149.4107  128.9356  150.2894 H   0  0  0  0  0  0  0  0  0  0  0  0  # atno 1488 bound_to 1482
  132.6664  163.4197  174.7236 H   0  0  0  0  0  0  0  0  0  0  0  0  # atno 2038 bound_to 2027
  138.7615  130.7912  153.0468 H   0  0  0  0  0  0  0  0  0  0  0  0  # atno 2069 bound_to 2062
  143.3830  124.4241  153.2843 H   0  0  0  0  0  0  0  0  0  0  0  0  # atno 2099 bound_to 2094
  132.8782  124.8846  151.1325 H   0  0  0  0  0  0  0  0  0  0  0  0  # atno 3038 bound_to 3033
  133.9177  124.8399  149.8416 H   0  0  0  0  0  0  0  0  0  0  0  0  # atno 3039 bound_to 3033
  133.6664  119.3927  148.0473 H   0  0  0  0  0  0  0  0  0  0  0  0  # atno 3081 bound_to 3072
  141.9067  119.7993  147.7718 H   0  0  0  0  0  0  0  0  0  0  0  0  # atno 3113 bound_to 3104
  144.0481  134.6179  136.0253 H   0  0  0  0  0  0  0  0  0  0  0  0  # atno 3627 bound_to 3618
  120.9064  120.5325  172.3997 H   0  0  0  0  0  0  0  0  0  0  0  0  # atno 4286 bound_to 4281
  124.6906  117.3279  172.1640 H   0  0  0  0  0  0  0  0  0  0  0  0  # atno 4334 bound_to 4326
  144.7430  140.2330  167.3869 H   0  0  0  0  0  0  0  0  0  0  0  0  # atno 4376 bound_to 4367
  123.4983  123.5236  185.8349 H   0  0  0  0  0  0  0  0  0  0  0  0  # atno 4687 bound_to 4679
  151.9855  147.8883  171.2438 H   0  0  0  0  0  0  0  0  0  0  0  0  # atno 5109 bound_to 5102
  132.2992  163.4705  176.4316 LP  0  0  0  0  0  0  0  0  0  0  0  0  # atno 14713 bound_to 2027
  128.7405  161.4668  175.3978 LP  0  0  0  0  0  0  0  0  0  0  0  0  # atno 14714 bound_to 2030
  128.9840  160.6340  173.8988 LP  0  0  0  0  0  0  0  0  0  0  0  0  # atno 14715 bound_to 2030
  119.6275  119.7391  173.2857 LP  0  0  0  0  0  0  0  0  0  0  0  0  # atno 14722 bound_to 4281
  121.8669  116.3983  170.4279 LP  0  0  0  0  0  0  0  0  0  0  0  0  # atno 14723 bound_to 4284
  120.1432  116.5681  170.4329 LP  0  0  0  0  0  0  0  0  0  0  0  0  # atno 14724 bound_to 4284
  122.0399  164.3227  165.7099 LP  0  0  0  0  0  0  0  0  0  0  0  0  # atno 14731 bound_to 513 
  123.4050  164.9029  164.5126 LP  0  0  0  0  0  0  0  0  0  0  0  0  # atno 14732 bound_to 516 
  124.6037  164.4810  163.3357 LP  0  0  0  0  0  0  0  0  0  0  0  0  # atno 14733 bound_to 516 
  137.3419  130.1074  152.6415 LP  0  0  0  0  0  0  0  0  0  0  0  0  # atno 14736 bound_to 2062
  138.6203  129.1704  153.0342 LP  0  0  0  0  0  0  0  0  0  0  0  0  # atno 14737 bound_to 2062
  123.9120  115.7897  171.8472 LP  0  0  0  0  0  0  0  0  0  0  0  0  # atno 14754 bound_to 4326
  124.9336  113.6569  172.3443 LP  0  0  0  0  0  0  0  0  0  0  0  0  # atno 14755 bound_to 4329
  126.6218  113.4448  172.0200 LP  0  0  0  0  0  0  0  0  0  0  0  0  # atno 14756 bound_to 4329
  150.4579  147.6054  171.7276 LP  0  0  0  0  0  0  0  0  0  0  0  0  # atno 14759 bound_to 5102
  150.7441  148.2661  170.2620 LP  0  0  0  0  0  0  0  0  0  0  0  0  # atno 14760 bound_to 5102
  142.6498  123.9960  151.8960 LP  0  0  0  0  0  0  0  0  0  0  0  0  # atno 14769 bound_to 2094
  143.6753  122.9614  152.6339 LP  0  0  0  0  0  0  0  0  0  0  0  0  # atno 14770 bound_to 2094
  145.8809  139.1972  166.8571 LP  0  0  0  0  0  0  0  0  0  0  0  0  # atno 14775 bound_to 4367
  144.5124  139.4219  165.9950 LP  0  0  0  0  0  0  0  0  0  0  0  0  # atno 14776 bound_to 4367
  138.0725  145.5183  190.4909 LP  0  0  0  0  0  0  0  0  0  0  0  0  # atno 14794 bound_to 1124
  137.7032  143.5879  187.6231 LP  0  0  0  0  0  0  0  0  0  0  0  0  # atno 14795 bound_to 1127
  136.6548  144.2663  186.4228 LP  0  0  0  0  0  0  0  0  0  0  0  0  # atno 14796 bound_to 1127
  122.6290  155.1782  186.2407 LP  0  0  0  0  0  0  0  0  0  0  0  0  # atno 14801 bound_to 231 
  121.3413  159.4539  184.8662 LP  0  0  0  0  0  0  0  0  0  0  0  0  # atno 14802 bound_to 234 
  121.5602  158.9945  183.2106 LP  0  0  0  0  0  0  0  0  0  0  0  0  # atno 14803 bound_to 234 
  134.2030  123.9089  151.1676 LP  0  0  0  0  0  0  0  0  0  0  0  0  # atno 14808 bound_to 3033
  110.1509  139.7303  102.2256 LP  0  0  0  0  0  0  0  0  0  0  0  0  # atno 14816 bound_to 266 
  114.1560  139.6990  104.2630 LP  0  0  0  0  0  0  0  0  0  0  0  0  # atno 14817 bound_to 269 
  113.8781  141.1864  105.1058 LP  0  0  0  0  0  0  0  0  0  0  0  0  # atno 14818 bound_to 269 
  122.5853  122.3818  186.7969 LP  0  0  0  0  0  0  0  0  0  0  0  0  # atno 14823 bound_to 4679
  125.5513  120.5271  186.8971 LP  0  0  0  0  0  0  0  0  0  0  0  0  # atno 14824 bound_to 4682
  124.2617  119.9176  187.8796 LP  0  0  0  0  0  0  0  0  0  0  0  0  # atno 14825 bound_to 4682
  134.5838  118.4937  147.0475 LP  0  0  0  0  0  0  0  0  0  0  0  0  # atno 14843 bound_to 3072
  134.5852  120.1215  146.9187 LP  0  0  0  0  0  0  0  0  0  0  0  0  # atno 14844 bound_to 3072
  138.5702  160.4622  185.0656 LP  0  0  0  0  0  0  0  0  0  0  0  0  # atno 14853 bound_to 1430
  137.0789  157.2505  188.0944 LP  0  0  0  0  0  0  0  0  0  0  0  0  # atno 14854 bound_to 1433
  135.7022  157.8652  187.2419 LP  0  0  0  0  0  0  0  0  0  0  0  0  # atno 14855 bound_to 1433
  142.2663  120.9874  148.8234 LP  0  0  0  0  0  0  0  0  0  0  0  0  # atno 14860 bound_to 3104
  140.8617  120.1663  148.9635 LP  0  0  0  0  0  0  0  0  0  0  0  0  # atno 14861 bound_to 3104
  144.4682  133.3818  136.9961 LP  0  0  0  0  0  0  0  0  0  0  0  0  # atno 14880 bound_to 3618
  143.9676  134.7964  137.6404 LP  0  0  0  0  0  0  0  0  0  0  0  0  # atno 14881 bound_to 3618
  149.9955  138.5560  153.7577 LP  0  0  0  0  0  0  0  0  0  0  0  0  # atno 14898 bound_to 379 
  151.1309  137.8454  154.6918 LP  0  0  0  0  0  0  0  0  0  0  0  0  # atno 14899 bound_to 379 
  149.6006  129.6626  151.7333 LP  0  0  0  0  0  0  0  0  0  0  0  0  # atno 14902 bound_to 1482
  148.1671  129.7472  150.9559 LP  0  0  0  0  0  0  0  0  0  0  0  0  # atno 14903 bound_to 1482
  136.2584  116.4979  184.2806 LP  0  0  0  0  0  0  0  0  0  0  0  0  # atno 14912 bound_to 400 
  139.7890  115.3029  183.7531 LP  0  0  0  0  0  0  0  0  0  0  0  0  # atno 14913 bound_to 403 
  139.9933  116.7503  184.6822 LP  0  0  0  0  0  0  0  0  0  0  0  0  # atno 14914 bound_to 403 
  157.6395  130.9017  150.2997 LP  0  0  0  0  0  0  0  0  0  0  0  0  # atno 14925 bound_to 463 
  156.0788  131.0082  150.7682 LP  0  0  0  0  0  0  0  0  0  0  0  0  # atno 14926 bound_to 463 
  117.9007  142.0604  114.2147 LP  0  0  0  0  0  0  0  0  0  0  0  0  # atno 14927 bound_to 464 
  118.0014  144.1016  117.6032 LP  0  0  0  0  0  0  0  0  0  0  0  0  # atno 14928 bound_to 467 
  117.2058  142.8592  118.5107 LP  0  0  0  0  0  0  0  0  0  0  0  0  # atno 14929 bound_to 467 
  116.1576  144.5244  113.2983 LP  0  0  0  0  0  0  0  0  0  0  0  0  # atno 14930 bound_to 470 
  115.2473  145.7245  113.9290 LP  0  0  0  0  0  0  0  0  0  0  0  0  # atno 14931 bound_to 470 

> <Gold.Score>
     Fitness  S(hb_ext) S(vdw_ext)  S(hb_int)    S(int)      intcor
     30.21       4.46      18.77       0.00      -0.07      -0.76

> <Gold.Goldscore.Fitness>
30.2055

> <Gold.Goldscore.Internal.Vdw>
-0.4297

> <Gold.Goldscore.Internal.Torsion>
-0.3970

> <Gold.Goldscore.External.Vdw>
18.7710

> <Gold.Goldscore.Internal.HBond>
0.0000

> <Gold.Goldscore.External.HBond>
4.4635

> <Gold.Goldscore.Internal.Correction>
-0.7585

> <Gold.Goldscore.Hbonds>
donor molecule, donor type, donor heavy atom, donor atom, acceptor molecule, acceptor atom, score
      P1  H   502   530       L1    17  0.01
      P1  H   509   528       L1    17  0.15
      P1  H   512   525       L1    17  0.38
      L1  H    10    23       P1  1482  0.61

> <Gold.Goldscore.Internal.Vdw.Weighted>
-0.4297

> <Gold.Goldscore.Internal.Torsion.Weighted>
-0.3970

> <Gold.Goldscore.External.Vdw.Weighted>
25.8102

> <Gold.Goldscore.Internal.HBond.Weighted>
0.0000

> <Gold.Goldscore.External.HBond.Weighted>
4.4635

> <Gold.Goldscore.Internal.Correction.Weighted>
-0.7585

> <Gold.Rescore>
     Score     S(PLP)   S(hbond)     S(cho)   S(metal)  DE(clash)   DE(tors)     intcor
     26.22     -17.97       2.86       0.00       0.00       0.00       0.17       ----

> <Gold.PLP.Fitness>
26.2217

> <Gold.PLP.PLP>
-17.9736

> <Gold.PLP.part.hbond>
-5.8091

> <Gold.PLP.part.metal>
0.0000

> <Gold.PLP.part.buried>
1.8821

> <Gold.PLP.part.nonpolar>
-19.1896

> <Gold.PLP.part.repulsive>
4.0809

> <Gold.PLP.ligand.clash>
0.0000

> <Gold.PLP.ligand.torsion>
0.1719

> <Gold.PLP.Chemscore.Hbond>
2.8640

> <Gold.PLP.Chemscore.CHOScore>
0.0000

> <Gold.PLP.Chemscore.Metal>
0.0000

> <Gold.Chemscore.Hbonds>
donor molecule, donor type, donor heavy atom, donor atom, acceptor molecule, acceptor atom, score
      L1  H    10    23       P1  1482  1.00
      P1  H   509   528       L1    17  0.52
      P1  H   512   525       L1    17  1.00

> <Gold.PLP.Chemscore.Internal.Correction>
   9.000000E+99

