#       Name:                CT1002167954
#       Creating user name   hitesit
#       Creation time:       Sun Apr 16 22:52:05 2023


#       File generated by GOLD software.
#

@<TRIPOS>MOLECULE
CT1002167954|ligand_prepared|mol2|1|dock5
    29    30     1
SMALL
NO_CHARGES


@<TRIPOS>ATOM
      1 C1         113.4043 242.1004 324.0922 C.3            1 RES1               0.0000
      2 C2         114.1975 242.8422 322.9970 C.ar           1 RES1               0.0000
      3 C3         112.0423 242.7837 324.1719 C.2            1 RES1               0.0000
      4 C4         113.3431 240.6397 323.6594 C.2            1 RES1               0.0000
      5 C5         114.0650 242.1574 325.4893 C.3            1 RES1               0.0000
      6 C6         113.9848 242.5567 321.6517 C.ar           1 RES1               0.0000
      7 C7         115.1417 243.8145 323.3159 C.ar           1 RES1               0.0000
      8 N8         110.9707 242.1193 323.6522 N.am           1 RES1               0.0000
      9 O9         111.9170 243.9054 324.6478 O.2            1 RES1               0.0000
     10 N10        112.1176 240.1147 323.3427 N.am           1 RES1               0.0000
     11 O11        114.3472 239.9435 323.5736 O.2            1 RES1               0.0000
     12 C12        113.4391 241.2120 326.5025 C.3            1 RES1               0.0000
     13 C13        114.6883 243.2213 320.6608 C.ar           1 RES1               0.0000
     14 C14        115.8443 244.4778 322.3235 C.ar           1 RES1               0.0000
     15 C15        110.9327 240.7968 323.2900 C.2            1 RES1               0.0000
     16 C16        115.6180 244.1825 320.9959 C.ar           1 RES1               0.0000
     17 O17        109.8804 240.2680 322.9432 O.2            1 RES1               0.0000
     18 H18        115.1291 241.9114 325.3870 H              1 RES1               0.0000
     19 H19        113.9933 243.1830 325.8722 H              1 RES1               0.0000
     20 H20        113.2589 241.8017 321.3689 H              1 RES1               0.0000
     21 H21        115.3370 244.0625 324.3537 H              1 RES1               0.0000
     22 H22        110.1189 242.6554 323.5207 H              1 RES1               0.0000
     23 H23        112.0858 239.1234 323.1265 H              1 RES1               0.0000
     24 H24        113.9398 241.2919 327.4651 H              1 RES1               0.0000
     25 H25        112.3862 241.4443 326.6478 H              1 RES1               0.0000
     26 H26        113.5152 240.1802 326.1655 H              1 RES1               0.0000
     27 H27        114.5075 242.9843 319.6176 H              1 RES1               0.0000
     28 H28        116.5756 245.2330 322.5918 H              1 RES1               0.0000
     29 H29        116.1687 244.7032 320.2195 H              1 RES1               0.0000
@<TRIPOS>BOND
    1    1    2 1     
    2    1    3 1     
    3    1    4 1     
    4    1    5 1     
    5    2    6 ar    
    6    2    7 ar    
    7    3    8 1     
    8    3    9 2     
    9    4   10 1     
   10    4   11 2     
   11    5   12 1     
   12    5   18 1     
   13    5   19 1     
   14    6   13 ar    
   15    6   20 1     
   16    7   14 ar    
   17    7   21 1     
   18    8   15 1     
   19    8   22 1     
   20   10   15 1     
   21   10   23 1     
   22   12   24 1     
   23   12   25 1     
   24   12   26 1     
   25   13   16 ar    
   26   13   27 1     
   27   14   16 ar    
   28   14   28 1     
   29   15   17 2     
   30   16   29 1     
@<TRIPOS>SUBSTRUCTURE
      1 RES1           1
@<TRIPOS>SET
DONOR_HYDROGENS      STATIC     ATOMS    <user>   **** ""
2 22 23
ATOM$RED        STATIC     ATOMS    COLORGROUP SYSTEM
2 22 23
@<TRIPOS>COMMENT
> <Gold.Version>
2022.3.0

> <Gold.Id.Protein>
unknown|4uh5_clean|pdb

> <Gold.Protein.RotatedTorsions>
[ 8487 8482 8483 8484 ] final  -93.69 input   34.95 | X-H torsion
[ 8511 8504 8505 8506 ] final   67.60 input  102.00 | X-H torsion
[ 9055 9051 9052 9053 ] final -101.16 input   39.76 | X-H torsion
[ 9089 9075 9076 9077 ] final  -99.31 input   37.88 | X-H torsion
[ 9133 9121 9122 9123 ] final  -90.96 input   94.46 | X-H torsion
[ 9141 9132 9131 9129 ] final    3.55 input   60.01 | X-H torsion
[ 9170 9159 9160 9161 ] final -130.04 input   86.63 | X-H torsion
[ 9251 9236 9237 9238 ] final -168.01 input  127.08 | X-H torsion
[ 3623 3616 3617 3618 ] final   77.26 input   94.27 | X-H torsion
[ 3649 3645 3646 3647 ] final -159.40 input   86.49 | X-H torsion
[ 9037 9031 9032 9033 ] final -124.03 input   26.45 | X-H torsion
[ 9196 9189 9190 9191 ] final    1.82 input  130.40 | X-H torsion
[ 4943 4938 4937 4934 ] final -172.35 input   60.00 | X-H torsion
[ 9041 9036 9035 9032 ] final  114.27 input   59.99 | X-H torsion
[ 9007 8996 8997 8998 ] final    6.17 input   49.09 | X-H torsion
[ 8541 8535 8536 8537 ] final  -27.25 input   50.11 | X-H torsion
[ 4959 4954 4955 4956 ] final -128.43 input   27.83 | X-H torsion
[ 8387 8378 8377 8375 ] final  175.13 input   59.99 | X-H torsion
[ 5633 5624 5625 5626 ] final  -29.53 input   44.71 | X-H torsion
[ 5606 5601 5600 5597 ] final  -81.18 input   59.98 | X-H torsion
[ 5665 5657 5658 5659 ] final  -36.06 input  114.33 | X-H torsion
[ 5703 5695 5696 5697 ] final   35.87 input   57.04 | X-H torsion
[ 5747 5736 5737 5738 ] final  116.28 input   30.88 | X-H torsion
[ 5797 5785 5786 5787 ] final -126.43 input   92.04 | X-H torsion
[ 9409 9397 9398 9399 ] final -172.09 input  123.68 | X-H torsion
[ 9376 9352 9353 9354 ] final   -9.57 input  105.06 | X-H torsion
[ 11109 11102 11103 11104 ] final -158.64 input   57.11 | X-H torsion
[ 8379 8367 8368 8369 ] final   64.88 input   85.33 | X-H torsion
[ 5602 5596 5597 5598 ] final   49.35 input  106.64 | X-H torsion
[ 13518 8422 8421 8420 ] final   -6.70 input    0.00 | X-H torsion
[ 13521 8459 8458 8457 ] final    8.05 input   -0.00 | X-H torsion
[ 13525 8999 8998 8997 ] final  -24.93 input   -0.00 | X-H torsion
[ 13528 9054 9053 9052 ] final   42.79 input   -0.00 | X-H torsion
[ 13531 9078 9077 9076 ] final  175.50 input    0.00 | X-H torsion
[ 13534 9124 9123 9122 ] final  156.54 input   -0.00 | X-H torsion
[ 13539 9162 9161 9160 ] final  -41.41 input   -0.00 | X-H torsion
[ 13553 9034 9033 9032 ] final   59.44 input    0.00 | X-H torsion
[ 13555 8404 8403 8402 ] final   64.72 input    0.00 | X-H torsion
[ 13562 8485 8484 8483 ] final   -9.91 input    0.00 | X-H torsion
[ 13564 8507 8506 8505 ] final  173.34 input   -0.00 | X-H torsion
[ 13571 4957 4956 4955 ] final   -6.04 input   -0.00 | X-H torsion
[ 13573 5599 5598 5597 ] final -135.06 input   -0.00 | X-H torsion
[ 13582 5698 5697 5696 ] final -114.80 input   -0.00 | X-H torsion
[ 13584 9239 9238 9237 ] final   70.06 input    0.00 | X-H torsion
[ 13588 5627 5626 5625 ] final  112.49 input    0.00 | X-H torsion
[ 13596 8370 8369 8368 ] final  -88.13 input   -0.00 | X-H torsion
[ 13601 9355 9354 9353 ] final   41.64 input   -0.00 | X-H torsion
[ 13603 9400 9399 9398 ] final  -26.10 input   -0.00 | X-H torsion

> <Gold.Protein.ActiveResidues>
 MET341  TRP414  CYS420  VAL421  GLY422  LEU429  LEU460  SER462  ALA463  ILE464 
 SER482  GLN483  LEU484  ILE485  ARG486  TYR487  ASP500  ALA502  ASN503  TRP566 
 TYR567  GLY568  LEU569  PRO570  ALA571  VAL572  SER573  ASN574  PRO588  PHE589 
 SER590  GLY591  TRP592  TYR593  MET594  GLY595  GLU597  ILE598  ARG601  ASP602 
 ASP605  ARG608  ILE653  VAL654  TRP683  PRO687  PHE696  HIS697  TYR711  HEM750 
 H4B760 

> <Gold.Protein.RotatedAtoms>
  122.2525  248.4451  327.3132 H   0  0  0  0  0  0  0  0  0  0  0  0  # atno 3623 bound_to 3616
  124.4643  247.6733  326.7423 H   0  0  0  0  0  0  0  0  0  0  0  0  # atno 3649 bound_to 3645
  126.0346  247.6179  317.4348 H   0  0  0  0  0  0  0  0  0  0  0  0  # atno 4943 bound_to 4938
  124.0409  247.9600  313.4633 H   0  0  0  0  0  0  0  0  0  0  0  0  # atno 4959 bound_to 4954
  106.7740  244.9257  316.7905 H   0  0  0  0  0  0  0  0  0  0  0  0  # atno 5602 bound_to 5596
  105.8812  244.6514  319.1308 H   0  0  0  0  0  0  0  0  0  0  0  0  # atno 5606 bound_to 5601
  108.5295  245.1904  316.5800 H   0  0  0  0  0  0  0  0  0  0  0  0  # atno 5633 bound_to 5624
  110.8935  243.4174  315.5494 H   0  0  0  0  0  0  0  0  0  0  0  0  # atno 5665 bound_to 5657
  111.9618  241.5956  315.2842 H   0  0  0  0  0  0  0  0  0  0  0  0  # atno 5703 bound_to 5695
  109.4477  239.5947  315.5726 H   0  0  0  0  0  0  0  0  0  0  0  0  # atno 5747 bound_to 5736
  108.5170  236.5286  317.2129 H   0  0  0  0  0  0  0  0  0  0  0  0  # atno 5797 bound_to 5785
  114.8446  234.3238  319.0003 H   0  0  0  0  0  0  0  0  0  0  0  0  # atno 8379 bound_to 8367
  112.6566  239.4645  320.2580 H   0  0  0  0  0  0  0  0  0  0  0  0  # atno 8387 bound_to 8378
  116.4757  243.6552  318.1447 H   0  0  0  0  0  0  0  0  0  0  0  0  # atno 8487 bound_to 8482
  115.6407  247.0858  317.1615 H   0  0  0  0  0  0  0  0  0  0  0  0  # atno 8511 bound_to 8504
  111.7674  248.7469  317.4473 H   0  0  0  0  0  0  0  0  0  0  0  0  # atno 8541 bound_to 8535
  115.5745  248.9052  314.8051 H   0  0  0  0  0  0  0  0  0  0  0  0  # atno 9007 bound_to 8996
  118.3770  248.1805  315.8453 H   0  0  0  0  0  0  0  0  0  0  0  0  # atno 9037 bound_to 9031
  120.4315  244.3604  313.7035 H   0  0  0  0  0  0  0  0  0  0  0  0  # atno 9041 bound_to 9036
  120.9104  245.4062  316.1492 H   0  0  0  0  0  0  0  0  0  0  0  0  # atno 9055 bound_to 9051
  122.1711  243.3424  318.4320 H   0  0  0  0  0  0  0  0  0  0  0  0  # atno 9089 bound_to 9075
  122.4229  241.1151  320.8125 H   0  0  0  0  0  0  0  0  0  0  0  0  # atno 9133 bound_to 9121
  114.8753  239.7003  321.9793 H   0  0  0  0  0  0  0  0  0  0  0  0  # atno 9141 bound_to 9132
  122.6498  240.3936  323.9449 H   0  0  0  0  0  0  0  0  0  0  0  0  # atno 9170 bound_to 9159
  122.0145  238.4783  327.3229 H   0  0  0  0  0  0  0  0  0  0  0  0  # atno 9196 bound_to 9189
  118.8234  239.3845  328.8195 H   0  0  0  0  0  0  0  0  0  0  0  0  # atno 9251 bound_to 9236
  114.0747  236.3385  330.5146 H   0  0  0  0  0  0  0  0  0  0  0  0  # atno 9376 bound_to 9352
  112.5173  237.9469  328.0534 H   0  0  0  0  0  0  0  0  0  0  0  0  # atno 9409 bound_to 9397
  126.7135  237.9198  323.2839 H   0  0  0  0  0  0  0  0  0  0  0  0  # atno 11109 bound_to 11102
  115.9724  239.5049  315.6102 LP  0  0  0  0  0  0  0  0  0  0  0  0  # atno 13518 bound_to 8422
  115.6572  240.4595  317.0207 LP  0  0  0  0  0  0  0  0  0  0  0  0  # atno 13519 bound_to 8422
  119.0225  243.4269  317.7417 LP  0  0  0  0  0  0  0  0  0  0  0  0  # atno 13521 bound_to 8459
  118.0632  244.7696  317.2152 LP  0  0  0  0  0  0  0  0  0  0  0  0  # atno 13522 bound_to 8459
  115.4411  242.7147  317.0982 LP  0  0  0  0  0  0  0  0  0  0  0  0  # atno 13523 bound_to 8482
  114.6551  245.6588  317.3785 LP  0  0  0  0  0  0  0  0  0  0  0  0  # atno 13524 bound_to 8504
  116.2260  248.1313  316.5260 LP  0  0  0  0  0  0  0  0  0  0  0  0  # atno 13525 bound_to 8999
  116.9907  246.5950  316.2911 LP  0  0  0  0  0  0  0  0  0  0  0  0  # atno 13526 bound_to 8999
  120.2694  245.1665  317.7606 LP  0  0  0  0  0  0  0  0  0  0  0  0  # atno 13527 bound_to 9051
  122.6750  242.8793  315.8814 LP  0  0  0  0  0  0  0  0  0  0  0  0  # atno 13528 bound_to 9054
  121.8606  241.7842  316.9480 LP  0  0  0  0  0  0  0  0  0  0  0  0  # atno 13529 bound_to 9054
  123.7243  243.5792  319.2001 LP  0  0  0  0  0  0  0  0  0  0  0  0  # atno 13530 bound_to 9075
  122.1772  242.2485  322.3974 LP  0  0  0  0  0  0  0  0  0  0  0  0  # atno 13531 bound_to 9078
  122.8215  243.2550  321.1437 LP  0  0  0  0  0  0  0  0  0  0  0  0  # atno 13532 bound_to 9078
  122.6187  239.3966  320.5514 LP  0  0  0  0  0  0  0  0  0  0  0  0  # atno 13533 bound_to 9121
  124.3516  239.5533  324.1645 LP  0  0  0  0  0  0  0  0  0  0  0  0  # atno 13534 bound_to 9124
  123.8557  238.6710  322.7589 LP  0  0  0  0  0  0  0  0  0  0  0  0  # atno 13535 bound_to 9124
  114.8697  238.2227  321.2987 LP  0  0  0  0  0  0  0  0  0  0  0  0  # atno 13536 bound_to 9132
  115.1547  239.5452  320.3841 LP  0  0  0  0  0  0  0  0  0  0  0  0  # atno 13537 bound_to 9132
  121.0372  240.4223  324.6190 LP  0  0  0  0  0  0  0  0  0  0  0  0  # atno 13538 bound_to 9159
  120.0055  239.5787  326.6878 LP  0  0  0  0  0  0  0  0  0  0  0  0  # atno 13539 bound_to 9162
  119.9545  237.9455  326.1132 LP  0  0  0  0  0  0  0  0  0  0  0  0  # atno 13540 bound_to 9162
  118.4224  237.7396  328.3830 LP  0  0  0  0  0  0  0  0  0  0  0  0  # atno 13541 bound_to 9236
  122.6335  250.0986  327.7395 LP  0  0  0  0  0  0  0  0  0  0  0  0  # atno 13550 bound_to 3616
  124.4484  249.2913  326.0884 LP  0  0  0  0  0  0  0  0  0  0  0  0  # atno 13551 bound_to 3645
  119.6295  247.9948  314.6460 LP  0  0  0  0  0  0  0  0  0  0  0  0  # atno 13552 bound_to 9031
  121.5812  247.8532  315.8156 LP  0  0  0  0  0  0  0  0  0  0  0  0  # atno 13553 bound_to 9034
  122.3950  246.4547  315.1976 LP  0  0  0  0  0  0  0  0  0  0  0  0  # atno 13554 bound_to 9034
  121.2261  237.7073  317.1089 LP  0  0  0  0  0  0  0  0  0  0  0  0  # atno 13555 bound_to 8404
  120.0262  238.4687  318.0991 LP  0  0  0  0  0  0  0  0  0  0  0  0  # atno 13556 bound_to 8404
  123.1521  237.6244  326.3026 LP  0  0  0  0  0  0  0  0  0  0  0  0  # atno 13557 bound_to 9189
  126.5897  246.4466  316.4514 LP  0  0  0  0  0  0  0  0  0  0  0  0  # atno 13558 bound_to 4938
  125.0538  246.3935  317.0034 LP  0  0  0  0  0  0  0  0  0  0  0  0  # atno 13559 bound_to 4938
  120.6315  245.9677  313.8597 LP  0  0  0  0  0  0  0  0  0  0  0  0  # atno 13560 bound_to 9036
  119.5046  245.3780  312.8356 LP  0  0  0  0  0  0  0  0  0  0  0  0  # atno 13561 bound_to 9036
  113.3642  244.4690  315.6348 LP  0  0  0  0  0  0  0  0  0  0  0  0  # atno 13562 bound_to 8485
  112.6203  245.6725  316.6338 LP  0  0  0  0  0  0  0  0  0  0  0  0  # atno 13563 bound_to 8485
  113.5552  249.4987  315.2141 LP  0  0  0  0  0  0  0  0  0  0  0  0  # atno 13564 bound_to 8507
  114.8701  249.0939  316.2663 LP  0  0  0  0  0  0  0  0  0  0  0  0  # atno 13565 bound_to 8507
  115.9304  250.3716  313.9235 LP  0  0  0  0  0  0  0  0  0  0  0  0  # atno 13566 bound_to 8996
  112.2719  247.4390  316.4087 LP  0  0  0  0  0  0  0  0  0  0  0  0  # atno 13567 bound_to 8535
  122.4677  247.2352  313.6828 LP  0  0  0  0  0  0  0  0  0  0  0  0  # atno 13570 bound_to 4954
  120.7428  248.1293  313.7549 LP  0  0  0  0  0  0  0  0  0  0  0  0  # atno 13571 bound_to 4957
  119.7734  249.5441  313.5130 LP  0  0  0  0  0  0  0  0  0  0  0  0  # atno 13572 bound_to 4957
  110.6465  247.0742  317.4309 LP  0  0  0  0  0  0  0  0  0  0  0  0  # atno 13573 bound_to 5599
  109.8373  247.5041  318.9007 LP  0  0  0  0  0  0  0  0  0  0  0  0  # atno 13574 bound_to 5599
  111.9521  238.1681  320.9442 LP  0  0  0  0  0  0  0  0  0  0  0  0  # atno 13575 bound_to 8378
  111.2211  238.9365  319.7025 LP  0  0  0  0  0  0  0  0  0  0  0  0  # atno 13576 bound_to 8378
  108.9383  245.0571  318.2764 LP  0  0  0  0  0  0  0  0  0  0  0  0  # atno 13581 bound_to 5624
  111.7786  238.9564  317.6800 LP  0  0  0  0  0  0  0  0  0  0  0  0  # atno 13582 bound_to 5698
  111.5539  240.6206  317.2558 LP  0  0  0  0  0  0  0  0  0  0  0  0  # atno 13583 bound_to 5698
  114.3832  238.7364  326.7866 LP  0  0  0  0  0  0  0  0  0  0  0  0  # atno 13584 bound_to 9239
  114.4404  237.6105  328.1016 LP  0  0  0  0  0  0  0  0  0  0  0  0  # atno 13585 bound_to 9239
  106.7831  244.6388  320.4851 LP  0  0  0  0  0  0  0  0  0  0  0  0  # atno 13586 bound_to 5601
  107.4796  244.3624  319.0342 LP  0  0  0  0  0  0  0  0  0  0  0  0  # atno 13587 bound_to 5601
  108.8329  243.6182  314.5217 LP  0  0  0  0  0  0  0  0  0  0  0  0  # atno 13588 bound_to 5627
  109.0427  242.4555  315.7883 LP  0  0  0  0  0  0  0  0  0  0  0  0  # atno 13589 bound_to 5627
  112.1504  244.5029  315.0116 LP  0  0  0  0  0  0  0  0  0  0  0  0  # atno 13590 bound_to 5657
  111.5348  241.4799  313.5934 LP  0  0  0  0  0  0  0  0  0  0  0  0  # atno 13591 bound_to 5695
  110.3587  238.0986  315.6204 LP  0  0  0  0  0  0  0  0  0  0  0  0  # atno 13592 bound_to 5736
  107.8671  236.7536  318.8161 LP  0  0  0  0  0  0  0  0  0  0  0  0  # atno 13593 bound_to 5785
  116.9025  236.4498  318.8113 LP  0  0  0  0  0  0  0  0  0  0  0  0  # atno 13596 bound_to 8370
  117.6397  234.9677  319.3212 LP  0  0  0  0  0  0  0  0  0  0  0  0  # atno 13597 bound_to 8370
  112.5424  236.5382  329.0840 LP  0  0  0  0  0  0  0  0  0  0  0  0  # atno 13598 bound_to 9397
  110.1267  237.5625  330.4241 LP  0  0  0  0  0  0  0  0  0  0  0  0  # atno 13601 bound_to 9355
  110.3178  236.0244  329.6511 LP  0  0  0  0  0  0  0  0  0  0  0  0  # atno 13602 bound_to 9355
  108.9840  235.2469  327.4943 LP  0  0  0  0  0  0  0  0  0  0  0  0  # atno 13603 bound_to 9400
  109.4778  233.5892  327.5854 LP  0  0  0  0  0  0  0  0  0  0  0  0  # atno 13604 bound_to 9400
  114.7208  237.7826  331.2568 LP  0  0  0  0  0  0  0  0  0  0  0  0  # atno 13608 bound_to 9352

> <Gold.Score>
     Fitness  S(hb_ext) S(vdw_ext)  S(hb_int)    S(int)      intcor
     39.40       0.68      28.25       0.00      -0.12      -0.77

> <Gold.Goldscore.Fitness>
39.4026

> <Gold.Goldscore.Internal.Vdw>
-0.3237

> <Gold.Goldscore.Internal.Torsion>
-0.5631

> <Gold.Goldscore.External.Vdw>
28.2511

> <Gold.Goldscore.Internal.HBond>
0.0000

> <Gold.Goldscore.External.HBond>
0.6755

> <Gold.Goldscore.Internal.Correction>
-0.7686

> <Gold.Goldscore.Hbonds>
donor molecule, donor type, donor heavy atom, donor atom, acceptor molecule, acceptor atom, score
      P1  H  9132  9141       L1    11  0.34

> <Gold.Goldscore.Internal.Vdw.Weighted>
-0.3237

> <Gold.Goldscore.Internal.Torsion.Weighted>
-0.5631

> <Gold.Goldscore.External.Vdw.Weighted>
38.8453

> <Gold.Goldscore.Internal.HBond.Weighted>
0.0000

> <Gold.Goldscore.External.HBond.Weighted>
0.6755

> <Gold.Goldscore.Internal.Correction.Weighted>
-0.7686

> <Gold.Rescore>
     Score     S(PLP)   S(hbond)     S(cho)   S(metal)  DE(clash)   DE(tors)     intcor
     31.60     -29.91       1.25       0.00       0.00       0.00       1.03       ----

> <Gold.PLP.Fitness>
31.6027

> <Gold.PLP.PLP>
-29.9097

> <Gold.PLP.part.hbond>
-5.2496

> <Gold.PLP.part.metal>
0.0000

> <Gold.PLP.part.buried>
0.4877

> <Gold.PLP.part.nonpolar>
-26.4971

> <Gold.PLP.part.repulsive>
1.3668

> <Gold.PLP.ligand.clash>
0.0000

> <Gold.PLP.ligand.torsion>
1.0326

> <Gold.PLP.Chemscore.Hbond>
1.2527

> <Gold.PLP.Chemscore.CHOScore>
0.0000

> <Gold.PLP.Chemscore.Metal>
0.0000

> <Gold.Chemscore.Hbonds>
donor molecule, donor type, donor heavy atom, donor atom, acceptor molecule, acceptor atom, score
      P1  H  9132  9141       L1    11  1.00

> <Gold.PLP.Chemscore.Internal.Correction>
   9.000000E+99

#       Name:                CT1002167954
#       Creating user name   hitesit
#       Creation time:       Sun Apr 16 22:52:07 2023


#       File generated by GOLD software.
#

@<TRIPOS>MOLECULE
CT1002167954|ligand_prepared|mol2|1|dock7
    29    30     1
SMALL
NO_CHARGES


@<TRIPOS>ATOM
      1 C1         117.6582 245.3705 321.9084 C.3            1 RES1               0.0000
      2 C2         116.2796 245.7479 322.4879 C.ar           1 RES1               0.0000
      3 C3         117.4145 244.9511 320.4616 C.2            1 RES1               0.0000
      4 C4         118.5369 246.6074 322.0580 C.2            1 RES1               0.0000
      5 C5         118.3485 244.2015 322.6490 C.3            1 RES1               0.0000
      6 C6         115.3437 244.7628 322.7889 C.ar           1 RES1               0.0000
      7 C7         115.9309 247.0741 322.7290 C.ar           1 RES1               0.0000
      8 N8         117.7997 245.8156 319.4798 N.am           1 RES1               0.0000
      9 O9         116.8570 243.8955 320.1876 O.2            1 RES1               0.0000
     10 N10        118.9644 247.2332 320.9163 N.am           1 RES1               0.0000
     11 O11        118.8493 247.0555 323.1543 O.2            1 RES1               0.0000
     12 C12        119.7797 243.9513 322.2003 C.3            1 RES1               0.0000
     13 C13        114.1052 245.0914 323.3147 C.ar           1 RES1               0.0000
     14 C14        114.6917 247.4005 323.2546 C.ar           1 RES1               0.0000
     15 C15        118.6104 246.9114 319.6344 C.2            1 RES1               0.0000
     16 C16        113.7785 246.4102 323.5483 C.ar           1 RES1               0.0000
     17 O17        118.9923 247.5555 318.6616 O.2            1 RES1               0.0000
     18 H18        118.3482 244.4159 323.7248 H              1 RES1               0.0000
     19 H19        117.7634 243.2875 322.4890 H              1 RES1               0.0000
     20 H20        115.5820 243.7197 322.6095 H              1 RES1               0.0000
     21 H21        116.6330 247.8698 322.5046 H              1 RES1               0.0000
     22 H22        117.4529 245.6304 318.5440 H              1 RES1               0.0000
     23 H23        119.6062 248.0110 321.0329 H              1 RES1               0.0000
     24 H24        120.2171 243.1213 322.7511 H              1 RES1               0.0000
     25 H25        119.8149 243.7102 321.1398 H              1 RES1               0.0000
     26 H26        120.3961 244.8319 322.3683 H              1 RES1               0.0000
     27 H27        113.3895 244.3084 323.5428 H              1 RES1               0.0000
     28 H28        114.4386 248.4398 323.4363 H              1 RES1               0.0000
     29 H29        112.8084 246.6674 323.9605 H              1 RES1               0.0000
@<TRIPOS>BOND
    1    1    2 1     
    2    1    3 1     
    3    1    4 1     
    4    1    5 1     
    5    2    6 ar    
    6    2    7 ar    
    7    3    8 1     
    8    3    9 2     
    9    4   10 1     
   10    4   11 2     
   11    5   12 1     
   12    5   18 1     
   13    5   19 1     
   14    6   13 ar    
   15    6   20 1     
   16    7   14 ar    
   17    7   21 1     
   18    8   15 1     
   19    8   22 1     
   20   10   15 1     
   21   10   23 1     
   22   12   24 1     
   23   12   25 1     
   24   12   26 1     
   25   13   16 ar    
   26   13   27 1     
   27   14   16 ar    
   28   14   28 1     
   29   15   17 2     
   30   16   29 1     
@<TRIPOS>SUBSTRUCTURE
      1 RES1           1
@<TRIPOS>SET
DONOR_HYDROGENS      STATIC     ATOMS    <user>   **** ""
2 22 23
ATOM$RED        STATIC     ATOMS    COLORGROUP SYSTEM
2 22 23
@<TRIPOS>COMMENT
> <Gold.Version>
2022.3.0

> <Gold.Id.Protein>
unknown|4uh5_clean|pdb

> <Gold.Protein.RotatedTorsions>
[ 8487 8482 8483 8484 ] final  158.99 input   34.95 | X-H torsion
[ 8511 8504 8505 8506 ] final    0.88 input  102.00 | X-H torsion
[ 9055 9051 9052 9053 ] final  123.15 input   39.76 | X-H torsion
[ 9089 9075 9076 9077 ] final  -29.72 input   37.88 | X-H torsion
[ 9133 9121 9122 9123 ] final  154.94 input   94.46 | X-H torsion
[ 9141 9132 9131 9129 ] final -140.68 input   60.01 | X-H torsion
[ 9170 9159 9160 9161 ] final  -74.59 input   86.63 | X-H torsion
[ 9251 9236 9237 9238 ] final  -40.22 input  127.08 | X-H torsion
[ 3623 3616 3617 3618 ] final   57.46 input   94.27 | X-H torsion
[ 3649 3645 3646 3647 ] final -136.99 input   86.49 | X-H torsion
[ 9037 9031 9032 9033 ] final -169.21 input   26.45 | X-H torsion
[ 9196 9189 9190 9191 ] final  167.25 input  130.40 | X-H torsion
[ 4943 4938 4937 4934 ] final   54.21 input   60.00 | X-H torsion
[ 9041 9036 9035 9032 ] final  -24.13 input   59.99 | X-H torsion
[ 9007 8996 8997 8998 ] final   93.28 input   49.09 | X-H torsion
[ 8541 8535 8536 8537 ] final  -80.22 input   50.11 | X-H torsion
[ 4959 4954 4955 4956 ] final -123.99 input   27.83 | X-H torsion
[ 8387 8378 8377 8375 ] final   32.94 input   59.99 | X-H torsion
[ 5633 5624 5625 5626 ] final  -44.66 input   44.71 | X-H torsion
[ 5606 5601 5600 5597 ] final -121.71 input   59.98 | X-H torsion
[ 5665 5657 5658 5659 ] final   27.48 input  114.33 | X-H torsion
[ 5703 5695 5696 5697 ] final -148.42 input   57.04 | X-H torsion
[ 5747 5736 5737 5738 ] final -144.88 input   30.88 | X-H torsion
[ 5797 5785 5786 5787 ] final   82.23 input   92.04 | X-H torsion
[ 9409 9397 9398 9399 ] final  108.36 input  123.68 | X-H torsion
[ 9376 9352 9353 9354 ] final  -70.70 input  105.06 | X-H torsion
[ 11109 11102 11103 11104 ] final   28.52 input   57.11 | X-H torsion
[ 8379 8367 8368 8369 ] final  -24.76 input   85.33 | X-H torsion
[ 5602 5596 5597 5598 ] final -161.45 input  106.64 | X-H torsion
[ 13518 8422 8421 8420 ] final   43.25 input    0.00 | X-H torsion
[ 13521 8459 8458 8457 ] final   91.13 input   -0.00 | X-H torsion
[ 13525 8999 8998 8997 ] final -108.74 input   -0.00 | X-H torsion
[ 13528 9054 9053 9052 ] final -102.12 input   -0.00 | X-H torsion
[ 13531 9078 9077 9076 ] final  -91.93 input    0.00 | X-H torsion
[ 13534 9124 9123 9122 ] final -179.77 input   -0.00 | X-H torsion
[ 13539 9162 9161 9160 ] final   47.05 input   -0.00 | X-H torsion
[ 13553 9034 9033 9032 ] final -118.49 input    0.00 | X-H torsion
[ 13555 8404 8403 8402 ] final   -9.70 input    0.00 | X-H torsion
[ 13562 8485 8484 8483 ] final  115.94 input    0.00 | X-H torsion
[ 13564 8507 8506 8505 ] final  -39.64 input   -0.00 | X-H torsion
[ 13571 4957 4956 4955 ] final   47.68 input   -0.00 | X-H torsion
[ 13573 5599 5598 5597 ] final  100.50 input   -0.00 | X-H torsion
[ 13582 5698 5697 5696 ] final  -13.03 input   -0.00 | X-H torsion
[ 13584 9239 9238 9237 ] final -155.19 input    0.00 | X-H torsion
[ 13588 5627 5626 5625 ] final  131.63 input    0.00 | X-H torsion
[ 13596 8370 8369 8368 ] final  157.13 input   -0.00 | X-H torsion
[ 13601 9355 9354 9353 ] final  141.45 input   -0.00 | X-H torsion
[ 13603 9400 9399 9398 ] final  -58.34 input   -0.00 | X-H torsion

> <Gold.Protein.ActiveResidues>
 MET341  TRP414  CYS420  VAL421  GLY422  LEU429  LEU460  SER462  ALA463  ILE464 
 SER482  GLN483  LEU484  ILE485  ARG486  TYR487  ASP500  ALA502  ASN503  TRP566 
 TYR567  GLY568  LEU569  PRO570  ALA571  VAL572  SER573  ASN574  PRO588  PHE589 
 SER590  GLY591  TRP592  TYR593  MET594  GLY595  GLU597  ILE598  ARG601  ASP602 
 ASP605  ARG608  ILE653  VAL654  TRP683  PRO687  PHE696  HIS697  TYR711  HEM750 
 H4B760 

> <Gold.Protein.RotatedAtoms>
  122.4083  248.5289  327.0643 H   0  0  0  0  0  0  0  0  0  0  0  0  # atno 3623 bound_to 3616
  124.7246  247.8160  326.9118 H   0  0  0  0  0  0  0  0  0  0  0  0  # atno 3649 bound_to 3645
  126.4343  246.2969  316.4096 H   0  0  0  0  0  0  0  0  0  0  0  0  # atno 4943 bound_to 4938
  124.0205  248.0105  313.5043 H   0  0  0  0  0  0  0  0  0  0  0  0  # atno 4959 bound_to 4954
  105.7565  246.2951  316.7323 H   0  0  0  0  0  0  0  0  0  0  0  0  # atno 5602 bound_to 5596
  105.8213  244.7306  319.7716 H   0  0  0  0  0  0  0  0  0  0  0  0  # atno 5606 bound_to 5601
  108.6110  245.4077  316.6092 H   0  0  0  0  0  0  0  0  0  0  0  0  # atno 5633 bound_to 5624
  111.7893  243.1829  315.5860 H   0  0  0  0  0  0  0  0  0  0  0  0  # atno 5665 bound_to 5657
  111.5930  241.4624  313.5613 H   0  0  0  0  0  0  0  0  0  0  0  0  # atno 5703 bound_to 5695
  110.5960  239.1040  316.1036 H   0  0  0  0  0  0  0  0  0  0  0  0  # atno 5747 bound_to 5736
  108.2019  236.4887  318.8833 H   0  0  0  0  0  0  0  0  0  0  0  0  # atno 5797 bound_to 5785
  115.7738  233.4997  319.0509 H   0  0  0  0  0  0  0  0  0  0  0  0  # atno 8379 bound_to 8367
  111.6410  238.1068  320.7706 H   0  0  0  0  0  0  0  0  0  0  0  0  # atno 8387 bound_to 8378
  116.4719  242.7771  317.0283 H   0  0  0  0  0  0  0  0  0  0  0  0  # atno 8487 bound_to 8482
  115.0763  246.7137  316.4614 H   0  0  0  0  0  0  0  0  0  0  0  0  # atno 8511 bound_to 8504
  112.4816  248.8068  317.1323 H   0  0  0  0  0  0  0  0  0  0  0  0  # atno 8541 bound_to 8535
  115.6212  250.0820  315.1171 H   0  0  0  0  0  0  0  0  0  0  0  0  # atno 9007 bound_to 8996
  118.1427  247.9381  315.2617 H   0  0  0  0  0  0  0  0  0  0  0  0  # atno 9037 bound_to 9031
  120.4365  246.1104  313.6813 H   0  0  0  0  0  0  0  0  0  0  0  0  # atno 9041 bound_to 9036
  120.4529  245.7970  317.6845 H   0  0  0  0  0  0  0  0  0  0  0  0  # atno 9055 bound_to 9051
  122.3035  243.5667  319.4093 H   0  0  0  0  0  0  0  0  0  0  0  0  # atno 9089 bound_to 9075
  121.8495  239.8645  320.2429 H   0  0  0  0  0  0  0  0  0  0  0  0  # atno 9133 bound_to 9121
  114.9482  238.2736  320.9156 H   0  0  0  0  0  0  0  0  0  0  0  0  # atno 9141 bound_to 9132
  122.2079  239.6995  323.9107 H   0  0  0  0  0  0  0  0  0  0  0  0  # atno 9170 bound_to 9159
  123.2796  237.5773  326.4822 H   0  0  0  0  0  0  0  0  0  0  0  0  # atno 9196 bound_to 9189
  118.1048  237.9819  329.0409 H   0  0  0  0  0  0  0  0  0  0  0  0  # atno 9251 bound_to 9236
  113.9304  236.5086  331.3853 H   0  0  0  0  0  0  0  0  0  0  0  0  # atno 9376 bound_to 9352
  113.2285  237.0736  328.0628 H   0  0  0  0  0  0  0  0  0  0  0  0  # atno 9409 bound_to 9397
  125.2962  238.0390  324.3215 H   0  0  0  0  0  0  0  0  0  0  0  0  # atno 11109 bound_to 11102
  115.8877  239.1236  316.2285 LP  0  0  0  0  0  0  0  0  0  0  0  0  # atno 13518 bound_to 8422
  115.7419  240.8407  316.4024 LP  0  0  0  0  0  0  0  0  0  0  0  0  # atno 13519 bound_to 8422
  118.6609  243.7419  316.6980 LP  0  0  0  0  0  0  0  0  0  0  0  0  # atno 13521 bound_to 8459
  118.4248  244.4546  318.2588 LP  0  0  0  0  0  0  0  0  0  0  0  0  # atno 13522 bound_to 8459
  115.4448  243.5760  318.1932 LP  0  0  0  0  0  0  0  0  0  0  0  0  # atno 13523 bound_to 8482
  115.2055  246.0216  318.0611 LP  0  0  0  0  0  0  0  0  0  0  0  0  # atno 13524 bound_to 8504
  117.0123  247.5562  317.1499 LP  0  0  0  0  0  0  0  0  0  0  0  0  # atno 13525 bound_to 8999
  116.2044  247.1701  315.6672 LP  0  0  0  0  0  0  0  0  0  0  0  0  # atno 13526 bound_to 8999
  120.7116  244.7888  316.2768 LP  0  0  0  0  0  0  0  0  0  0  0  0  # atno 13527 bound_to 9051
  121.5037  242.1160  316.7606 LP  0  0  0  0  0  0  0  0  0  0  0  0  # atno 13528 bound_to 9054
  123.0319  242.5475  316.0688 LP  0  0  0  0  0  0  0  0  0  0  0  0  # atno 13529 bound_to 9054
  123.5954  243.3609  318.2488 LP  0  0  0  0  0  0  0  0  0  0  0  0  # atno 13530 bound_to 9075
  123.3156  242.6104  322.0229 LP  0  0  0  0  0  0  0  0  0  0  0  0  # atno 13531 bound_to 9078
  121.6831  242.8931  321.5181 LP  0  0  0  0  0  0  0  0  0  0  0  0  # atno 13532 bound_to 9078
  123.1757  240.6115  321.1048 LP  0  0  0  0  0  0  0  0  0  0  0  0  # atno 13533 bound_to 9121
  124.2322  239.2503  324.3069 LP  0  0  0  0  0  0  0  0  0  0  0  0  # atno 13534 bound_to 9124
  123.9751  238.9741  322.6165 LP  0  0  0  0  0  0  0  0  0  0  0  0  # atno 13535 bound_to 9124
  115.1385  239.8621  320.6204 LP  0  0  0  0  0  0  0  0  0  0  0  0  # atno 13536 bound_to 9132
  114.8124  239.3430  322.1340 LP  0  0  0  0  0  0  0  0  0  0  0  0  # atno 13537 bound_to 9132
  121.4681  241.0990  324.6523 LP  0  0  0  0  0  0  0  0  0  0  0  0  # atno 13538 bound_to 9159
  120.0291  239.0695  325.5923 LP  0  0  0  0  0  0  0  0  0  0  0  0  # atno 13539 bound_to 9162
  119.9309  238.4547  327.2087 LP  0  0  0  0  0  0  0  0  0  0  0  0  # atno 13540 bound_to 9162
  119.1217  239.1045  328.1676 LP  0  0  0  0  0  0  0  0  0  0  0  0  # atno 13541 bound_to 9236
  122.4824  250.0173  327.9810 LP  0  0  0  0  0  0  0  0  0  0  0  0  # atno 13550 bound_to 3616
  124.1923  249.1510  325.9217 LP  0  0  0  0  0  0  0  0  0  0  0  0  # atno 13551 bound_to 3645
  119.8610  248.2344  315.2226 LP  0  0  0  0  0  0  0  0  0  0  0  0  # atno 13552 bound_to 9031
  122.3775  246.4567  315.1716 LP  0  0  0  0  0  0  0  0  0  0  0  0  # atno 13553 bound_to 9034
  121.5986  247.8511  315.8415 LP  0  0  0  0  0  0  0  0  0  0  0  0  # atno 13554 bound_to 9034
  120.8415  237.3589  318.0187 LP  0  0  0  0  0  0  0  0  0  0  0  0  # atno 13555 bound_to 8404
  120.4107  238.8171  317.1893 LP  0  0  0  0  0  0  0  0  0  0  0  0  # atno 13556 bound_to 8404
  121.9297  238.4950  327.1149 LP  0  0  0  0  0  0  0  0  0  0  0  0  # atno 13557 bound_to 9189
  125.0025  246.5632  317.1351 LP  0  0  0  0  0  0  0  0  0  0  0  0  # atno 13558 bound_to 4938
  126.2384  247.6081  317.3528 LP  0  0  0  0  0  0  0  0  0  0  0  0  # atno 13559 bound_to 4938
  119.5037  245.0765  312.8394 LP  0  0  0  0  0  0  0  0  0  0  0  0  # atno 13560 bound_to 9036
  120.6273  244.5064  313.8782 LP  0  0  0  0  0  0  0  0  0  0  0  0  # atno 13561 bound_to 9036
  112.7182  244.9561  316.9477 LP  0  0  0  0  0  0  0  0  0  0  0  0  # atno 13562 bound_to 8485
  113.2663  245.1854  315.3208 LP  0  0  0  0  0  0  0  0  0  0  0  0  # atno 13563 bound_to 8485
  114.6697  249.5056  316.4454 LP  0  0  0  0  0  0  0  0  0  0  0  0  # atno 13564 bound_to 8507
  113.7556  249.0871  315.0350 LP  0  0  0  0  0  0  0  0  0  0  0  0  # atno 13565 bound_to 8507
  115.8847  249.2220  313.6187 LP  0  0  0  0  0  0  0  0  0  0  0  0  # atno 13566 bound_to 8996
  111.5666  247.3798  316.7198 LP  0  0  0  0  0  0  0  0  0  0  0  0  # atno 13567 bound_to 8535
  122.4878  247.1857  313.6425 LP  0  0  0  0  0  0  0  0  0  0  0  0  # atno 13570 bound_to 4954
  120.9412  248.7677  314.1618 LP  0  0  0  0  0  0  0  0  0  0  0  0  # atno 13571 bound_to 4957
  119.5750  248.9058  313.1060 LP  0  0  0  0  0  0  0  0  0  0  0  0  # atno 13572 bound_to 4957
  110.3610  246.8902  318.9252 LP  0  0  0  0  0  0  0  0  0  0  0  0  # atno 13573 bound_to 5599
  110.1228  247.6880  317.4064 LP  0  0  0  0  0  0  0  0  0  0  0  0  # atno 13574 bound_to 5599
  111.4292  239.2146  319.5975 LP  0  0  0  0  0  0  0  0  0  0  0  0  # atno 13575 bound_to 8378
  112.7670  239.2573  320.5330 LP  0  0  0  0  0  0  0  0  0  0  0  0  # atno 13576 bound_to 8378
  108.8592  244.8464  318.2481 LP  0  0  0  0  0  0  0  0  0  0  0  0  # atno 13581 bound_to 5624
  112.3834  239.9526  317.0109 LP  0  0  0  0  0  0  0  0  0  0  0  0  # atno 13582 bound_to 5698
  110.9491  239.6245  317.9249 LP  0  0  0  0  0  0  0  0  0  0  0  0  # atno 13583 bound_to 5698
  114.3589  237.3117  327.5116 LP  0  0  0  0  0  0  0  0  0  0  0  0  # atno 13584 bound_to 9239
  114.4647  239.0352  327.3766 LP  0  0  0  0  0  0  0  0  0  0  0  0  # atno 13585 bound_to 9239
  107.3682  244.5096  320.2253 LP  0  0  0  0  0  0  0  0  0  0  0  0  # atno 13586 bound_to 5601
  106.9548  244.4118  318.6485 LP  0  0  0  0  0  0  0  0  0  0  0  0  # atno 13587 bound_to 5601
  108.9794  243.4162  314.3776 LP  0  0  0  0  0  0  0  0  0  0  0  0  # atno 13588 bound_to 5627
  108.8962  242.6575  315.9324 LP  0  0  0  0  0  0  0  0  0  0  0  0  # atno 13589 bound_to 5627
  111.2695  244.7335  314.9756 LP  0  0  0  0  0  0  0  0  0  0  0  0  # atno 13590 bound_to 5657
  111.8951  241.6101  315.2763 LP  0  0  0  0  0  0  0  0  0  0  0  0  # atno 13591 bound_to 5695
  109.2550  238.5703  315.1100 LP  0  0  0  0  0  0  0  0  0  0  0  0  # atno 13592 bound_to 5736
  108.1784  236.7929  317.1658 LP  0  0  0  0  0  0  0  0  0  0  0  0  # atno 13593 bound_to 5785
  118.1314  235.6802  318.9711 LP  0  0  0  0  0  0  0  0  0  0  0  0  # atno 13596 bound_to 8370
  116.4108  235.7373  319.1615 LP  0  0  0  0  0  0  0  0  0  0  0  0  # atno 13597 bound_to 8370
  111.8433  237.3967  329.0748 LP  0  0  0  0  0  0  0  0  0  0  0  0  # atno 13598 bound_to 9397
  109.8926  236.9779  329.2583 LP  0  0  0  0  0  0  0  0  0  0  0  0  # atno 13601 bound_to 9355
  110.5519  236.6089  330.8169 LP  0  0  0  0  0  0  0  0  0  0  0  0  # atno 13602 bound_to 9355
  108.9459  235.1214  327.9570 LP  0  0  0  0  0  0  0  0  0  0  0  0  # atno 13603 bound_to 9400
  109.5159  233.7147  327.1227 LP  0  0  0  0  0  0  0  0  0  0  0  0  # atno 13604 bound_to 9400
  114.8617  237.6164  330.4058 LP  0  0  0  0  0  0  0  0  0  0  0  0  # atno 13608 bound_to 9352

> <Gold.Score>
     Fitness  S(hb_ext) S(vdw_ext)  S(hb_int)    S(int)      intcor
     38.14       0.26      28.57       0.00      -1.41      -0.76

> <Gold.Goldscore.Fitness>
38.1361

> <Gold.Goldscore.Internal.Vdw>
-1.7128

> <Gold.Goldscore.Internal.Torsion>
-0.4580

> <Gold.Goldscore.External.Vdw>
28.5664

> <Gold.Goldscore.Internal.HBond>
0.0000

> <Gold.Goldscore.External.HBond>
0.2632

> <Gold.Goldscore.Internal.Correction>
-0.7650

> <Gold.Goldscore.Hbonds>
donor molecule, donor type, donor heavy atom, donor atom, acceptor molecule, acceptor atom, score
      P1  H  9051  9055       L1    17  0.13

> <Gold.Goldscore.Internal.Vdw.Weighted>
-1.7128

> <Gold.Goldscore.Internal.Torsion.Weighted>
-0.4580

> <Gold.Goldscore.External.Vdw.Weighted>
39.2788

> <Gold.Goldscore.Internal.HBond.Weighted>
0.0000

> <Gold.Goldscore.External.HBond.Weighted>
0.2632

> <Gold.Goldscore.Internal.Correction.Weighted>
-0.7650

> <Gold.Rescore>
     Score     S(PLP)   S(hbond)     S(cho)   S(metal)  DE(clash)   DE(tors)     intcor
     30.27     -23.68       0.82       0.00       1.00       1.39       0.24       ----

> <Gold.PLP.Fitness>
30.2739

> <Gold.PLP.PLP>
-23.6777

> <Gold.PLP.part.hbond>
-3.7932

> <Gold.PLP.part.metal>
-1.0000

> <Gold.PLP.part.buried>
25.8808

> <Gold.PLP.part.nonpolar>
-50.3875

> <Gold.PLP.part.repulsive>
3.0655

> <Gold.PLP.ligand.clash>
1.3911

> <Gold.PLP.ligand.torsion>
0.2372

> <Gold.PLP.Chemscore.Hbond>
0.8206

> <Gold.PLP.Chemscore.CHOScore>
0.0000

> <Gold.PLP.Chemscore.Metal>
1.0000

> <Gold.Chemscore.Hbonds>
donor molecule, donor type, donor heavy atom, donor atom, acceptor molecule, acceptor atom, score
      L1  H     8    22       P1  8459  0.27
      P1  H  9051  9055       L1    17  0.03
      P1  M 13385 13385       L1    11  0.94

> <Gold.PLP.Chemscore.Internal.Correction>
   9.000000E+99

#       Name:                CT1002167954
#       Creating user name   hitesit
#       Creation time:       Sun Apr 16 22:52:10 2023


#       File generated by GOLD software.
#

@<TRIPOS>MOLECULE
CT1002167954|ligand_prepared|mol2|1|dock10
    29    30     1
SMALL
NO_CHARGES


@<TRIPOS>ATOM
      1 C1         117.5191 245.5001 321.8768 C.3            1 RES1               0.0000
      2 C2         116.3580 244.5101 322.1016 C.ar           1 RES1               0.0000
      3 C3         118.6023 245.1259 322.8842 C.2            1 RES1               0.0000
      4 C4         117.9413 245.3389 320.4206 C.2            1 RES1               0.0000
      5 C5         117.1304 246.9801 322.1004 C.3            1 RES1               0.0000
      6 C6         116.6097 243.1556 322.2981 C.ar           1 RES1               0.0000
      7 C7         115.0325 244.9360 322.1178 C.ar           1 RES1               0.0000
      8 N8         119.7149 244.4951 322.4106 N.am           1 RES1               0.0000
      9 O9         118.4649 245.3455 324.0813 O.2            1 RES1               0.0000
     10 N10        119.1918 244.8396 320.1661 N.am           1 RES1               0.0000
     11 O11        117.1962 245.6241 319.4912 O.2            1 RES1               0.0000
     12 C12        118.3041 247.9426 322.0103 C.3            1 RES1               0.0000
     13 C13        115.5742 242.2597 322.5062 C.ar           1 RES1               0.0000
     14 C14        113.9984 244.0384 322.3259 C.ar           1 RES1               0.0000
     15 C15        120.0861 244.3816 321.0949 C.2            1 RES1               0.0000
     16 C16        114.2680 242.7005 322.5207 C.ar           1 RES1               0.0000
     17 O17        121.1702 243.8957 320.7853 O.2            1 RES1               0.0000
     18 H18        116.3814 247.2655 321.3515 H              1 RES1               0.0000
     19 H19        116.6687 247.0782 323.0907 H              1 RES1               0.0000
     20 H20        117.6311 242.7898 322.2875 H              1 RES1               0.0000
     21 H21        114.7967 245.9838 321.9657 H              1 RES1               0.0000
     22 H22        120.3274 244.0683 323.0983 H              1 RES1               0.0000
     23 H23        119.4830 244.8063 319.1943 H              1 RES1               0.0000
     24 H24        117.9764 248.9670 322.1748 H              1 RES1               0.0000
     25 H25        119.0574 247.7036 322.7581 H              1 RES1               0.0000
     26 H26        118.7717 247.8898 321.0292 H              1 RES1               0.0000
     27 H27        115.7915 241.2075 322.6576 H              1 RES1               0.0000
     28 H28        112.9719 244.3897 322.3359 H              1 RES1               0.0000
     29 H29        113.4569 241.9985 322.6841 H              1 RES1               0.0000
@<TRIPOS>BOND
    1    1    2 1     
    2    1    3 1     
    3    1    4 1     
    4    1    5 1     
    5    2    6 ar    
    6    2    7 ar    
    7    3    8 1     
    8    3    9 2     
    9    4   10 1     
   10    4   11 2     
   11    5   12 1     
   12    5   18 1     
   13    5   19 1     
   14    6   13 ar    
   15    6   20 1     
   16    7   14 ar    
   17    7   21 1     
   18    8   15 1     
   19    8   22 1     
   20   10   15 1     
   21   10   23 1     
   22   12   24 1     
   23   12   25 1     
   24   12   26 1     
   25   13   16 ar    
   26   13   27 1     
   27   14   16 ar    
   28   14   28 1     
   29   15   17 2     
   30   16   29 1     
@<TRIPOS>SUBSTRUCTURE
      1 RES1           1
@<TRIPOS>SET
DONOR_HYDROGENS      STATIC     ATOMS    <user>   **** ""
2 22 23
ATOM$RED        STATIC     ATOMS    COLORGROUP SYSTEM
2 22 23
@<TRIPOS>COMMENT
> <Gold.Version>
2022.3.0

> <Gold.Id.Protein>
unknown|4uh5_clean|pdb

> <Gold.Protein.RotatedTorsions>
[ 8487 8482 8483 8484 ] final  -50.79 input   34.95 | X-H torsion
[ 8511 8504 8505 8506 ] final  152.78 input  102.00 | X-H torsion
[ 9055 9051 9052 9053 ] final -139.56 input   39.76 | X-H torsion
[ 9089 9075 9076 9077 ] final -157.38 input   37.88 | X-H torsion
[ 9133 9121 9122 9123 ] final   51.51 input   94.46 | X-H torsion
[ 9141 9132 9131 9129 ] final   62.56 input   60.01 | X-H torsion
[ 9170 9159 9160 9161 ] final   95.78 input   86.63 | X-H torsion
[ 9251 9236 9237 9238 ] final -109.50 input  127.08 | X-H torsion
[ 3623 3616 3617 3618 ] final  112.40 input   94.27 | X-H torsion
[ 3649 3645 3646 3647 ] final  -59.96 input   86.49 | X-H torsion
[ 9037 9031 9032 9033 ] final  -48.05 input   26.45 | X-H torsion
[ 9196 9189 9190 9191 ] final  104.86 input  130.40 | X-H torsion
[ 4943 4938 4937 4934 ] final   98.86 input   60.00 | X-H torsion
[ 9041 9036 9035 9032 ] final -163.82 input   59.99 | X-H torsion
[ 9007 8996 8997 8998 ] final  -59.80 input   49.09 | X-H torsion
[ 8541 8535 8536 8537 ] final  175.14 input   50.11 | X-H torsion
[ 4959 4954 4955 4956 ] final  -87.83 input   27.83 | X-H torsion
[ 8387 8378 8377 8375 ] final  108.83 input   59.99 | X-H torsion
[ 5633 5624 5625 5626 ] final  132.96 input   44.71 | X-H torsion
[ 5606 5601 5600 5597 ] final  -93.83 input   59.98 | X-H torsion
[ 5665 5657 5658 5659 ] final  -51.54 input  114.33 | X-H torsion
[ 5703 5695 5696 5697 ] final   83.03 input   57.04 | X-H torsion
[ 5747 5736 5737 5738 ] final   10.16 input   30.88 | X-H torsion
[ 5797 5785 5786 5787 ] final -125.08 input   92.04 | X-H torsion
[ 9409 9397 9398 9399 ] final -148.40 input  123.68 | X-H torsion
[ 9376 9352 9353 9354 ] final  129.73 input  105.06 | X-H torsion
[ 11109 11102 11103 11104 ] final  151.53 input   57.11 | X-H torsion
[ 8379 8367 8368 8369 ] final -145.12 input   85.33 | X-H torsion
[ 5602 5596 5597 5598 ] final   75.96 input  106.64 | X-H torsion
[ 13518 8422 8421 8420 ] final  -53.50 input    0.00 | X-H torsion
[ 13521 8459 8458 8457 ] final  -10.53 input   -0.00 | X-H torsion
[ 13525 8999 8998 8997 ] final   89.41 input   -0.00 | X-H torsion
[ 13528 9054 9053 9052 ] final  -36.01 input   -0.00 | X-H torsion
[ 13531 9078 9077 9076 ] final -125.17 input    0.00 | X-H torsion
[ 13534 9124 9123 9122 ] final   58.09 input   -0.00 | X-H torsion
[ 13539 9162 9161 9160 ] final  -91.41 input   -0.00 | X-H torsion
[ 13553 9034 9033 9032 ] final  109.47 input    0.00 | X-H torsion
[ 13555 8404 8403 8402 ] final  148.74 input    0.00 | X-H torsion
[ 13562 8485 8484 8483 ] final  138.88 input    0.00 | X-H torsion
[ 13564 8507 8506 8505 ] final   67.21 input   -0.00 | X-H torsion
[ 13571 4957 4956 4955 ] final  160.76 input   -0.00 | X-H torsion
[ 13573 5599 5598 5597 ] final -153.77 input   -0.00 | X-H torsion
[ 13582 5698 5697 5696 ] final -166.62 input   -0.00 | X-H torsion
[ 13584 9239 9238 9237 ] final   25.97 input    0.00 | X-H torsion
[ 13588 5627 5626 5625 ] final  157.22 input    0.00 | X-H torsion
[ 13596 8370 8369 8368 ] final -121.76 input   -0.00 | X-H torsion
[ 13601 9355 9354 9353 ] final  -74.59 input   -0.00 | X-H torsion
[ 13603 9400 9399 9398 ] final   60.96 input   -0.00 | X-H torsion

> <Gold.Protein.ActiveResidues>
 MET341  TRP414  CYS420  VAL421  GLY422  LEU429  LEU460  SER462  ALA463  ILE464 
 SER482  GLN483  LEU484  ILE485  ARG486  TYR487  ASP500  ALA502  ASN503  TRP566 
 TYR567  GLY568  LEU569  PRO570  ALA571  VAL572  SER573  ASN574  PRO588  PHE589 
 SER590  GLY591  TRP592  TYR593  MET594  GLY595  GLU597  ILE598  ARG601  ASP602 
 ASP605  ARG608  ILE653  VAL654  TRP683  PRO687  PHE696  HIS697  TYR711  HEM750 
 H4B760 

> <Gold.Protein.RotatedAtoms>
  122.0445  248.5392  327.7984 H   0  0  0  0  0  0  0  0  0  0  0  0  # atno 3623 bound_to 3616
  125.1290  248.8332  326.8632 H   0  0  0  0  0  0  0  0  0  0  0  0  # atno 3649 bound_to 3645
  126.7757  246.8693  316.6571 H   0  0  0  0  0  0  0  0  0  0  0  0  # atno 4943 bound_to 4938
  123.6978  248.3057  313.8328 H   0  0  0  0  0  0  0  0  0  0  0  0  # atno 4959 bound_to 4954
  106.4533  244.9421  317.0414 H   0  0  0  0  0  0  0  0  0  0  0  0  # atno 5602 bound_to 5596
  105.8140  244.6837  319.3231 H   0  0  0  0  0  0  0  0  0  0  0  0  # atno 5606 bound_to 5601
  108.8642  244.7998  318.2592 H   0  0  0  0  0  0  0  0  0  0  0  0  # atno 5633 bound_to 5624
  110.7541  243.5979  315.4842 H   0  0  0  0  0  0  0  0  0  0  0  0  # atno 5665 bound_to 5657
  112.5136  241.4654  314.8613 H   0  0  0  0  0  0  0  0  0  0  0  0  # atno 5703 bound_to 5695
  109.4272  238.2319  315.1462 H   0  0  0  0  0  0  0  0  0  0  0  0  # atno 5747 bound_to 5736
  108.5026  236.5414  317.2055 H   0  0  0  0  0  0  0  0  0  0  0  0  # atno 5797 bound_to 5785
  114.7086  232.8420  318.1712 H   0  0  0  0  0  0  0  0  0  0  0  0  # atno 8379 bound_to 8367
  112.6152  238.6978  320.9352 H   0  0  0  0  0  0  0  0  0  0  0  0  # atno 8387 bound_to 8378
  115.8555  243.7144  318.3111 H   0  0  0  0  0  0  0  0  0  0  0  0  # atno 8487 bound_to 8482
  115.4629  246.3579  318.0959 H   0  0  0  0  0  0  0  0  0  0  0  0  # atno 8511 bound_to 8504
  112.5525  247.6290  316.3986 H   0  0  0  0  0  0  0  0  0  0  0  0  # atno 8541 bound_to 8535
  115.7986  248.9126  313.8691 H   0  0  0  0  0  0  0  0  0  0  0  0  # atno 9007 bound_to 8996
  119.4280  248.4097  315.9407 H   0  0  0  0  0  0  0  0  0  0  0  0  # atno 9037 bound_to 9031
  119.5835  244.7757  312.9197 H   0  0  0  0  0  0  0  0  0  0  0  0  # atno 9041 bound_to 9036
  120.9168  245.9162  316.4369 H   0  0  0  0  0  0  0  0  0  0  0  0  # atno 9055 bound_to 9051
  122.8864  243.2613  317.9611 H   0  0  0  0  0  0  0  0  0  0  0  0  # atno 9089 bound_to 9075
  123.0676  239.5641  320.8475 H   0  0  0  0  0  0  0  0  0  0  0  0  # atno 9133 bound_to 9121
  115.0604  240.0866  321.1630 H   0  0  0  0  0  0  0  0  0  0  0  0  # atno 9141 bound_to 9132
  121.3447  241.0255  324.6904 H   0  0  0  0  0  0  0  0  0  0  0  0  # atno 9170 bound_to 9159
  123.2477  237.8304  327.3683 H   0  0  0  0  0  0  0  0  0  0  0  0  # atno 9196 bound_to 9189
  118.3109  238.9209  329.3417 H   0  0  0  0  0  0  0  0  0  0  0  0  # atno 9251 bound_to 9236
  114.8783  237.7796  330.6695 H   0  0  0  0  0  0  0  0  0  0  0  0  # atno 9376 bound_to 9352
  112.2325  238.0067  328.2678 H   0  0  0  0  0  0  0  0  0  0  0  0  # atno 9409 bound_to 9397
  126.3481  238.5663  323.3121 H   0  0  0  0  0  0  0  0  0  0  0  0  # atno 11109 bound_to 11102
  115.9499  240.1805  315.4833 LP  0  0  0  0  0  0  0  0  0  0  0  0  # atno 13518 bound_to 8422
  115.6798  239.7838  317.1476 LP  0  0  0  0  0  0  0  0  0  0  0  0  # atno 13519 bound_to 8422
  118.9781  243.5503  317.9886 LP  0  0  0  0  0  0  0  0  0  0  0  0  # atno 13521 bound_to 8459
  118.1075  244.6462  316.9682 LP  0  0  0  0  0  0  0  0  0  0  0  0  # atno 13522 bound_to 8459
  116.0494  242.6566  316.9350 LP  0  0  0  0  0  0  0  0  0  0  0  0  # atno 13523 bound_to 8482
  114.8286  246.3685  316.4673 LP  0  0  0  0  0  0  0  0  0  0  0  0  # atno 13524 bound_to 8504
  116.3579  246.9456  315.6924 LP  0  0  0  0  0  0  0  0  0  0  0  0  # atno 13525 bound_to 8999
  116.8588  247.7807  317.1248 LP  0  0  0  0  0  0  0  0  0  0  0  0  # atno 13526 bound_to 8999
  120.2632  244.6736  317.4827 LP  0  0  0  0  0  0  0  0  0  0  0  0  # atno 13527 bound_to 9051
  121.6115  242.8345  316.1567 LP  0  0  0  0  0  0  0  0  0  0  0  0  # atno 13528 bound_to 9054
  122.9240  241.8290  316.6727 LP  0  0  0  0  0  0  0  0  0  0  0  0  # atno 13529 bound_to 9054
  123.0279  243.6582  319.6584 LP  0  0  0  0  0  0  0  0  0  0  0  0  # atno 13530 bound_to 9075
  123.0254  242.3539  322.3318 LP  0  0  0  0  0  0  0  0  0  0  0  0  # atno 13531 bound_to 9078
  121.9733  243.1495  321.2093 LP  0  0  0  0  0  0  0  0  0  0  0  0  # atno 13532 bound_to 9078
  121.9922  240.9035  320.5174 LP  0  0  0  0  0  0  0  0  0  0  0  0  # atno 13533 bound_to 9121
  124.3098  239.7020  322.8620 LP  0  0  0  0  0  0  0  0  0  0  0  0  # atno 13534 bound_to 9124
  123.8976  238.5224  324.0614 LP  0  0  0  0  0  0  0  0  0  0  0  0  # atno 13535 bound_to 9124
  114.7760  238.7552  322.0537 LP  0  0  0  0  0  0  0  0  0  0  0  0  # atno 13536 bound_to 9132
  115.0619  238.6236  320.4514 LP  0  0  0  0  0  0  0  0  0  0  0  0  # atno 13537 bound_to 9132
  122.3098  239.8061  323.8921 LP  0  0  0  0  0  0  0  0  0  0  0  0  # atno 13538 bound_to 9159
  119.9593  239.0684  327.2103 LP  0  0  0  0  0  0  0  0  0  0  0  0  # atno 13539 bound_to 9162
  120.0007  238.4559  325.5907 LP  0  0  0  0  0  0  0  0  0  0  0  0  # atno 13540 bound_to 9162
  118.9211  238.1907  327.8749 LP  0  0  0  0  0  0  0  0  0  0  0  0  # atno 13541 bound_to 9236
  122.8353  250.0074  327.2689 LP  0  0  0  0  0  0  0  0  0  0  0  0  # atno 13550 bound_to 3616
  123.7945  248.1503  325.9695 LP  0  0  0  0  0  0  0  0  0  0  0  0  # atno 13551 bound_to 3645
  118.5910  247.7683  314.5517 LP  0  0  0  0  0  0  0  0  0  0  0  0  # atno 13552 bound_to 9031
  122.0904  247.5698  316.2593 LP  0  0  0  0  0  0  0  0  0  0  0  0  # atno 13553 bound_to 9034
  121.8857  246.7381  314.7539 LP  0  0  0  0  0  0  0  0  0  0  0  0  # atno 13554 bound_to 9034
  120.6326  238.6956  316.9869 LP  0  0  0  0  0  0  0  0  0  0  0  0  # atno 13555 bound_to 8404
  120.6196  237.4804  318.2211 LP  0  0  0  0  0  0  0  0  0  0  0  0  # atno 13556 bound_to 8404
  121.9605  238.2504  326.2587 LP  0  0  0  0  0  0  0  0  0  0  0  0  # atno 13557 bound_to 9189
  125.3409  246.1035  316.7022 LP  0  0  0  0  0  0  0  0  0  0  0  0  # atno 13558 bound_to 4938
  125.5559  247.4909  317.5363 LP  0  0  0  0  0  0  0  0  0  0  0  0  # atno 13559 bound_to 4938
  120.7839  244.7514  314.0181 LP  0  0  0  0  0  0  0  0  0  0  0  0  # atno 13560 bound_to 9036
  120.2064  246.1759  313.4668 LP  0  0  0  0  0  0  0  0  0  0  0  0  # atno 13561 bound_to 9036
  112.6382  245.2868  316.8945 LP  0  0  0  0  0  0  0  0  0  0  0  0  # atno 13562 bound_to 8485
  113.3463  244.8547  315.3740 LP  0  0  0  0  0  0  0  0  0  0  0  0  # atno 13563 bound_to 8485
  114.5620  248.5711  315.4207 LP  0  0  0  0  0  0  0  0  0  0  0  0  # atno 13564 bound_to 8507
  113.8633  250.0215  316.0597 LP  0  0  0  0  0  0  0  0  0  0  0  0  # atno 13565 bound_to 8507
  115.7114  250.3644  314.8379 LP  0  0  0  0  0  0  0  0  0  0  0  0  # atno 13566 bound_to 8996
  111.4965  248.5429  317.4443 LP  0  0  0  0  0  0  0  0  0  0  0  0  # atno 13567 bound_to 8535
  122.8046  246.8958  313.3200 LP  0  0  0  0  0  0  0  0  0  0  0  0  # atno 13570 bound_to 4954
  119.8984  249.6244  313.6454 LP  0  0  0  0  0  0  0  0  0  0  0  0  # atno 13571 bound_to 4957
  120.6178  248.0490  313.6225 LP  0  0  0  0  0  0  0  0  0  0  0  0  # atno 13572 bound_to 4957
  110.7605  246.8831  317.6035 LP  0  0  0  0  0  0  0  0  0  0  0  0  # atno 13573 bound_to 5599
  109.7233  247.6952  318.7281 LP  0  0  0  0  0  0  0  0  0  0  0  0  # atno 13574 bound_to 5599
  111.1866  238.2987  320.2658 LP  0  0  0  0  0  0  0  0  0  0  0  0  # atno 13575 bound_to 8378
  112.0284  239.5781  319.6988 LP  0  0  0  0  0  0  0  0  0  0  0  0  # atno 13576 bound_to 8378
  108.6137  245.4358  316.6482 LP  0  0  0  0  0  0  0  0  0  0  0  0  # atno 13581 bound_to 5624
  111.1414  239.2787  317.9312 LP  0  0  0  0  0  0  0  0  0  0  0  0  # atno 13582 bound_to 5698
  112.1910  240.2984  317.0045 LP  0  0  0  0  0  0  0  0  0  0  0  0  # atno 13583 bound_to 5698
  114.4628  239.0338  327.3592 LP  0  0  0  0  0  0  0  0  0  0  0  0  # atno 13584 bound_to 9239
  114.3608  237.3131  327.5289 LP  0  0  0  0  0  0  0  0  0  0  0  0  # atno 13585 bound_to 9239
  106.9843  244.6002  320.4505 LP  0  0  0  0  0  0  0  0  0  0  0  0  # atno 13586 bound_to 5601
  107.3461  244.3684  318.8751 LP  0  0  0  0  0  0  0  0  0  0  0  0  # atno 13587 bound_to 5601
  109.1650  243.0854  314.3208 LP  0  0  0  0  0  0  0  0  0  0  0  0  # atno 13588 bound_to 5627
  108.7106  242.9882  315.9893 LP  0  0  0  0  0  0  0  0  0  0  0  0  # atno 13589 bound_to 5627
  112.2874  244.3254  315.0757 LP  0  0  0  0  0  0  0  0  0  0  0  0  # atno 13590 bound_to 5657
  110.9959  241.6071  314.0064 LP  0  0  0  0  0  0  0  0  0  0  0  0  # atno 13591 bound_to 5695
  110.3784  239.4085  316.0301 LP  0  0  0  0  0  0  0  0  0  0  0  0  # atno 13592 bound_to 5736
  107.8814  236.7408  318.8234 LP  0  0  0  0  0  0  0  0  0  0  0  0  # atno 13593 bound_to 5785
  117.3948  236.4976  318.7308 LP  0  0  0  0  0  0  0  0  0  0  0  0  # atno 13596 bound_to 8370
  117.1475  234.9200  319.4017 LP  0  0  0  0  0  0  0  0  0  0  0  0  # atno 13597 bound_to 8370
  112.8224  236.4794  328.8733 LP  0  0  0  0  0  0  0  0  0  0  0  0  # atno 13598 bound_to 9397
  110.5794  236.1662  330.5162 LP  0  0  0  0  0  0  0  0  0  0  0  0  # atno 13601 bound_to 9355
  109.8651  237.4207  329.5590 LP  0  0  0  0  0  0  0  0  0  0  0  0  # atno 13602 bound_to 9355
  109.3608  234.4561  326.6845 LP  0  0  0  0  0  0  0  0  0  0  0  0  # atno 13603 bound_to 9400
  109.1010  234.3800  328.3952 LP  0  0  0  0  0  0  0  0  0  0  0  0  # atno 13604 bound_to 9400
  113.9354  236.3743  331.1054 LP  0  0  0  0  0  0  0  0  0  0  0  0  # atno 13608 bound_to 9352

> <Gold.Score>
     Fitness  S(hb_ext) S(vdw_ext)  S(hb_int)    S(int)      intcor
     38.06       2.66      25.99       0.00      -0.34      -0.76

> <Gold.Goldscore.Fitness>
38.0554

> <Gold.Goldscore.Internal.Vdw>
-0.6878

> <Gold.Goldscore.Internal.Torsion>
-0.4185

> <Gold.Goldscore.External.Vdw>
25.9918

> <Gold.Goldscore.Internal.HBond>
0.0000

> <Gold.Goldscore.External.HBond>
2.6580

> <Gold.Goldscore.Internal.Correction>
-0.7650

> <Gold.Goldscore.Hbonds>
donor molecule, donor type, donor heavy atom, donor atom, acceptor molecule, acceptor atom, score
      P1  H  8504  8511       L1    11  1.00
      L1  H    10    23       P1  9051  0.11

> <Gold.Goldscore.Internal.Vdw.Weighted>
-0.6878

> <Gold.Goldscore.Internal.Torsion.Weighted>
-0.4185

> <Gold.Goldscore.External.Vdw.Weighted>
35.7387

> <Gold.Goldscore.Internal.HBond.Weighted>
0.0000

> <Gold.Goldscore.External.HBond.Weighted>
2.6580

> <Gold.Goldscore.Internal.Correction.Weighted>
-0.7650

> <Gold.Rescore>
     Score     S(PLP)   S(hbond)     S(cho)   S(metal)  DE(clash)   DE(tors)     intcor
     28.59     -27.31       1.01       0.00       0.00       0.00       0.87       ----

> <Gold.PLP.Fitness>
28.5908

> <Gold.PLP.PLP>
-27.3146

> <Gold.PLP.part.hbond>
-3.2713

> <Gold.PLP.part.metal>
0.0000

> <Gold.PLP.part.buried>
0.1108

> <Gold.PLP.part.nonpolar>
-28.8280

> <Gold.PLP.part.repulsive>
3.0924

> <Gold.PLP.ligand.clash>
0.0000

> <Gold.PLP.ligand.torsion>
0.8736

> <Gold.PLP.Chemscore.Hbond>
1.0078

> <Gold.PLP.Chemscore.CHOScore>
0.0000

> <Gold.PLP.Chemscore.Metal>
0.0000

> <Gold.Chemscore.Hbonds>
donor molecule, donor type, donor heavy atom, donor atom, acceptor molecule, acceptor atom, score
      L1  H    10    23       P1  8459  0.16
      P1  H  8504  8511       L1    11  0.39

> <Gold.PLP.Chemscore.Internal.Correction>
   9.000000E+99

#       Name:                CT1002167954
#       Creating user name   hitesit
#       Creation time:       Sun Apr 16 22:52:06 2023


#       File generated by GOLD software.
#

@<TRIPOS>MOLECULE
CT1002167954|ligand_prepared|mol2|1|dock6
    29    30     1
SMALL
NO_CHARGES


@<TRIPOS>ATOM
      1 C1         112.9889 241.8885 323.4246 C.3            1 RES1               0.0000
      2 C2         114.0439 242.7168 322.6631 C.ar           1 RES1               0.0000
      3 C3         113.6422 240.5452 323.7362 C.2            1 RES1               0.0000
      4 C4         112.6185 242.7017 324.6599 C.2            1 RES1               0.0000
      5 C5         111.6955 241.6301 322.6172 C.3            1 RES1               0.0000
      6 C6         114.0061 242.8081 321.2749 C.ar           1 RES1               0.0000
      7 C7         115.0574 243.3960 323.3339 C.ar           1 RES1               0.0000
      8 N8         114.0225 240.3115 325.0249 N.am           1 RES1               0.0000
      9 O9         113.8563 239.7196 322.8572 O.2            1 RES1               0.0000
     10 N10        112.9455 242.1890 325.8879 N.am           1 RES1               0.0000
     11 O11        112.0613 243.7896 324.5804 O.2            1 RES1               0.0000
     12 C12        110.5580 241.0578 323.4482 C.3            1 RES1               0.0000
     13 C13        114.9458 243.5538 320.5826 C.ar           1 RES1               0.0000
     14 C14        115.9962 244.1410 322.6396 C.ar           1 RES1               0.0000
     15 C15        113.6581 241.0452 326.1251 C.2            1 RES1               0.0000
     16 C16        115.9410 244.2211 321.2643 C.ar           1 RES1               0.0000
     17 O17        113.9605 240.6775 327.2567 O.2            1 RES1               0.0000
     18 H18        111.3645 242.5750 322.1687 H              1 RES1               0.0000
     19 H19        111.9220 240.9329 321.8011 H              1 RES1               0.0000
     20 H20        113.2317 242.2878 320.7211 H              1 RES1               0.0000
     21 H21        115.1210 243.3464 324.4156 H              1 RES1               0.0000
     22 H22        114.6344 239.5177 325.1853 H              1 RES1               0.0000
     23 H23        112.6282 242.7080 326.7005 H              1 RES1               0.0000
     24 H24        109.6750 240.8956 322.8337 H              1 RES1               0.0000
     25 H25        110.8437 240.1050 323.8891 H              1 RES1               0.0000
     26 H26        110.2896 241.7374 324.2545 H              1 RES1               0.0000
     27 H27        114.8988 243.6125 319.5002 H              1 RES1               0.0000
     28 H28        116.7781 244.6641 323.1802 H              1 RES1               0.0000
     29 H29        116.6768 244.8055 320.7218 H              1 RES1               0.0000
@<TRIPOS>BOND
    1    1    2 1     
    2    1    3 1     
    3    1    4 1     
    4    1    5 1     
    5    2    6 ar    
    6    2    7 ar    
    7    3    8 1     
    8    3    9 2     
    9    4   10 1     
   10    4   11 2     
   11    5   12 1     
   12    5   18 1     
   13    5   19 1     
   14    6   13 ar    
   15    6   20 1     
   16    7   14 ar    
   17    7   21 1     
   18    8   15 1     
   19    8   22 1     
   20   10   15 1     
   21   10   23 1     
   22   12   24 1     
   23   12   25 1     
   24   12   26 1     
   25   13   16 ar    
   26   13   27 1     
   27   14   16 ar    
   28   14   28 1     
   29   15   17 2     
   30   16   29 1     
@<TRIPOS>SUBSTRUCTURE
      1 RES1           1
@<TRIPOS>SET
DONOR_HYDROGENS      STATIC     ATOMS    <user>   **** ""
2 22 23
ATOM$RED        STATIC     ATOMS    COLORGROUP SYSTEM
2 22 23
@<TRIPOS>COMMENT
> <Gold.Version>
2022.3.0

> <Gold.Id.Protein>
unknown|4uh5_clean|pdb

> <Gold.Protein.RotatedTorsions>
[ 8487 8482 8483 8484 ] final   49.06 input   34.95 | X-H torsion
[ 8511 8504 8505 8506 ] final  -21.21 input  102.00 | X-H torsion
[ 9055 9051 9052 9053 ] final  101.68 input   39.76 | X-H torsion
[ 9089 9075 9076 9077 ] final   88.49 input   37.88 | X-H torsion
[ 9133 9121 9122 9123 ] final   90.21 input   94.46 | X-H torsion
[ 9141 9132 9131 9129 ] final   24.51 input   60.01 | X-H torsion
[ 9170 9159 9160 9161 ] final -128.98 input   86.63 | X-H torsion
[ 9251 9236 9237 9238 ] final  -61.42 input  127.08 | X-H torsion
[ 3623 3616 3617 3618 ] final -178.62 input   94.27 | X-H torsion
[ 3649 3645 3646 3647 ] final   52.70 input   86.49 | X-H torsion
[ 9037 9031 9032 9033 ] final  -24.29 input   26.45 | X-H torsion
[ 9196 9189 9190 9191 ] final  -70.85 input  130.40 | X-H torsion
[ 4943 4938 4937 4934 ] final -110.23 input   60.00 | X-H torsion
[ 9041 9036 9035 9032 ] final -136.97 input   59.99 | X-H torsion
[ 9007 8996 8997 8998 ] final  -90.24 input   49.09 | X-H torsion
[ 8541 8535 8536 8537 ] final   82.17 input   50.11 | X-H torsion
[ 4959 4954 4955 4956 ] final  -83.49 input   27.83 | X-H torsion
[ 8387 8378 8377 8375 ] final -162.46 input   59.99 | X-H torsion
[ 5633 5624 5625 5626 ] final -128.25 input   44.71 | X-H torsion
[ 5606 5601 5600 5597 ] final   90.64 input   59.98 | X-H torsion
[ 5665 5657 5658 5659 ] final -127.77 input  114.33 | X-H torsion
[ 5703 5695 5696 5697 ] final   61.49 input   57.04 | X-H torsion
[ 5747 5736 5737 5738 ] final   26.66 input   30.88 | X-H torsion
[ 5797 5785 5786 5787 ] final    0.50 input   92.04 | X-H torsion
[ 9409 9397 9398 9399 ] final  165.66 input  123.68 | X-H torsion
[ 9376 9352 9353 9354 ] final  147.60 input  105.06 | X-H torsion
[ 11109 11102 11103 11104 ] final   72.31 input   57.11 | X-H torsion
[ 8379 8367 8368 8369 ] final  -44.22 input   85.33 | X-H torsion
[ 5602 5596 5597 5598 ] final  152.84 input  106.64 | X-H torsion
[ 13518 8422 8421 8420 ] final   72.90 input    0.00 | X-H torsion
[ 13521 8459 8458 8457 ] final   48.87 input   -0.00 | X-H torsion
[ 13525 8999 8998 8997 ] final -156.36 input   -0.00 | X-H torsion
[ 13528 9054 9053 9052 ] final  -94.44 input   -0.00 | X-H torsion
[ 13531 9078 9077 9076 ] final  -64.91 input    0.00 | X-H torsion
[ 13534 9124 9123 9122 ] final -160.55 input   -0.00 | X-H torsion
[ 13539 9162 9161 9160 ] final -178.81 input   -0.00 | X-H torsion
[ 13553 9034 9033 9032 ] final  130.53 input    0.00 | X-H torsion
[ 13555 8404 8403 8402 ] final   16.66 input    0.00 | X-H torsion
[ 13562 8485 8484 8483 ] final  179.75 input    0.00 | X-H torsion
[ 13564 8507 8506 8505 ] final -114.16 input   -0.00 | X-H torsion
[ 13571 4957 4956 4955 ] final -147.99 input   -0.00 | X-H torsion
[ 13573 5599 5598 5597 ] final -145.18 input   -0.00 | X-H torsion
[ 13582 5698 5697 5696 ] final    5.35 input   -0.00 | X-H torsion
[ 13584 9239 9238 9237 ] final   20.79 input    0.00 | X-H torsion
[ 13588 5627 5626 5625 ] final   79.79 input    0.00 | X-H torsion
[ 13596 8370 8369 8368 ] final  147.29 input   -0.00 | X-H torsion
[ 13601 9355 9354 9353 ] final   61.45 input   -0.00 | X-H torsion
[ 13603 9400 9399 9398 ] final -170.50 input   -0.00 | X-H torsion

> <Gold.Protein.ActiveResidues>
 MET341  TRP414  CYS420  VAL421  GLY422  LEU429  LEU460  SER462  ALA463  ILE464 
 SER482  GLN483  LEU484  ILE485  ARG486  TYR487  ASP500  ALA502  ASN503  TRP566 
 TYR567  GLY568  LEU569  PRO570  ALA571  VAL572  SER573  ASN574  PRO588  PHE589 
 SER590  GLY591  TRP592  TYR593  MET594  GLY595  GLU597  ILE598  ARG601  ASP602 
 ASP605  ARG608  ILE653  VAL654  TRP683  PRO687  PHE696  HIS697  TYR711  HEM750 
 H4B760 

> <Gold.Protein.RotatedAtoms>
  122.0899  249.3876  328.3368 H   0  0  0  0  0  0  0  0  0  0  0  0  # atno 3623 bound_to 3616
  124.0830  249.0680  325.8655 H   0  0  0  0  0  0  0  0  0  0  0  0  # atno 3649 bound_to 3645
  125.1810  247.1673  317.4635 H   0  0  0  0  0  0  0  0  0  0  0  0  # atno 4943 bound_to 4938
  123.6441  248.3239  313.8678 H   0  0  0  0  0  0  0  0  0  0  0  0  # atno 4959 bound_to 4954
  105.7020  245.7410  317.1359 H   0  0  0  0  0  0  0  0  0  0  0  0  # atno 5602 bound_to 5596
  107.5928  244.4319  319.8443 H   0  0  0  0  0  0  0  0  0  0  0  0  # atno 5606 bound_to 5601
  109.0577  245.9417  317.5673 H   0  0  0  0  0  0  0  0  0  0  0  0  # atno 5633 bound_to 5624
  110.9384  244.5832  315.0649 H   0  0  0  0  0  0  0  0  0  0  0  0  # atno 5665 bound_to 5657
  112.3067  241.5244  315.1121 H   0  0  0  0  0  0  0  0  0  0  0  0  # atno 5703 bound_to 5695
  109.2727  238.4342  315.1162 H   0  0  0  0  0  0  0  0  0  0  0  0  # atno 5747 bound_to 5736
  107.5142  237.1528  318.2474 H   0  0  0  0  0  0  0  0  0  0  0  0  # atno 5797 bound_to 5785
  115.7766  233.2338  318.9161 H   0  0  0  0  0  0  0  0  0  0  0  0  # atno 8379 bound_to 8367
  112.4431  239.5866  319.9898 H   0  0  0  0  0  0  0  0  0  0  0  0  # atno 8387 bound_to 8378
  115.1105  242.9673  317.4699 H   0  0  0  0  0  0  0  0  0  0  0  0  # atno 8487 bound_to 8482
  114.8651  246.4497  316.4352 H   0  0  0  0  0  0  0  0  0  0  0  0  # atno 8511 bound_to 8504
  111.3853  247.4849  316.8860 H   0  0  0  0  0  0  0  0  0  0  0  0  # atno 8541 bound_to 8535
  115.9036  249.2593  313.5788 H   0  0  0  0  0  0  0  0  0  0  0  0  # atno 9007 bound_to 8996
  119.6959  248.3782  315.7006 H   0  0  0  0  0  0  0  0  0  0  0  0  # atno 9037 bound_to 9031
  119.4993  245.1939  312.8360 H   0  0  0  0  0  0  0  0  0  0  0  0  # atno 9041 bound_to 9036
  120.3506  245.5033  317.7993 H   0  0  0  0  0  0  0  0  0  0  0  0  # atno 9055 bound_to 9051
  123.7933  243.5496  319.1044 H   0  0  0  0  0  0  0  0  0  0  0  0  # atno 9089 bound_to 9075
  122.5989  239.3690  320.5512 H   0  0  0  0  0  0  0  0  0  0  0  0  # atno 9133 bound_to 9121
  114.9398  239.9355  321.7417 H   0  0  0  0  0  0  0  0  0  0  0  0  # atno 9141 bound_to 9132
  122.6477  240.3778  323.9408 H   0  0  0  0  0  0  0  0  0  0  0  0  # atno 9170 bound_to 9159
  121.8970  238.2676  326.2959 H   0  0  0  0  0  0  0  0  0  0  0  0  # atno 9196 bound_to 9189
  118.0915  238.2410  329.2384 H   0  0  0  0  0  0  0  0  0  0  0  0  # atno 9251 bound_to 9236
  114.8372  237.8364  330.9349 H   0  0  0  0  0  0  0  0  0  0  0  0  # atno 9376 bound_to 9352
  112.7878  237.7814  327.9317 H   0  0  0  0  0  0  0  0  0  0  0  0  # atno 9409 bound_to 9397
  125.4512  238.5858  323.9904 H   0  0  0  0  0  0  0  0  0  0  0  0  # atno 11109 bound_to 11102
  115.8066  239.1875  316.6595 LP  0  0  0  0  0  0  0  0  0  0  0  0  # atno 13518 bound_to 8422
  115.8230  240.7769  315.9714 LP  0  0  0  0  0  0  0  0  0  0  0  0  # atno 13519 bound_to 8422
  118.9455  243.4088  317.1429 LP  0  0  0  0  0  0  0  0  0  0  0  0  # atno 13521 bound_to 8459
  118.1402  244.7877  317.8139 LP  0  0  0  0  0  0  0  0  0  0  0  0  # atno 13522 bound_to 8459
  116.7802  243.3894  317.7601 LP  0  0  0  0  0  0  0  0  0  0  0  0  # atno 13523 bound_to 8482
  115.4114  246.2789  318.0866 LP  0  0  0  0  0  0  0  0  0  0  0  0  # atno 13524 bound_to 8504
  117.1971  246.9380  316.8804 LP  0  0  0  0  0  0  0  0  0  0  0  0  # atno 13525 bound_to 8999
  116.0196  247.7883  315.9367 LP  0  0  0  0  0  0  0  0  0  0  0  0  # atno 13526 bound_to 8999
  120.8105  245.0727  316.1659 LP  0  0  0  0  0  0  0  0  0  0  0  0  # atno 13527 bound_to 9051
  121.4599  242.2042  316.6993 LP  0  0  0  0  0  0  0  0  0  0  0  0  # atno 13528 bound_to 9054
  123.0757  242.4593  316.1301 LP  0  0  0  0  0  0  0  0  0  0  0  0  # atno 13529 bound_to 9054
  122.1452  243.3775  318.5456 LP  0  0  0  0  0  0  0  0  0  0  0  0  # atno 13530 bound_to 9075
  123.3564  242.8576  321.7052 LP  0  0  0  0  0  0  0  0  0  0  0  0  # atno 13531 bound_to 9078
  121.6423  242.6459  321.8359 LP  0  0  0  0  0  0  0  0  0  0  0  0  # atno 13532 bound_to 9078
  122.4477  241.0930  320.8053 LP  0  0  0  0  0  0  0  0  0  0  0  0  # atno 13533 bound_to 9121
  124.1184  238.9847  324.3182 LP  0  0  0  0  0  0  0  0  0  0  0  0  # atno 13534 bound_to 9124
  124.0890  239.2397  322.6052 LP  0  0  0  0  0  0  0  0  0  0  0  0  # atno 13535 bound_to 9124
  114.8176  238.3175  321.6242 LP  0  0  0  0  0  0  0  0  0  0  0  0  # atno 13536 bound_to 9132
  115.1418  239.2134  320.2980 LP  0  0  0  0  0  0  0  0  0  0  0  0  # atno 13537 bound_to 9132
  121.0393  240.4376  324.6229 LP  0  0  0  0  0  0  0  0  0  0  0  0  # atno 13538 bound_to 9159
  119.9285  237.9677  326.7415 LP  0  0  0  0  0  0  0  0  0  0  0  0  # atno 13539 bound_to 9162
  120.0315  239.5565  326.0595 LP  0  0  0  0  0  0  0  0  0  0  0  0  # atno 13540 bound_to 9162
  119.1346  238.8524  327.9754 LP  0  0  0  0  0  0  0  0  0  0  0  0  # atno 13541 bound_to 9236
  122.7912  249.1845  326.7468 LP  0  0  0  0  0  0  0  0  0  0  0  0  # atno 13550 bound_to 3616
  124.8234  247.9193  326.9509 LP  0  0  0  0  0  0  0  0  0  0  0  0  # atno 13551 bound_to 3645
  118.3263  247.7995  314.7890 LP  0  0  0  0  0  0  0  0  0  0  0  0  # atno 13552 bound_to 9031
  122.3051  247.3394  316.2908 LP  0  0  0  0  0  0  0  0  0  0  0  0  # atno 13553 bound_to 9034
  121.6710  246.9684  314.7223 LP  0  0  0  0  0  0  0  0  0  0  0  0  # atno 13554 bound_to 9034
  121.0690  237.3495  317.6961 LP  0  0  0  0  0  0  0  0  0  0  0  0  # atno 13555 bound_to 8404
  120.1833  238.8265  317.5120 LP  0  0  0  0  0  0  0  0  0  0  0  0  # atno 13556 bound_to 8404
  123.2657  237.8280  327.2949 LP  0  0  0  0  0  0  0  0  0  0  0  0  # atno 13557 bound_to 9189
  126.7204  247.2733  316.9474 LP  0  0  0  0  0  0  0  0  0  0  0  0  # atno 13558 bound_to 4938
  125.7832  246.0209  316.4785 LP  0  0  0  0  0  0  0  0  0  0  0  0  # atno 13559 bound_to 4938
  120.5567  244.4374  313.8145 LP  0  0  0  0  0  0  0  0  0  0  0  0  # atno 13560 bound_to 9036
  120.5185  246.0688  313.7546 LP  0  0  0  0  0  0  0  0  0  0  0  0  # atno 13561 bound_to 9036
  112.6372  245.7607  316.5188 LP  0  0  0  0  0  0  0  0  0  0  0  0  # atno 13562 bound_to 8485
  113.3473  244.3808  315.7497 LP  0  0  0  0  0  0  0  0  0  0  0  0  # atno 13563 bound_to 8485
  113.8495  250.0213  316.0444 LP  0  0  0  0  0  0  0  0  0  0  0  0  # atno 13564 bound_to 8507
  114.5758  248.5713  315.4360 LP  0  0  0  0  0  0  0  0  0  0  0  0  # atno 13565 bound_to 8507
  115.6089  250.0257  315.1214 LP  0  0  0  0  0  0  0  0  0  0  0  0  # atno 13566 bound_to 8996
  112.6492  248.6851  316.9629 LP  0  0  0  0  0  0  0  0  0  0  0  0  # atno 13567 bound_to 8535
  122.8573  246.8779  313.2857 LP  0  0  0  0  0  0  0  0  0  0  0  0  # atno 13570 bound_to 4954
  119.5734  249.1266  313.1898 LP  0  0  0  0  0  0  0  0  0  0  0  0  # atno 13571 bound_to 4957
  120.9427  248.5469  314.0781 LP  0  0  0  0  0  0  0  0  0  0  0  0  # atno 13572 bound_to 4957
  110.7144  246.9666  317.5156 LP  0  0  0  0  0  0  0  0  0  0  0  0  # atno 13573 bound_to 5599
  109.7694  247.6117  318.8160 LP  0  0  0  0  0  0  0  0  0  0  0  0  # atno 13574 bound_to 5599
  112.2685  238.3377  321.0182 LP  0  0  0  0  0  0  0  0  0  0  0  0  # atno 13575 bound_to 8378
  111.1198  238.6439  319.8986 LP  0  0  0  0  0  0  0  0  0  0  0  0  # atno 13576 bound_to 8378
  108.4261  244.3286  317.3191 LP  0  0  0  0  0  0  0  0  0  0  0  0  # atno 13581 bound_to 5624
  112.2634  240.2016  316.9959 LP  0  0  0  0  0  0  0  0  0  0  0  0  # atno 13582 bound_to 5698
  111.0690  239.3755  317.9399 LP  0  0  0  0  0  0  0  0  0  0  0  0  # atno 13583 bound_to 5698
  114.4711  239.0374  327.4370 LP  0  0  0  0  0  0  0  0  0  0  0  0  # atno 13584 bound_to 9239
  114.3525  237.3095  327.4512 LP  0  0  0  0  0  0  0  0  0  0  0  0  # atno 13585 bound_to 9239
  106.5108  244.4866  318.6303 LP  0  0  0  0  0  0  0  0  0  0  0  0  # atno 13586 bound_to 5601
  106.0278  244.7356  320.1702 LP  0  0  0  0  0  0  0  0  0  0  0  0  # atno 13587 bound_to 5601
  108.6180  243.8057  314.9171 LP  0  0  0  0  0  0  0  0  0  0  0  0  # atno 13588 bound_to 5627
  109.2576  242.2680  315.3930 LP  0  0  0  0  0  0  0  0  0  0  0  0  # atno 13589 bound_to 5627
  112.1062  243.3566  315.4880 LP  0  0  0  0  0  0  0  0  0  0  0  0  # atno 13590 bound_to 5657
  111.1979  241.5495  313.7614 LP  0  0  0  0  0  0  0  0  0  0  0  0  # atno 13591 bound_to 5695
  110.5270  239.2140  316.0590 LP  0  0  0  0  0  0  0  0  0  0  0  0  # atno 13592 bound_to 5736
  108.8579  236.1369  317.7941 LP  0  0  0  0  0  0  0  0  0  0  0  0  # atno 13593 bound_to 5785
  118.1204  235.5435  319.0279 LP  0  0  0  0  0  0  0  0  0  0  0  0  # atno 13596 bound_to 8370
  116.4219  235.8740  319.1046 LP  0  0  0  0  0  0  0  0  0  0  0  0  # atno 13597 bound_to 8370
  112.2765  236.7009  329.2037 LP  0  0  0  0  0  0  0  0  0  0  0  0  # atno 13598 bound_to 9397
  110.0134  237.6255  330.1559 LP  0  0  0  0  0  0  0  0  0  0  0  0  # atno 13601 bound_to 9355
  110.4311  235.9613  329.9193 LP  0  0  0  0  0  0  0  0  0  0  0  0  # atno 13602 bound_to 9355
  109.3486  233.7467  328.0741 LP  0  0  0  0  0  0  0  0  0  0  0  0  # atno 13603 bound_to 9400
  109.1132  235.0894  327.0056 LP  0  0  0  0  0  0  0  0  0  0  0  0  # atno 13604 bound_to 9400
  113.9755  236.3188  330.8460 LP  0  0  0  0  0  0  0  0  0  0  0  0  # atno 13608 bound_to 9352

> <Gold.Score>
     Fitness  S(hb_ext) S(vdw_ext)  S(hb_int)    S(int)      intcor
     36.14       0.07      26.62       0.00      -0.53      -0.77

> <Gold.Goldscore.Fitness>
36.1381

> <Gold.Goldscore.Internal.Vdw>
-0.7366

> <Gold.Goldscore.Internal.Torsion>
-0.5634

> <Gold.Goldscore.External.Vdw>
26.6176

> <Gold.Goldscore.Internal.HBond>
0.0000

> <Gold.Goldscore.External.HBond>
0.0702

> <Gold.Goldscore.Internal.Correction>
-0.7686

> <Gold.Goldscore.Hbonds>
donor molecule, donor type, donor heavy atom, donor atom, acceptor molecule, acceptor atom, score
      P1  H  9132  9141       L1     9  0.01
      P1  H  9397  9409       L1    17  0.02

> <Gold.Goldscore.Internal.Vdw.Weighted>
-0.7366

> <Gold.Goldscore.Internal.Torsion.Weighted>
-0.5634

> <Gold.Goldscore.External.Vdw.Weighted>
36.5992

> <Gold.Goldscore.Internal.HBond.Weighted>
0.0000

> <Gold.Goldscore.External.HBond.Weighted>
0.0702

> <Gold.Goldscore.Internal.Correction.Weighted>
-0.7686

> <Gold.Rescore>
     Score     S(PLP)   S(hbond)     S(cho)   S(metal)  DE(clash)   DE(tors)     intcor
     35.87     -34.36       1.00       0.00       0.00       0.00       0.75       ----

> <Gold.PLP.Fitness>
35.8651

> <Gold.PLP.PLP>
-34.3635

> <Gold.PLP.part.hbond>
-2.0000

> <Gold.PLP.part.metal>
0.0000

> <Gold.PLP.part.buried>
-7.7375

> <Gold.PLP.part.nonpolar>
-25.1781

> <Gold.PLP.part.repulsive>
0.5282

> <Gold.PLP.ligand.clash>
0.0000

> <Gold.PLP.ligand.torsion>
0.7492

> <Gold.PLP.Chemscore.Hbond>
1.0000

> <Gold.PLP.Chemscore.CHOScore>
0.0000

> <Gold.PLP.Chemscore.Metal>
0.0000

> <Gold.Chemscore.Hbonds>
donor molecule, donor type, donor heavy atom, donor atom, acceptor molecule, acceptor atom, score
      L1  H     8    22       P1  9404  0.14
      P1  H  9132  9141       L1     9  0.33

> <Gold.PLP.Chemscore.Internal.Correction>
   9.000000E+99

#       Name:                CT1002167954
#       Creating user name   hitesit
#       Creation time:       Sun Apr 16 22:52:03 2023


#       File generated by GOLD software.
#

@<TRIPOS>MOLECULE
CT1002167954|ligand_prepared|mol2|1|dock3
    29    30     1
SMALL
NO_CHARGES


@<TRIPOS>ATOM
      1 C1         113.2011 242.0771 323.9913 C.3            1 RES1               0.0000
      2 C2         114.0939 242.8526 323.0012 C.ar           1 RES1               0.0000
      3 C3         111.7599 242.4306 323.6360 C.2            1 RES1               0.0000
      4 C4         113.5430 240.6025 323.8092 C.2            1 RES1               0.0000
      5 C5         113.4459 242.4448 325.4733 C.3            1 RES1               0.0000
      6 C6         115.1357 243.6516 323.4625 C.ar           1 RES1               0.0000
      7 C7         113.8900 242.7768 321.6259 C.ar           1 RES1               0.0000
      8 N8         111.0144 241.4809 323.0016 N.am           1 RES1               0.0000
      9 O9         111.2968 243.5394 323.8733 O.2            1 RES1               0.0000
     10 N10        112.5715 239.7750 323.3101 N.am           1 RES1               0.0000
     11 O11        114.6502 240.1528 324.0778 O.2            1 RES1               0.0000
     12 C12        112.5010 241.7506 326.4415 C.3            1 RES1               0.0000
     13 C13        115.9462 244.3475 322.5810 C.ar           1 RES1               0.0000
     14 C14        114.7016 243.4737 320.7460 C.ar           1 RES1               0.0000
     15 C15        111.3326 240.1532 322.8692 C.2            1 RES1               0.0000
     16 C16        115.7301 244.2587 321.2223 C.ar           1 RES1               0.0000
     17 O17        110.5334 239.3588 322.3820 O.2            1 RES1               0.0000
     18 H18        114.4777 242.1813 325.7367 H              1 RES1               0.0000
     19 H19        113.3368 243.5301 325.5905 H              1 RES1               0.0000
     20 H20        115.3194 243.7357 324.5285 H              1 RES1               0.0000
     21 H21        113.0862 242.1663 321.2287 H              1 RES1               0.0000
     22 H22        110.1396 241.7863 322.5872 H              1 RES1               0.0000
     23 H23        112.7922 238.7853 323.2629 H              1 RES1               0.0000
     24 H24        112.7159 242.0435 327.4670 H              1 RES1               0.0000
     25 H25        111.4670 242.0104 326.2244 H              1 RES1               0.0000
     26 H26        112.6012 240.6695 326.3697 H              1 RES1               0.0000
     27 H27        116.7534 244.9650 322.9609 H              1 RES1               0.0000
     28 H28        114.5275 243.4013 319.6776 H              1 RES1               0.0000
     29 H29        116.3654 244.8035 320.5319 H              1 RES1               0.0000
@<TRIPOS>BOND
    1    1    2 1     
    2    1    3 1     
    3    1    4 1     
    4    1    5 1     
    5    2    6 ar    
    6    2    7 ar    
    7    3    8 1     
    8    3    9 2     
    9    4   10 1     
   10    4   11 2     
   11    5   12 1     
   12    5   18 1     
   13    5   19 1     
   14    6   13 ar    
   15    6   20 1     
   16    7   14 ar    
   17    7   21 1     
   18    8   15 1     
   19    8   22 1     
   20   10   15 1     
   21   10   23 1     
   22   12   24 1     
   23   12   25 1     
   24   12   26 1     
   25   13   16 ar    
   26   13   27 1     
   27   14   16 ar    
   28   14   28 1     
   29   15   17 2     
   30   16   29 1     
@<TRIPOS>SUBSTRUCTURE
      1 RES1           1
@<TRIPOS>SET
DONOR_HYDROGENS      STATIC     ATOMS    <user>   **** ""
2 22 23
ATOM$RED        STATIC     ATOMS    COLORGROUP SYSTEM
2 22 23
@<TRIPOS>COMMENT
> <Gold.Version>
2022.3.0

> <Gold.Id.Protein>
unknown|4uh5_clean|pdb

> <Gold.Protein.RotatedTorsions>
[ 8487 8482 8483 8484 ] final  -74.41 input   34.95 | X-H torsion
[ 8511 8504 8505 8506 ] final   41.64 input  102.00 | X-H torsion
[ 9055 9051 9052 9053 ] final -144.40 input   39.76 | X-H torsion
[ 9089 9075 9076 9077 ] final   -8.30 input   37.88 | X-H torsion
[ 9133 9121 9122 9123 ] final -104.51 input   94.46 | X-H torsion
[ 9141 9132 9131 9129 ] final  -11.99 input   60.01 | X-H torsion
[ 9170 9159 9160 9161 ] final -112.55 input   86.63 | X-H torsion
[ 9251 9236 9237 9238 ] final -101.40 input  127.08 | X-H torsion
[ 3623 3616 3617 3618 ] final   12.26 input   94.27 | X-H torsion
[ 3649 3645 3646 3647 ] final  -61.18 input   86.49 | X-H torsion
[ 9037 9031 9032 9033 ] final  -20.33 input   26.45 | X-H torsion
[ 9196 9189 9190 9191 ] final   66.08 input  130.40 | X-H torsion
[ 4943 4938 4937 4934 ] final -166.98 input   60.00 | X-H torsion
[ 9041 9036 9035 9032 ] final  101.73 input   59.99 | X-H torsion
[ 9007 8996 8997 8998 ] final   92.32 input   49.09 | X-H torsion
[ 8541 8535 8536 8537 ] final   64.18 input   50.11 | X-H torsion
[ 4959 4954 4955 4956 ] final   12.64 input   27.83 | X-H torsion
[ 8387 8378 8377 8375 ] final  -93.45 input   59.99 | X-H torsion
[ 5633 5624 5625 5626 ] final -122.12 input   44.71 | X-H torsion
[ 5606 5601 5600 5597 ] final -116.56 input   59.98 | X-H torsion
[ 5665 5657 5658 5659 ] final  -93.33 input  114.33 | X-H torsion
[ 5703 5695 5696 5697 ] final -179.99 input   57.04 | X-H torsion
[ 5747 5736 5737 5738 ] final -173.81 input   30.88 | X-H torsion
[ 5797 5785 5786 5787 ] final  109.46 input   92.04 | X-H torsion
[ 9409 9397 9398 9399 ] final  169.93 input  123.68 | X-H torsion
[ 9376 9352 9353 9354 ] final -129.25 input  105.06 | X-H torsion
[ 11109 11102 11103 11104 ] final  159.93 input   57.11 | X-H torsion
[ 8379 8367 8368 8369 ] final  -71.94 input   85.33 | X-H torsion
[ 5602 5596 5597 5598 ] final  -98.70 input  106.64 | X-H torsion
[ 13518 8422 8421 8420 ] final  -67.64 input    0.00 | X-H torsion
[ 13521 8459 8458 8457 ] final  -73.14 input   -0.00 | X-H torsion
[ 13525 8999 8998 8997 ] final   84.19 input   -0.00 | X-H torsion
[ 13528 9054 9053 9052 ] final  -28.57 input   -0.00 | X-H torsion
[ 13531 9078 9077 9076 ] final -170.22 input    0.00 | X-H torsion
[ 13534 9124 9123 9122 ] final  143.27 input   -0.00 | X-H torsion
[ 13539 9162 9161 9160 ] final -171.89 input   -0.00 | X-H torsion
[ 13553 9034 9033 9032 ] final  -51.26 input    0.00 | X-H torsion
[ 13555 8404 8403 8402 ] final -144.03 input    0.00 | X-H torsion
[ 13562 8485 8484 8483 ] final   35.67 input    0.00 | X-H torsion
[ 13564 8507 8506 8505 ] final  -39.17 input   -0.00 | X-H torsion
[ 13571 4957 4956 4955 ] final   97.47 input   -0.00 | X-H torsion
[ 13573 5599 5598 5597 ] final  151.31 input   -0.00 | X-H torsion
[ 13582 5698 5697 5696 ] final   63.17 input   -0.00 | X-H torsion
[ 13584 9239 9238 9237 ] final  -17.93 input    0.00 | X-H torsion
[ 13588 5627 5626 5625 ] final   84.53 input    0.00 | X-H torsion
[ 13596 8370 8369 8368 ] final -117.42 input   -0.00 | X-H torsion
[ 13601 9355 9354 9353 ] final   70.35 input   -0.00 | X-H torsion
[ 13603 9400 9399 9398 ] final  172.03 input   -0.00 | X-H torsion

> <Gold.Protein.ActiveResidues>
 MET341  TRP414  CYS420  VAL421  GLY422  LEU429  LEU460  SER462  ALA463  ILE464 
 SER482  GLN483  LEU484  ILE485  ARG486  TYR487  ASP500  ALA502  ASN503  TRP566 
 TYR567  GLY568  LEU569  PRO570  ALA571  VAL572  SER573  ASN574  PRO588  PHE589 
 SER590  GLY591  TRP592  TYR593  MET594  GLY595  GLU597  ILE598  ARG601  ASP602 
 ASP605  ARG608  ILE653  VAL654  TRP683  PRO687  PHE696  HIS697  TYR711  HEM750 
 H4B760 

> <Gold.Protein.RotatedAtoms>
  122.7534  249.0201  326.7394 H   0  0  0  0  0  0  0  0  0  0  0  0  # atno 3623 bound_to 3616
  125.1314  248.8168  326.8717 H   0  0  0  0  0  0  0  0  0  0  0  0  # atno 3649 bound_to 3645
  125.9516  247.6116  317.4624 H   0  0  0  0  0  0  0  0  0  0  0  0  # atno 4943 bound_to 4938
  122.4833  247.7278  313.9925 H   0  0  0  0  0  0  0  0  0  0  0  0  # atno 4959 bound_to 4954
  106.4137  246.4404  316.1023 H   0  0  0  0  0  0  0  0  0  0  0  0  # atno 5602 bound_to 5596
  105.8036  244.7249  319.6896 H   0  0  0  0  0  0  0  0  0  0  0  0  # atno 5606 bound_to 5601
  109.0378  245.9580  317.4758 H   0  0  0  0  0  0  0  0  0  0  0  0  # atno 5633 bound_to 5624
  110.6730  244.1753  315.2512 H   0  0  0  0  0  0  0  0  0  0  0  0  # atno 5665 bound_to 5657
  112.0663  241.3967  313.6170 H   0  0  0  0  0  0  0  0  0  0  0  0  # atno 5703 bound_to 5695
  110.3381  239.4657  316.0608 H   0  0  0  0  0  0  0  0  0  0  0  0  # atno 5747 bound_to 5736
  108.5158  236.2617  318.7401 H   0  0  0  0  0  0  0  0  0  0  0  0  # atno 5797 bound_to 5785
  115.6264  232.9188  318.6781 H   0  0  0  0  0  0  0  0  0  0  0  0  # atno 8379 bound_to 8367
  111.5090  239.2822  319.5900 H   0  0  0  0  0  0  0  0  0  0  0  0  # atno 8387 bound_to 8378
  116.2132  243.7189  318.2643 H   0  0  0  0  0  0  0  0  0  0  0  0  # atno 8487 bound_to 8482
  115.4659  247.0433  316.8070 H   0  0  0  0  0  0  0  0  0  0  0  0  # atno 8511 bound_to 8504
  111.2631  247.6652  317.0530 H   0  0  0  0  0  0  0  0  0  0  0  0  # atno 8541 bound_to 8535
  115.6183  250.0690  315.1239 H   0  0  0  0  0  0  0  0  0  0  0  0  # atno 9007 bound_to 8996
  119.7301  248.3679  315.6516 H   0  0  0  0  0  0  0  0  0  0  0  0  # atno 9037 bound_to 9031
  120.5659  244.4546  313.8253 H   0  0  0  0  0  0  0  0  0  0  0  0  # atno 9041 bound_to 9036
  120.9071  245.9646  316.4936 H   0  0  0  0  0  0  0  0  0  0  0  0  # atno 9055 bound_to 9051
  122.5664  243.6188  319.6006 H   0  0  0  0  0  0  0  0  0  0  0  0  # atno 9089 bound_to 9075
  122.2437  241.0853  320.7085 H   0  0  0  0  0  0  0  0  0  0  0  0  # atno 9133 bound_to 9121
  114.8349  239.4775  322.0921 H   0  0  0  0  0  0  0  0  0  0  0  0  # atno 9141 bound_to 9132
  122.5796  240.1388  323.8939 H   0  0  0  0  0  0  0  0  0  0  0  0  # atno 9170 bound_to 9159
  122.8293  238.1314  327.6579 H   0  0  0  0  0  0  0  0  0  0  0  0  # atno 9196 bound_to 9189
  118.2533  238.8117  329.3616 H   0  0  0  0  0  0  0  0  0  0  0  0  # atno 9251 bound_to 9236
  114.2506  237.2257  331.7465 H   0  0  0  0  0  0  0  0  0  0  0  0  # atno 9376 bound_to 9352
  112.7377  237.8204  327.9480 H   0  0  0  0  0  0  0  0  0  0  0  0  # atno 9409 bound_to 9397
  126.4372  238.4792  323.2778 H   0  0  0  0  0  0  0  0  0  0  0  0  # atno 11109 bound_to 11102
  115.9239  240.3800  315.5540 LP  0  0  0  0  0  0  0  0  0  0  0  0  # atno 13518 bound_to 8422
  115.7057  239.5843  317.0769 LP  0  0  0  0  0  0  0  0  0  0  0  0  # atno 13519 bound_to 8422
  118.5564  244.2696  318.3272 LP  0  0  0  0  0  0  0  0  0  0  0  0  # atno 13521 bound_to 8459
  118.5293  243.9268  316.6296 LP  0  0  0  0  0  0  0  0  0  0  0  0  # atno 13522 bound_to 8459
  115.6985  242.6522  316.9809 LP  0  0  0  0  0  0  0  0  0  0  0  0  # atno 13523 bound_to 8482
  114.8256  245.7002  317.7241 LP  0  0  0  0  0  0  0  0  0  0  0  0  # atno 13524 bound_to 8504
  116.3105  247.0068  315.6776 LP  0  0  0  0  0  0  0  0  0  0  0  0  # atno 13525 bound_to 8999
  116.9062  247.7195  317.1395 LP  0  0  0  0  0  0  0  0  0  0  0  0  # atno 13526 bound_to 8999
  120.2726  244.6269  317.4279 LP  0  0  0  0  0  0  0  0  0  0  0  0  # atno 13527 bound_to 9051
  121.6876  242.8897  316.0951 LP  0  0  0  0  0  0  0  0  0  0  0  0  # atno 13528 bound_to 9054
  122.8479  241.7738  316.7343 LP  0  0  0  0  0  0  0  0  0  0  0  0  # atno 13529 bound_to 9054
  123.3395  243.3102  318.0626 LP  0  0  0  0  0  0  0  0  0  0  0  0  # atno 13530 bound_to 9075
  122.3852  242.2235  322.4473 LP  0  0  0  0  0  0  0  0  0  0  0  0  # atno 13531 bound_to 9078
  122.6135  243.2799  321.0938 LP  0  0  0  0  0  0  0  0  0  0  0  0  # atno 13532 bound_to 9078
  122.7927  239.4255  320.6525 LP  0  0  0  0  0  0  0  0  0  0  0  0  # atno 13533 bound_to 9121
  124.4013  239.6935  324.0305 LP  0  0  0  0  0  0  0  0  0  0  0  0  # atno 13534 bound_to 9124
  123.8061  238.5309  322.8929 LP  0  0  0  0  0  0  0  0  0  0  0  0  # atno 13535 bound_to 9124
  114.9170  238.2322  321.0484 LP  0  0  0  0  0  0  0  0  0  0  0  0  # atno 13536 bound_to 9132
  115.1481  239.7602  320.5208 LP  0  0  0  0  0  0  0  0  0  0  0  0  # atno 13537 bound_to 9132
  121.1057  240.6707  324.6688 LP  0  0  0  0  0  0  0  0  0  0  0  0  # atno 13538 bound_to 9159
  119.9267  238.0148  326.8348 LP  0  0  0  0  0  0  0  0  0  0  0  0  # atno 13539 bound_to 9162
  120.0333  239.5095  325.9662 LP  0  0  0  0  0  0  0  0  0  0  0  0  # atno 13540 bound_to 9162
  118.9772  238.2970  327.8556 LP  0  0  0  0  0  0  0  0  0  0  0  0  # atno 13541 bound_to 9236
  122.1477  249.5409  328.2960 LP  0  0  0  0  0  0  0  0  0  0  0  0  # atno 13550 bound_to 3616
  123.7921  248.1665  325.9611 LP  0  0  0  0  0  0  0  0  0  0  0  0  # atno 13551 bound_to 3645
  118.2925  247.8096  314.8373 LP  0  0  0  0  0  0  0  0  0  0  0  0  # atno 13552 bound_to 9031
  121.6880  246.9474  314.7209 LP  0  0  0  0  0  0  0  0  0  0  0  0  # atno 13553 bound_to 9034
  122.2881  247.3604  316.2923 LP  0  0  0  0  0  0  0  0  0  0  0  0  # atno 13554 bound_to 9034
  120.0730  238.7348  317.7646 LP  0  0  0  0  0  0  0  0  0  0  0  0  # atno 13555 bound_to 8404
  121.1792  237.4412  317.4434 LP  0  0  0  0  0  0  0  0  0  0  0  0  # atno 13556 bound_to 8404
  122.3648  237.9595  325.9789 LP  0  0  0  0  0  0  0  0  0  0  0  0  # atno 13557 bound_to 9189
  126.6398  246.5147  316.4773 LP  0  0  0  0  0  0  0  0  0  0  0  0  # atno 13558 bound_to 4938
  125.0874  246.3318  316.9498 LP  0  0  0  0  0  0  0  0  0  0  0  0  # atno 13559 bound_to 4938
  120.5044  246.0785  313.7415 LP  0  0  0  0  0  0  0  0  0  0  0  0  # atno 13560 bound_to 9036
  119.4962  245.1723  312.8311 LP  0  0  0  0  0  0  0  0  0  0  0  0  # atno 13561 bound_to 9036
  113.2030  244.2379  316.2437 LP  0  0  0  0  0  0  0  0  0  0  0  0  # atno 13562 bound_to 8485
  112.7815  245.9036  316.0249 LP  0  0  0  0  0  0  0  0  0  0  0  0  # atno 13563 bound_to 8485
  114.6739  249.4998  316.4444 LP  0  0  0  0  0  0  0  0  0  0  0  0  # atno 13564 bound_to 8507
  113.7514  249.0929  315.0360 LP  0  0  0  0  0  0  0  0  0  0  0  0  # atno 13565 bound_to 8507
  115.8876  249.2347  313.6121 LP  0  0  0  0  0  0  0  0  0  0  0  0  # atno 13566 bound_to 8996
  112.7698  248.5071  316.7980 LP  0  0  0  0  0  0  0  0  0  0  0  0  # atno 13567 bound_to 8535
  123.9969  247.4632  313.1633 LP  0  0  0  0  0  0  0  0  0  0  0  0  # atno 13570 bound_to 4954
  120.6228  249.4235  314.1560 LP  0  0  0  0  0  0  0  0  0  0  0  0  # atno 13571 bound_to 4957
  119.8933  248.2499  313.1118 LP  0  0  0  0  0  0  0  0  0  0  0  0  # atno 13572 bound_to 4957
  110.7607  246.6231  318.3587 LP  0  0  0  0  0  0  0  0  0  0  0  0  # atno 13573 bound_to 5599
  109.7231  247.9552  317.9729 LP  0  0  0  0  0  0  0  0  0  0  0  0  # atno 13574 bound_to 5599
  112.7753  239.1834  320.6072 LP  0  0  0  0  0  0  0  0  0  0  0  0  # atno 13575 bound_to 8378
  111.5538  238.1048  320.7123 LP  0  0  0  0  0  0  0  0  0  0  0  0  # atno 13576 bound_to 8378
  108.4454  244.3128  317.4078 LP  0  0  0  0  0  0  0  0  0  0  0  0  # atno 13581 bound_to 5624
  111.5808  240.6199  317.2409 LP  0  0  0  0  0  0  0  0  0  0  0  0  # atno 13582 bound_to 5698
  111.7517  238.9572  317.6949 LP  0  0  0  0  0  0  0  0  0  0  0  0  # atno 13583 bound_to 5698
  114.5136  238.8482  327.9774 LP  0  0  0  0  0  0  0  0  0  0  0  0  # atno 13584 bound_to 9239
  114.3101  237.4988  326.9108 LP  0  0  0  0  0  0  0  0  0  0  0  0  # atno 13585 bound_to 9239
  107.3065  244.5263  320.2808 LP  0  0  0  0  0  0  0  0  0  0  0  0  # atno 13586 bound_to 5601
  107.0343  244.4009  318.6756 LP  0  0  0  0  0  0  0  0  0  0  0  0  # atno 13587 bound_to 5601
  108.6442  243.7930  314.8517 LP  0  0  0  0  0  0  0  0  0  0  0  0  # atno 13588 bound_to 5627
  109.2314  242.2807  315.4584 LP  0  0  0  0  0  0  0  0  0  0  0  0  # atno 13589 bound_to 5627
  112.3671  243.7577  315.3048 LP  0  0  0  0  0  0  0  0  0  0  0  0  # atno 13590 bound_to 5657
  111.4328  241.6742  315.2220 LP  0  0  0  0  0  0  0  0  0  0  0  0  # atno 13591 bound_to 5695
  109.5029  238.2226  315.1511 LP  0  0  0  0  0  0  0  0  0  0  0  0  # atno 13592 bound_to 5736
  107.8683  237.0172  317.3073 LP  0  0  0  0  0  0  0  0  0  0  0  0  # atno 13593 bound_to 5785
  117.3300  236.5068  318.7351 LP  0  0  0  0  0  0  0  0  0  0  0  0  # atno 13596 bound_to 8370
  117.2122  234.9107  319.3974 LP  0  0  0  0  0  0  0  0  0  0  0  0  # atno 13597 bound_to 8370
  112.3258  236.6626  329.1877 LP  0  0  0  0  0  0  0  0  0  0  0  0  # atno 13598 bound_to 9397
  109.9699  237.6218  330.0288 LP  0  0  0  0  0  0  0  0  0  0  0  0  # atno 13601 bound_to 9355
  110.4747  235.9651  330.0464 LP  0  0  0  0  0  0  0  0  0  0  0  0  # atno 13602 bound_to 9355
  109.4211  233.6318  327.8490 LP  0  0  0  0  0  0  0  0  0  0  0  0  # atno 13603 bound_to 9400
  109.0407  235.2043  327.2307 LP  0  0  0  0  0  0  0  0  0  0  0  0  # atno 13604 bound_to 9400
  114.5488  236.9156  330.0528 LP  0  0  0  0  0  0  0  0  0  0  0  0  # atno 13608 bound_to 9352

> <Gold.Score>
     Fitness  S(hb_ext) S(vdw_ext)  S(hb_int)    S(int)      intcor
     36.04       0.36      26.52       0.00      -0.79      -0.77

> <Gold.Goldscore.Fitness>
36.0373

> <Gold.Goldscore.Internal.Vdw>
-1.1606

> <Gold.Goldscore.Internal.Torsion>
-0.3945

> <Gold.Goldscore.External.Vdw>
26.5203

> <Gold.Goldscore.Internal.HBond>
0.0000

> <Gold.Goldscore.External.HBond>
0.3583

> <Gold.Goldscore.Internal.Correction>
-0.7686

> <Gold.Goldscore.Hbonds>
donor molecule, donor type, donor heavy atom, donor atom, acceptor molecule, acceptor atom, score
      P1  H  9132  9141       L1    11  0.14
      L1  H    10    23       P1  9404  0.01

> <Gold.Goldscore.Internal.Vdw.Weighted>
-1.1606

> <Gold.Goldscore.Internal.Torsion.Weighted>
-0.3945

> <Gold.Goldscore.External.Vdw.Weighted>
36.4655

> <Gold.Goldscore.Internal.HBond.Weighted>
0.0000

> <Gold.Goldscore.External.HBond.Weighted>
0.3583

> <Gold.Goldscore.Internal.Correction.Weighted>
-0.7686

> <Gold.Rescore>
     Score     S(PLP)   S(hbond)     S(cho)   S(metal)  DE(clash)   DE(tors)     intcor
     31.68     -28.63       1.03       0.00       0.00       0.00       0.02       ----

> <Gold.PLP.Fitness>
31.6815

> <Gold.PLP.PLP>
-28.6281

> <Gold.PLP.part.hbond>
-6.8619

> <Gold.PLP.part.metal>
0.0000

> <Gold.PLP.part.buried>
2.5927

> <Gold.PLP.part.nonpolar>
-26.3599

> <Gold.PLP.part.repulsive>
0.8870

> <Gold.PLP.ligand.clash>
0.0000

> <Gold.PLP.ligand.torsion>
0.0234

> <Gold.PLP.Chemscore.Hbond>
1.0334

> <Gold.PLP.Chemscore.CHOScore>
0.0000

> <Gold.PLP.Chemscore.Metal>
0.0000

> <Gold.Chemscore.Hbonds>
donor molecule, donor type, donor heavy atom, donor atom, acceptor molecule, acceptor atom, score
      L1  H    10    23       P1  9404  0.12
      P1  H  9132  9141       L1    11  0.45

> <Gold.PLP.Chemscore.Internal.Correction>
   9.000000E+99

#       Name:                CT1002167954
#       Creating user name   hitesit
#       Creation time:       Sun Apr 16 22:52:02 2023


#       File generated by GOLD software.
#

@<TRIPOS>MOLECULE
CT1002167954|ligand_prepared|mol2|1|dock2
    29    30     1
SMALL
NO_CHARGES


@<TRIPOS>ATOM
      1 C1         113.1626 242.3392 323.5168 C.3            1 RES1               0.0000
      2 C2         114.2467 243.1658 322.7955 C.ar           1 RES1               0.0000
      3 C3         113.7075 240.9179 323.6230 C.2            1 RES1               0.0000
      4 C4         112.9321 243.0192 324.8619 C.2            1 RES1               0.0000
      5 C5         111.8107 242.2923 322.7673 C.3            1 RES1               0.0000
      6 C6         115.1182 243.9754 323.5179 C.ar           1 RES1               0.0000
      7 C7         114.3889 243.1272 321.4110 C.ar           1 RES1               0.0000
      8 N8         114.1320 240.4938 324.8476 N.am           1 RES1               0.0000
      9 O9         113.8000 240.1939 322.6393 O.2            1 RES1               0.0000
     10 N10        113.2753 242.3313 325.9963 N.am           1 RES1               0.0000
     11 O11        112.4719 244.1510 324.9489 O.2            1 RES1               0.0000
     12 C12        110.6939 241.6296 323.5582 C.3            1 RES1               0.0000
     13 C13        116.0984 244.7171 322.8797 C.ar           1 RES1               0.0000
     14 C14        115.3697 243.8700 320.7747 C.ar           1 RES1               0.0000
     15 C15        113.8933 241.1117 326.0489 C.2            1 RES1               0.0000
     16 C16        116.2251 244.6647 321.5079 C.ar           1 RES1               0.0000
     17 O17        114.2201 240.5814 327.1067 O.2            1 RES1               0.0000
     18 H18        111.5082 243.3174 322.5202 H              1 RES1               0.0000
     19 H19        111.9479 241.7470 321.8254 H              1 RES1               0.0000
     20 H20        115.0321 244.0313 324.5979 H              1 RES1               0.0000
     21 H21        113.7264 242.5099 320.8138 H              1 RES1               0.0000
     22 H22        114.6775 239.6381 324.8726 H              1 RES1               0.0000
     23 H23        113.0490 242.7690 326.8837 H              1 RES1               0.0000
     24 H24        109.7680 241.6231 322.9869 H              1 RES1               0.0000
     25 H25        110.9504 240.6001 323.7995 H              1 RES1               0.0000
     26 H26        110.5133 242.1612 324.4902 H              1 RES1               0.0000
     27 H27        116.7682 245.3420 323.4611 H              1 RES1               0.0000
     28 H28        115.4653 243.8261 319.6948 H              1 RES1               0.0000
     29 H29        116.9932 245.2456 321.0082 H              1 RES1               0.0000
@<TRIPOS>BOND
    1    1    2 1     
    2    1    3 1     
    3    1    4 1     
    4    1    5 1     
    5    2    6 ar    
    6    2    7 ar    
    7    3    8 1     
    8    3    9 2     
    9    4   10 1     
   10    4   11 2     
   11    5   12 1     
   12    5   18 1     
   13    5   19 1     
   14    6   13 ar    
   15    6   20 1     
   16    7   14 ar    
   17    7   21 1     
   18    8   15 1     
   19    8   22 1     
   20   10   15 1     
   21   10   23 1     
   22   12   24 1     
   23   12   25 1     
   24   12   26 1     
   25   13   16 ar    
   26   13   27 1     
   27   14   16 ar    
   28   14   28 1     
   29   15   17 2     
   30   16   29 1     
@<TRIPOS>SUBSTRUCTURE
      1 RES1           1
@<TRIPOS>SET
DONOR_HYDROGENS      STATIC     ATOMS    <user>   **** ""
2 22 23
ATOM$RED        STATIC     ATOMS    COLORGROUP SYSTEM
2 22 23
@<TRIPOS>COMMENT
> <Gold.Version>
2022.3.0

> <Gold.Id.Protein>
unknown|4uh5_clean|pdb

> <Gold.Protein.RotatedTorsions>
[ 8487 8482 8483 8484 ] final  170.12 input   34.95 | X-H torsion
[ 8511 8504 8505 8506 ] final -134.39 input  102.00 | X-H torsion
[ 9055 9051 9052 9053 ] final -114.54 input   39.76 | X-H torsion
[ 9089 9075 9076 9077 ] final  -53.00 input   37.88 | X-H torsion
[ 9133 9121 9122 9123 ] final  147.04 input   94.46 | X-H torsion
[ 9141 9132 9131 9129 ] final  120.72 input   60.01 | X-H torsion
[ 9170 9159 9160 9161 ] final   57.60 input   86.63 | X-H torsion
[ 9251 9236 9237 9238 ] final  -24.28 input  127.08 | X-H torsion
[ 3623 3616 3617 3618 ] final  -78.23 input   94.27 | X-H torsion
[ 3649 3645 3646 3647 ] final   14.68 input   86.49 | X-H torsion
[ 9037 9031 9032 9033 ] final   74.75 input   26.45 | X-H torsion
[ 9196 9189 9190 9191 ] final   69.08 input  130.40 | X-H torsion
[ 4943 4938 4937 4934 ] final  -81.28 input   60.00 | X-H torsion
[ 9041 9036 9035 9032 ] final   18.53 input   59.99 | X-H torsion
[ 9007 8996 8997 8998 ] final  156.64 input   49.09 | X-H torsion
[ 8541 8535 8536 8537 ] final   53.77 input   50.11 | X-H torsion
[ 4959 4954 4955 4956 ] final   -2.49 input   27.83 | X-H torsion
[ 8387 8378 8377 8375 ] final  161.13 input   59.99 | X-H torsion
[ 5633 5624 5625 5626 ] final   -5.87 input   44.71 | X-H torsion
[ 5606 5601 5600 5597 ] final -136.39 input   59.98 | X-H torsion
[ 5665 5657 5658 5659 ] final   88.17 input  114.33 | X-H torsion
[ 5703 5695 5696 5697 ] final  142.09 input   57.04 | X-H torsion
[ 5747 5736 5737 5738 ] final  -31.92 input   30.88 | X-H torsion
[ 5797 5785 5786 5787 ] final -122.62 input   92.04 | X-H torsion
[ 9409 9397 9398 9399 ] final -114.31 input  123.68 | X-H torsion
[ 9376 9352 9353 9354 ] final  -24.94 input  105.06 | X-H torsion
[ 11109 11102 11103 11104 ] final  -68.25 input   57.11 | X-H torsion
[ 8379 8367 8368 8369 ] final  171.25 input   85.33 | X-H torsion
[ 5602 5596 5597 5598 ] final   94.34 input  106.64 | X-H torsion
[ 13518 8422 8421 8420 ] final   40.26 input    0.00 | X-H torsion
[ 13521 8459 8458 8457 ] final -131.80 input   -0.00 | X-H torsion
[ 13525 8999 8998 8997 ] final -170.53 input   -0.00 | X-H torsion
[ 13528 9054 9053 9052 ] final  -20.98 input   -0.00 | X-H torsion
[ 13531 9078 9077 9076 ] final   20.20 input    0.00 | X-H torsion
[ 13534 9124 9123 9122 ] final  121.42 input   -0.00 | X-H torsion
[ 13539 9162 9161 9160 ] final  178.45 input   -0.00 | X-H torsion
[ 13553 9034 9033 9032 ] final  174.68 input    0.00 | X-H torsion
[ 13555 8404 8403 8402 ] final   -2.85 input    0.00 | X-H torsion
[ 13562 8485 8484 8483 ] final  153.31 input    0.00 | X-H torsion
[ 13564 8507 8506 8505 ] final -177.78 input   -0.00 | X-H torsion
[ 13571 4957 4956 4955 ] final -145.09 input   -0.00 | X-H torsion
[ 13573 5599 5598 5597 ] final   55.90 input   -0.00 | X-H torsion
[ 13582 5698 5697 5696 ] final   43.14 input   -0.00 | X-H torsion
[ 13584 9239 9238 9237 ] final  -36.50 input    0.00 | X-H torsion
[ 13588 5627 5626 5625 ] final   13.21 input    0.00 | X-H torsion
[ 13596 8370 8369 8368 ] final   77.75 input   -0.00 | X-H torsion
[ 13601 9355 9354 9353 ] final -133.14 input   -0.00 | X-H torsion
[ 13603 9400 9399 9398 ] final  -85.40 input   -0.00 | X-H torsion

> <Gold.Protein.ActiveResidues>
 MET341  TRP414  CYS420  VAL421  GLY422  LEU429  LEU460  SER462  ALA463  ILE464 
 SER482  GLN483  LEU484  ILE485  ARG486  TYR487  ASP500  ALA502  ASN503  TRP566 
 TYR567  GLY568  LEU569  PRO570  ALA571  VAL572  SER573  ASN574  PRO588  PHE589 
 SER590  GLY591  TRP592  TYR593  MET594  GLY595  GLU597  ILE598  ARG601  ASP602 
 ASP605  ARG608  ILE653  VAL654  TRP683  PRO687  PHE696  HIS697  TYR711  HEM750 
 H4B760 

> <Gold.Protein.RotatedAtoms>
  122.8118  250.0853  327.4126 H   0  0  0  0  0  0  0  0  0  0  0  0  # atno 3623 bound_to 3616
  124.5163  249.3234  326.1404 H   0  0  0  0  0  0  0  0  0  0  0  0  # atno 3649 bound_to 3645
  125.0099  246.7766  317.2709 H   0  0  0  0  0  0  0  0  0  0  0  0  # atno 4943 bound_to 4938
  122.5925  247.9186  314.0666 H   0  0  0  0  0  0  0  0  0  0  0  0  # atno 4959 bound_to 4954
  106.2209  245.0491  317.1615 H   0  0  0  0  0  0  0  0  0  0  0  0  # atno 5602 bound_to 5596
  105.9104  244.7390  319.9933 H   0  0  0  0  0  0  0  0  0  0  0  0  # atno 5606 bound_to 5601
  108.4337  244.8467  316.6531 H   0  0  0  0  0  0  0  0  0  0  0  0  # atno 5633 bound_to 5624
  112.3868  243.7766  315.3006 H   0  0  0  0  0  0  0  0  0  0  0  0  # atno 5665 bound_to 5657
  112.4983  241.3726  313.9949 H   0  0  0  0  0  0  0  0  0  0  0  0  # atno 5703 bound_to 5695
  109.9613  237.9660  315.3818 H   0  0  0  0  0  0  0  0  0  0  0  0  # atno 5747 bound_to 5736
  108.4759  236.5650  317.1932 H   0  0  0  0  0  0  0  0  0  0  0  0  # atno 5797 bound_to 5785
  114.2639  233.3229  318.1913 H   0  0  0  0  0  0  0  0  0  0  0  0  # atno 8379 bound_to 8367
  112.7369  239.3399  320.4315 H   0  0  0  0  0  0  0  0  0  0  0  0  # atno 8387 bound_to 8378
  116.5989  242.8565  317.1107 H   0  0  0  0  0  0  0  0  0  0  0  0  # atno 8487 bound_to 8482
  114.7783  245.6728  317.6889 H   0  0  0  0  0  0  0  0  0  0  0  0  # atno 8511 bound_to 8504
  111.2259  247.7898  317.1452 H   0  0  0  0  0  0  0  0  0  0  0  0  # atno 8541 bound_to 8535
  115.8535  250.5251  314.3350 H   0  0  0  0  0  0  0  0  0  0  0  0  # atno 9007 bound_to 8996
  119.4110  247.9107  314.4836 H   0  0  0  0  0  0  0  0  0  0  0  0  # atno 9037 bound_to 9031
  120.8075  245.6568  314.0284 H   0  0  0  0  0  0  0  0  0  0  0  0  # atno 9041 bound_to 9036
  120.9297  245.6028  316.2124 H   0  0  0  0  0  0  0  0  0  0  0  0  # atno 9055 bound_to 9051
  122.1211  243.4932  319.1105 H   0  0  0  0  0  0  0  0  0  0  0  0  # atno 9089 bound_to 9075
  121.9114  239.7600  320.2554 H   0  0  0  0  0  0  0  0  0  0  0  0  # atno 9133 bound_to 9121
  115.1560  239.5835  320.4113 H   0  0  0  0  0  0  0  0  0  0  0  0  # atno 9141 bound_to 9132
  121.0417  240.5331  324.6618 H   0  0  0  0  0  0  0  0  0  0  0  0  # atno 9170 bound_to 9159
  122.8685  238.1079  327.6482 H   0  0  0  0  0  0  0  0  0  0  0  0  # atno 9196 bound_to 9189
  118.1607  237.8365  328.8509 H   0  0  0  0  0  0  0  0  0  0  0  0  # atno 9251 bound_to 9236
  113.9918  236.3017  330.7328 H   0  0  0  0  0  0  0  0  0  0  0  0  # atno 9376 bound_to 9352
  111.9217  237.8675  328.6554 H   0  0  0  0  0  0  0  0  0  0  0  0  # atno 9409 bound_to 9397
  126.1590  237.0842  324.0328 H   0  0  0  0  0  0  0  0  0  0  0  0  # atno 11109 bound_to 11102
  115.8951  239.1299  316.1844 LP  0  0  0  0  0  0  0  0  0  0  0  0  # atno 13518 bound_to 8422
  115.7345  240.8344  316.4465 LP  0  0  0  0  0  0  0  0  0  0  0  0  # atno 13519 bound_to 8422
  118.1371  244.7903  317.8047 LP  0  0  0  0  0  0  0  0  0  0  0  0  # atno 13521 bound_to 8459
  118.9486  243.4062  317.1522 LP  0  0  0  0  0  0  0  0  0  0  0  0  # atno 13522 bound_to 8459
  115.3202  243.4981  318.1124 LP  0  0  0  0  0  0  0  0  0  0  0  0  # atno 13523 bound_to 8482
  115.4961  247.0365  316.8642 LP  0  0  0  0  0  0  0  0  0  0  0  0  # atno 13524 bound_to 8504
  117.1768  246.7920  316.7258 LP  0  0  0  0  0  0  0  0  0  0  0  0  # atno 13525 bound_to 8999
  116.0399  247.9343  316.0913 LP  0  0  0  0  0  0  0  0  0  0  0  0  # atno 13526 bound_to 8999
  120.2508  244.9765  317.6996 LP  0  0  0  0  0  0  0  0  0  0  0  0  # atno 13527 bound_to 9051
  121.7754  242.9363  316.0377 LP  0  0  0  0  0  0  0  0  0  0  0  0  # atno 13528 bound_to 9054
  122.7601  241.7272  316.7917 LP  0  0  0  0  0  0  0  0  0  0  0  0  # atno 13529 bound_to 9054
  123.7730  243.4324  318.5396 LP  0  0  0  0  0  0  0  0  0  0  0  0  # atno 13530 bound_to 9075
  122.4567  243.2775  321.0837 LP  0  0  0  0  0  0  0  0  0  0  0  0  # atno 13531 bound_to 9078
  122.5420  242.2259  322.4574 LP  0  0  0  0  0  0  0  0  0  0  0  0  # atno 13532 bound_to 9078
  123.1155  240.7131  321.0927 LP  0  0  0  0  0  0  0  0  0  0  0  0  # atno 13533 bound_to 9121
  124.4475  239.8537  323.7478 LP  0  0  0  0  0  0  0  0  0  0  0  0  # atno 13534 bound_to 9124
  123.7598  238.3706  323.1756 LP  0  0  0  0  0  0  0  0  0  0  0  0  # atno 13535 bound_to 9124
  114.8637  239.6663  322.0095 LP  0  0  0  0  0  0  0  0  0  0  0  0  # atno 13536 bound_to 9132
  114.8779  238.2193  321.2529 LP  0  0  0  0  0  0  0  0  0  0  0  0  # atno 13537 bound_to 9132
  122.6052  240.2862  323.9201 LP  0  0  0  0  0  0  0  0  0  0  0  0  # atno 13538 bound_to 9159
  119.9294  237.9523  326.7031 LP  0  0  0  0  0  0  0  0  0  0  0  0  # atno 13539 bound_to 9162
  120.0306  239.5720  326.0979 LP  0  0  0  0  0  0  0  0  0  0  0  0  # atno 13540 bound_to 9162
  119.0673  239.2460  328.3525 LP  0  0  0  0  0  0  0  0  0  0  0  0  # atno 13541 bound_to 9236
  122.0910  248.5078  327.6431 LP  0  0  0  0  0  0  0  0  0  0  0  0  # atno 13550 bound_to 3616
  124.3972  247.6681  326.6804 LP  0  0  0  0  0  0  0  0  0  0  0  0  # atno 13551 bound_to 3645
  118.6078  248.2614  315.9915 LP  0  0  0  0  0  0  0  0  0  0  0  0  # atno 13552 bound_to 9031
  122.5908  246.8164  316.0289 LP  0  0  0  0  0  0  0  0  0  0  0  0  # atno 13553 bound_to 9034
  121.3853  247.4914  314.9843 LP  0  0  0  0  0  0  0  0  0  0  0  0  # atno 13554 bound_to 9034
  120.9071  237.3412  317.9406 LP  0  0  0  0  0  0  0  0  0  0  0  0  # atno 13555 bound_to 8404
  120.3451  238.8348  317.2674 LP  0  0  0  0  0  0  0  0  0  0  0  0  # atno 13556 bound_to 8404
  122.3269  237.9823  325.9882 LP  0  0  0  0  0  0  0  0  0  0  0  0  # atno 13557 bound_to 9189
  126.4473  247.5377  317.2264 LP  0  0  0  0  0  0  0  0  0  0  0  0  # atno 13558 bound_to 4938
  126.2286  246.1501  316.3936 LP  0  0  0  0  0  0  0  0  0  0  0  0  # atno 13559 bound_to 4938
  119.6119  245.7480  312.9283 LP  0  0  0  0  0  0  0  0  0  0  0  0  # atno 13560 bound_to 9036
  120.1454  244.2918  313.4397 LP  0  0  0  0  0  0  0  0  0  0  0  0  # atno 13561 bound_to 9036
  112.6161  245.4806  316.7980 LP  0  0  0  0  0  0  0  0  0  0  0  0  # atno 13562 bound_to 8485
  113.3684  244.6609  315.4705 LP  0  0  0  0  0  0  0  0  0  0  0  0  # atno 13563 bound_to 8485
  113.5363  249.6038  315.2952 LP  0  0  0  0  0  0  0  0  0  0  0  0  # atno 13564 bound_to 8507
  114.8890  248.9888  316.1852 LP  0  0  0  0  0  0  0  0  0  0  0  0  # atno 13565 bound_to 8507
  115.6578  248.7892  314.3827 LP  0  0  0  0  0  0  0  0  0  0  0  0  # atno 13566 bound_to 8996
  112.8066  248.3840  316.7070 LP  0  0  0  0  0  0  0  0  0  0  0  0  # atno 13567 bound_to 8535
  123.8897  247.2759  313.0905 LP  0  0  0  0  0  0  0  0  0  0  0  0  # atno 13570 bound_to 4954
  119.5698  249.0869  313.1716 LP  0  0  0  0  0  0  0  0  0  0  0  0  # atno 13571 bound_to 4957
  120.9463  248.5866  314.0962 LP  0  0  0  0  0  0  0  0  0  0  0  0  # atno 13572 bound_to 4957
  109.9248  247.3803  318.9665 LP  0  0  0  0  0  0  0  0  0  0  0  0  # atno 13573 bound_to 5599
  110.5590  247.1980  317.3651 LP  0  0  0  0  0  0  0  0  0  0  0  0  # atno 13574 bound_to 5599
  111.7508  238.1140  320.8474 LP  0  0  0  0  0  0  0  0  0  0  0  0  # atno 13575 bound_to 8378
  111.3416  239.1161  319.6246 LP  0  0  0  0  0  0  0  0  0  0  0  0  # atno 13576 bound_to 8378
  109.0311  245.3904  318.2055 LP  0  0  0  0  0  0  0  0  0  0  0  0  # atno 13581 bound_to 5624
  111.8461  240.5576  317.1126 LP  0  0  0  0  0  0  0  0  0  0  0  0  # atno 13582 bound_to 5698
  111.4864  239.0195  317.8232 LP  0  0  0  0  0  0  0  0  0  0  0  0  # atno 13583 bound_to 5698
  114.5185  238.6412  328.1651 LP  0  0  0  0  0  0  0  0  0  0  0  0  # atno 13584 bound_to 9239
  114.3051  237.7057  326.7231 LP  0  0  0  0  0  0  0  0  0  0  0  0  # atno 13585 bound_to 9239
  107.5136  244.4644  320.0387 LP  0  0  0  0  0  0  0  0  0  0  0  0  # atno 13586 bound_to 5601
  106.7197  244.4485  318.6118 LP  0  0  0  0  0  0  0  0  0  0  0  0  # atno 13587 bound_to 5601
  108.5316  243.4540  315.7961 LP  0  0  0  0  0  0  0  0  0  0  0  0  # atno 13588 bound_to 5627
  109.3440  242.6196  314.5140 LP  0  0  0  0  0  0  0  0  0  0  0  0  # atno 13589 bound_to 5627
  110.6820  244.1497  315.2562 LP  0  0  0  0  0  0  0  0  0  0  0  0  # atno 13590 bound_to 5657
  111.0108  241.6977  314.8527 LP  0  0  0  0  0  0  0  0  0  0  0  0  # atno 13591 bound_to 5695
  109.8651  239.6640  315.8037 LP  0  0  0  0  0  0  0  0  0  0  0  0  # atno 13592 bound_to 5736
  107.9078  236.7175  318.8355 LP  0  0  0  0  0  0  0  0  0  0  0  0  # atno 13593 bound_to 5785
  117.4388  234.9145  319.3678 LP  0  0  0  0  0  0  0  0  0  0  0  0  # atno 13596 bound_to 8370
  117.1035  236.5031  318.7647 LP  0  0  0  0  0  0  0  0  0  0  0  0  # atno 13597 bound_to 8370
  113.1280  236.6163  328.4922 LP  0  0  0  0  0  0  0  0  0  0  0  0  # atno 13598 bound_to 9397
  110.3493  235.9984  329.7185 LP  0  0  0  0  0  0  0  0  0  0  0  0  # atno 13601 bound_to 9355
  110.0952  237.5884  330.3567 LP  0  0  0  0  0  0  0  0  0  0  0  0  # atno 13602 bound_to 9355
  108.9821  234.8450  328.2511 LP  0  0  0  0  0  0  0  0  0  0  0  0  # atno 13603 bound_to 9400
  109.4797  233.9911  326.8286 LP  0  0  0  0  0  0  0  0  0  0  0  0  # atno 13604 bound_to 9400
  114.8018  237.8186  331.0434 LP  0  0  0  0  0  0  0  0  0  0  0  0  # atno 13608 bound_to 9352

> <Gold.Score>
     Fitness  S(hb_ext) S(vdw_ext)  S(hb_int)    S(int)      intcor
     35.41       0.09      26.51       0.00      -1.14      -0.77

> <Gold.Goldscore.Fitness>
35.4113

> <Gold.Goldscore.Internal.Vdw>
-1.4568

> <Gold.Goldscore.Internal.Torsion>
-0.4515

> <Gold.Goldscore.External.Vdw>
26.5145

> <Gold.Goldscore.Internal.HBond>
0.0000

> <Gold.Goldscore.External.HBond>
0.0935

> <Gold.Goldscore.Internal.Correction>
-0.7686

> <Gold.Goldscore.Hbonds>
donor molecule, donor type, donor heavy atom, donor atom, acceptor molecule, acceptor atom, score
      P1  H  8378  8387       L1     9  0.05

> <Gold.Goldscore.Internal.Vdw.Weighted>
-1.4568

> <Gold.Goldscore.Internal.Torsion.Weighted>
-0.4515

> <Gold.Goldscore.External.Vdw.Weighted>
36.4574

> <Gold.Goldscore.Internal.HBond.Weighted>
0.0000

> <Gold.Goldscore.External.HBond.Weighted>
0.0935

> <Gold.Goldscore.Internal.Correction.Weighted>
-0.7686

> <Gold.Rescore>
     Score     S(PLP)   S(hbond)     S(cho)   S(metal)  DE(clash)   DE(tors)     intcor
     33.25     -35.85       0.00       0.00       0.00       0.00       1.30       ----

> <Gold.PLP.Fitness>
33.2535

> <Gold.PLP.PLP>
-35.8473

> <Gold.PLP.part.hbond>
-2.0000

> <Gold.PLP.part.metal>
0.0000

> <Gold.PLP.part.buried>
-8.4398

> <Gold.PLP.part.nonpolar>
-26.9209

> <Gold.PLP.part.repulsive>
1.2625

> <Gold.PLP.ligand.clash>
0.0000

> <Gold.PLP.ligand.torsion>
1.2969

> <Gold.PLP.Chemscore.Hbond>
0.0000

> <Gold.PLP.Chemscore.CHOScore>
0.0000

> <Gold.PLP.Chemscore.Metal>
0.0000

> <Gold.Chemscore.Hbonds>
donor molecule, donor type, donor heavy atom, donor atom, acceptor molecule, acceptor atom, score
      L1  H     8    22       P1  9404  0.11

> <Gold.PLP.Chemscore.Internal.Correction>
   9.000000E+99

#       Name:                CT1002167954
#       Creating user name   hitesit
#       Creation time:       Sun Apr 16 22:52:04 2023


#       File generated by GOLD software.
#

@<TRIPOS>MOLECULE
CT1002167954|ligand_prepared|mol2|1|dock4
    29    30     1
SMALL
NO_CHARGES


@<TRIPOS>ATOM
      1 C1         112.5533 242.3538 324.5955 C.3            1 RES1               0.0000
      2 C2         112.0272 242.2854 326.0437 C.ar           1 RES1               0.0000
      3 C3         112.2045 243.7464 324.0783 C.2            1 RES1               0.0000
      4 C4         114.0504 242.0754 324.6718 C.2            1 RES1               0.0000
      5 C5         111.9201 241.3061 323.6505 C.3            1 RES1               0.0000
      6 C6         112.8270 242.6907 327.1080 C.ar           1 RES1               0.0000
      7 C7         110.7457 241.8226 326.3303 C.ar           1 RES1               0.0000
      8 N8         113.2207 244.6476 323.9557 N.am           1 RES1               0.0000
      9 O9         111.0495 244.0612 323.8195 O.2            1 RES1               0.0000
     10 N10        114.9098 243.0869 324.3311 N.am           1 RES1               0.0000
     11 O11        114.4937 240.9945 325.0399 O.2            1 RES1               0.0000
     12 C12        112.6131 241.1991 322.3013 C.3            1 RES1               0.0000
     13 C13        112.3615 242.6381 328.4114 C.ar           1 RES1               0.0000
     14 C14        110.2822 241.7707 327.6346 C.ar           1 RES1               0.0000
     15 C15        114.5631 244.3700 324.0060 C.2            1 RES1               0.0000
     16 C16        111.0889 242.1786 328.6756 C.ar           1 RES1               0.0000
     17 O17        115.3963 245.2388 323.7647 O.2            1 RES1               0.0000
     18 H18        111.9486 240.3253 324.1410 H              1 RES1               0.0000
     19 H19        110.8676 241.5686 323.4869 H              1 RES1               0.0000
     20 H20        113.8322 243.0529 326.9198 H              1 RES1               0.0000
     21 H21        110.0939 241.4956 325.5273 H              1 RES1               0.0000
     22 H22        112.9582 245.6178 323.8137 H              1 RES1               0.0000
     23 H23        115.8996 242.8624 324.3184 H              1 RES1               0.0000
     24 H24        112.1294 240.4503 321.6776 H              1 RES1               0.0000
     25 H25        112.5814 242.1506 321.7748 H              1 RES1               0.0000
     26 H26        113.6561 240.9147 322.4250 H              1 RES1               0.0000
     27 H27        113.0008 242.9590 329.2273 H              1 RES1               0.0000
     28 H28        109.2802 241.4077 327.8378 H              1 RES1               0.0000
     29 H29        110.7244 242.1378 329.6967 H              1 RES1               0.0000
@<TRIPOS>BOND
    1    1    2 1     
    2    1    3 1     
    3    1    4 1     
    4    1    5 1     
    5    2    6 ar    
    6    2    7 ar    
    7    3    8 1     
    8    3    9 2     
    9    4   10 1     
   10    4   11 2     
   11    5   12 1     
   12    5   18 1     
   13    5   19 1     
   14    6   13 ar    
   15    6   20 1     
   16    7   14 ar    
   17    7   21 1     
   18    8   15 1     
   19    8   22 1     
   20   10   15 1     
   21   10   23 1     
   22   12   24 1     
   23   12   25 1     
   24   12   26 1     
   25   13   16 ar    
   26   13   27 1     
   27   14   16 ar    
   28   14   28 1     
   29   15   17 2     
   30   16   29 1     
@<TRIPOS>SUBSTRUCTURE
      1 RES1           1
@<TRIPOS>SET
DONOR_HYDROGENS      STATIC     ATOMS    <user>   **** ""
2 22 23
ATOM$RED        STATIC     ATOMS    COLORGROUP SYSTEM
2 22 23
@<TRIPOS>COMMENT
> <Gold.Version>
2022.3.0

> <Gold.Id.Protein>
unknown|4uh5_clean|pdb

> <Gold.Protein.RotatedTorsions>
[ 8487 8482 8483 8484 ] final  140.12 input   34.95 | X-H torsion
[ 8511 8504 8505 8506 ] final   97.18 input  102.00 | X-H torsion
[ 9055 9051 9052 9053 ] final  -72.88 input   39.76 | X-H torsion
[ 9089 9075 9076 9077 ] final  176.36 input   37.88 | X-H torsion
[ 9133 9121 9122 9123 ] final  -45.60 input   94.46 | X-H torsion
[ 9141 9132 9131 9129 ] final   83.16 input   60.01 | X-H torsion
[ 9170 9159 9160 9161 ] final   95.23 input   86.63 | X-H torsion
[ 9251 9236 9237 9238 ] final  -15.72 input  127.08 | X-H torsion
[ 3623 3616 3617 3618 ] final -134.59 input   94.27 | X-H torsion
[ 3649 3645 3646 3647 ] final   98.00 input   86.49 | X-H torsion
[ 9037 9031 9032 9033 ] final  119.69 input   26.45 | X-H torsion
[ 9196 9189 9190 9191 ] final  144.81 input  130.40 | X-H torsion
[ 4943 4938 4937 4934 ] final -133.78 input   60.00 | X-H torsion
[ 9041 9036 9035 9032 ] final -145.10 input   59.99 | X-H torsion
[ 9007 8996 8997 8998 ] final   62.58 input   49.09 | X-H torsion
[ 8541 8535 8536 8537 ] final  -27.09 input   50.11 | X-H torsion
[ 4959 4954 4955 4956 ] final   85.59 input   27.83 | X-H torsion
[ 8387 8378 8377 8375 ] final  -86.25 input   59.99 | X-H torsion
[ 5633 5624 5625 5626 ] final  -69.15 input   44.71 | X-H torsion
[ 5606 5601 5600 5597 ] final  104.91 input   59.98 | X-H torsion
[ 5665 5657 5658 5659 ] final  -65.74 input  114.33 | X-H torsion
[ 5703 5695 5696 5697 ] final  -40.17 input   57.04 | X-H torsion
[ 5747 5736 5737 5738 ] final -100.07 input   30.88 | X-H torsion
[ 5797 5785 5786 5787 ] final  133.97 input   92.04 | X-H torsion
[ 9409 9397 9398 9399 ] final   82.61 input  123.68 | X-H torsion
[ 9376 9352 9353 9354 ] final  165.24 input  105.06 | X-H torsion
[ 11109 11102 11103 11104 ] final -101.19 input   57.11 | X-H torsion
[ 8379 8367 8368 8369 ] final    7.63 input   85.33 | X-H torsion
[ 5602 5596 5597 5598 ] final   44.36 input  106.64 | X-H torsion
[ 13518 8422 8421 8420 ] final  -87.49 input    0.00 | X-H torsion
[ 13521 8459 8458 8457 ] final  151.38 input   -0.00 | X-H torsion
[ 13525 8999 8998 8997 ] final  135.03 input   -0.00 | X-H torsion
[ 13528 9054 9053 9052 ] final   80.07 input   -0.00 | X-H torsion
[ 13531 9078 9077 9076 ] final   86.58 input    0.00 | X-H torsion
[ 13534 9124 9123 9122 ] final  138.60 input   -0.00 | X-H torsion
[ 13539 9162 9161 9160 ] final   61.37 input   -0.00 | X-H torsion
[ 13553 9034 9033 9032 ] final -114.34 input    0.00 | X-H torsion
[ 13555 8404 8403 8402 ] final   47.50 input    0.00 | X-H torsion
[ 13562 8485 8484 8483 ] final   38.90 input    0.00 | X-H torsion
[ 13564 8507 8506 8505 ] final  -32.81 input   -0.00 | X-H torsion
[ 13571 4957 4956 4955 ] final -109.97 input   -0.00 | X-H torsion
[ 13573 5599 5598 5597 ] final   17.90 input   -0.00 | X-H torsion
[ 13582 5698 5697 5696 ] final -170.84 input   -0.00 | X-H torsion
[ 13584 9239 9238 9237 ] final    9.40 input    0.00 | X-H torsion
[ 13588 5627 5626 5625 ] final   93.41 input    0.00 | X-H torsion
[ 13596 8370 8369 8368 ] final   73.79 input   -0.00 | X-H torsion
[ 13601 9355 9354 9353 ] final    8.80 input   -0.00 | X-H torsion
[ 13603 9400 9399 9398 ] final   48.06 input   -0.00 | X-H torsion

> <Gold.Protein.ActiveResidues>
 MET341  TRP414  CYS420  VAL421  GLY422  LEU429  LEU460  SER462  ALA463  ILE464 
 SER482  GLN483  LEU484  ILE485  ARG486  TYR487  ASP500  ALA502  ASN503  TRP566 
 TYR567  GLY568  LEU569  PRO570  ALA571  VAL572  SER573  ASN574  PRO588  PHE589 
 SER590  GLY591  TRP592  TYR593  MET594  GLY595  GLU597  ILE598  ARG601  ASP602 
 ASP605  ARG608  ILE653  VAL654  TRP683  PRO687  PHE696  HIS697  TYR711  HEM750 
 H4B760 

> <Gold.Protein.RotatedAtoms>
  122.3992  249.9391  328.1281 H   0  0  0  0  0  0  0  0  0  0  0  0  # atno 3623 bound_to 3616
  123.7845  248.4601  325.8453 H   0  0  0  0  0  0  0  0  0  0  0  0  # atno 3649 bound_to 3645
  125.4547  247.4253  317.5292 H   0  0  0  0  0  0  0  0  0  0  0  0  # atno 4943 bound_to 4938
  122.7205  246.9172  313.3727 H   0  0  0  0  0  0  0  0  0  0  0  0  # atno 4959 bound_to 4954
  106.8272  244.9415  316.7370 H   0  0  0  0  0  0  0  0  0  0  0  0  # atno 5602 bound_to 5596
  107.4974  244.4708  320.0529 H   0  0  0  0  0  0  0  0  0  0  0  0  # atno 5606 bound_to 5601
  108.7598  245.7111  316.7759 H   0  0  0  0  0  0  0  0  0  0  0  0  # atno 5633 bound_to 5624
  110.6754  243.7873  315.4113 H   0  0  0  0  0  0  0  0  0  0  0  0  # atno 5665 bound_to 5657
  110.9756  241.6957  314.8329 H   0  0  0  0  0  0  0  0  0  0  0  0  # atno 5703 bound_to 5695
  110.6451  238.4466  315.9329 H   0  0  0  0  0  0  0  0  0  0  0  0  # atno 5747 bound_to 5736
  108.7392  236.1291  318.4730 H   0  0  0  0  0  0  0  0  0  0  0  0  # atno 5797 bound_to 5785
  115.5737  233.9326  319.1710 H   0  0  0  0  0  0  0  0  0  0  0  0  # atno 8379 bound_to 8367
  111.4248  239.2014  319.6031 H   0  0  0  0  0  0  0  0  0  0  0  0  # atno 8387 bound_to 8378
  116.2148  242.6784  316.9404 H   0  0  0  0  0  0  0  0  0  0  0  0  # atno 8487 bound_to 8482
  115.7152  246.9580  317.5884 H   0  0  0  0  0  0  0  0  0  0  0  0  # atno 8511 bound_to 8504
  111.7652  248.7457  317.4477 H   0  0  0  0  0  0  0  0  0  0  0  0  # atno 8541 bound_to 8535
  115.5504  249.6307  315.2191 H   0  0  0  0  0  0  0  0  0  0  0  0  # atno 9007 bound_to 8996
  118.7537  247.7798  314.4604 H   0  0  0  0  0  0  0  0  0  0  0  0  # atno 9037 bound_to 9031
  119.5093  245.0621  312.8472 H   0  0  0  0  0  0  0  0  0  0  0  0  # atno 9041 bound_to 9036
  120.8158  244.9820  316.1639 H   0  0  0  0  0  0  0  0  0  0  0  0  # atno 9055 bound_to 9051
  123.2844  243.2873  318.0161 H   0  0  0  0  0  0  0  0  0  0  0  0  # atno 9089 bound_to 9075
  123.0037  240.8720  321.0803 H   0  0  0  0  0  0  0  0  0  0  0  0  # atno 9133 bound_to 9121
  115.1121  240.0006  320.8438 H   0  0  0  0  0  0  0  0  0  0  0  0  # atno 9141 bound_to 9132
  121.3384  241.0199  324.6913 H   0  0  0  0  0  0  0  0  0  0  0  0  # atno 9170 bound_to 9159
  123.3734  237.6153  326.8135 H   0  0  0  0  0  0  0  0  0  0  0  0  # atno 9196 bound_to 9189
  118.2055  237.7806  328.7397 H   0  0  0  0  0  0  0  0  0  0  0  0  # atno 9251 bound_to 9236
  114.7553  237.8200  331.1928 H   0  0  0  0  0  0  0  0  0  0  0  0  # atno 9376 bound_to 9352
  113.2212  236.7633  328.3028 H   0  0  0  0  0  0  0  0  0  0  0  0  # atno 9409 bound_to 9397
  126.5176  237.2127  323.7086 H   0  0  0  0  0  0  0  0  0  0  0  0  # atno 11109 bound_to 11102
  115.8768  240.6169  315.7295 LP  0  0  0  0  0  0  0  0  0  0  0  0  # atno 13518 bound_to 8422
  115.7528  239.3475  316.9014 LP  0  0  0  0  0  0  0  0  0  0  0  0  # atno 13519 bound_to 8422
  118.1944  244.4710  316.7787 LP  0  0  0  0  0  0  0  0  0  0  0  0  # atno 13521 bound_to 8459
  118.8913  243.7255  318.1781 LP  0  0  0  0  0  0  0  0  0  0  0  0  # atno 13522 bound_to 8459
  115.6970  243.6728  318.2795 LP  0  0  0  0  0  0  0  0  0  0  0  0  # atno 13523 bound_to 8482
  114.5825  245.7834  316.9622 LP  0  0  0  0  0  0  0  0  0  0  0  0  # atno 13524 bound_to 8504
  116.8141  246.6035  316.0471 LP  0  0  0  0  0  0  0  0  0  0  0  0  # atno 13525 bound_to 8999
  116.4026  248.1228  316.7700 LP  0  0  0  0  0  0  0  0  0  0  0  0  # atno 13526 bound_to 8999
  120.3608  245.5765  317.7464 LP  0  0  0  0  0  0  0  0  0  0  0  0  # atno 13527 bound_to 9051
  123.0458  242.5226  316.0857 LP  0  0  0  0  0  0  0  0  0  0  0  0  # atno 13528 bound_to 9054
  121.4897  242.1409  316.7437 LP  0  0  0  0  0  0  0  0  0  0  0  0  # atno 13529 bound_to 9054
  122.6405  243.6328  319.6049 LP  0  0  0  0  0  0  0  0  0  0  0  0  # atno 13530 bound_to 9075
  121.6908  242.9063  321.5016 LP  0  0  0  0  0  0  0  0  0  0  0  0  # atno 13531 bound_to 9078
  123.3079  242.5972  322.0395 LP  0  0  0  0  0  0  0  0  0  0  0  0  # atno 13532 bound_to 9078
  122.0544  239.6328  320.2912 LP  0  0  0  0  0  0  0  0  0  0  0  0  # atno 13533 bound_to 9121
  124.4151  239.7357  323.9758 LP  0  0  0  0  0  0  0  0  0  0  0  0  # atno 13534 bound_to 9124
  123.7923  238.4887  322.9476 LP  0  0  0  0  0  0  0  0  0  0  0  0  # atno 13535 bound_to 9124
  114.7874  239.0796  322.1449 LP  0  0  0  0  0  0  0  0  0  0  0  0  # atno 13536 bound_to 9132
  114.9984  238.3858  320.6818 LP  0  0  0  0  0  0  0  0  0  0  0  0  # atno 13537 bound_to 9132
  122.3159  239.8116  323.8912 LP  0  0  0  0  0  0  0  0  0  0  0  0  # atno 13538 bound_to 9159
  120.0216  238.8600  325.5410 LP  0  0  0  0  0  0  0  0  0  0  0  0  # atno 13539 bound_to 9162
  119.9384  238.6643  327.2600 LP  0  0  0  0  0  0  0  0  0  0  0  0  # atno 13540 bound_to 9162
  119.0236  239.3004  328.4607 LP  0  0  0  0  0  0  0  0  0  0  0  0  # atno 13541 bound_to 9236
  122.4912  248.6496  326.9492 LP  0  0  0  0  0  0  0  0  0  0  0  0  # atno 13550 bound_to 3616
  125.1171  248.5173  326.9708 LP  0  0  0  0  0  0  0  0  0  0  0  0  # atno 13551 bound_to 3645
  119.2573  248.3907  316.0144 LP  0  0  0  0  0  0  0  0  0  0  0  0  # atno 13552 bound_to 9031
  122.3412  246.4635  315.1211 LP  0  0  0  0  0  0  0  0  0  0  0  0  # atno 13553 bound_to 9034
  121.6350  247.8444  315.8921 LP  0  0  0  0  0  0  0  0  0  0  0  0  # atno 13554 bound_to 9034
  121.2158  237.5317  317.2994 LP  0  0  0  0  0  0  0  0  0  0  0  0  # atno 13555 bound_to 8404
  120.0364  238.6443  317.9086 LP  0  0  0  0  0  0  0  0  0  0  0  0  # atno 13556 bound_to 8404
  121.8391  238.4582  326.7948 LP  0  0  0  0  0  0  0  0  0  0  0  0  # atno 13557 bound_to 9189
  126.7915  246.9709  316.7205 LP  0  0  0  0  0  0  0  0  0  0  0  0  # atno 13558 bound_to 4938
  125.4363  246.0634  316.6392 LP  0  0  0  0  0  0  0  0  0  0  0  0  # atno 13559 bound_to 4938
  120.6364  244.5168  313.8865 LP  0  0  0  0  0  0  0  0  0  0  0  0  # atno 13560 bound_to 9036
  120.4286  246.1221  313.6714 LP  0  0  0  0  0  0  0  0  0  0  0  0  # atno 13561 bound_to 9036
  113.1850  244.2407  316.2889 LP  0  0  0  0  0  0  0  0  0  0  0  0  # atno 13562 bound_to 8485
  112.7995  245.9007  315.9796 LP  0  0  0  0  0  0  0  0  0  0  0  0  # atno 13563 bound_to 8485
  114.7263  249.4215  316.4261 LP  0  0  0  0  0  0  0  0  0  0  0  0  # atno 13564 bound_to 8507
  113.6990  249.1711  315.0543 LP  0  0  0  0  0  0  0  0  0  0  0  0  # atno 13565 bound_to 8507
  115.9539  249.6629  313.5191 LP  0  0  0  0  0  0  0  0  0  0  0  0  # atno 13566 bound_to 8996
  112.2740  247.4401  316.4083 LP  0  0  0  0  0  0  0  0  0  0  0  0  # atno 13567 bound_to 8535
  123.7641  248.2590  313.7717 LP  0  0  0  0  0  0  0  0  0  0  0  0  # atno 13570 bound_to 4954
  119.6643  248.5863  313.0554 LP  0  0  0  0  0  0  0  0  0  0  0  0  # atno 13571 bound_to 4957
  120.8519  249.0872  314.2124 LP  0  0  0  0  0  0  0  0  0  0  0  0  # atno 13572 bound_to 4957
  109.6897  247.7675  318.6308 LP  0  0  0  0  0  0  0  0  0  0  0  0  # atno 13573 bound_to 5599
  110.7941  246.8107  317.7008 LP  0  0  0  0  0  0  0  0  0  0  0  0  # atno 13574 bound_to 5599
  112.7652  239.2663  320.5234 LP  0  0  0  0  0  0  0  0  0  0  0  0  # atno 13575 bound_to 8378
  111.6487  238.1032  320.7829 LP  0  0  0  0  0  0  0  0  0  0  0  0  # atno 13576 bound_to 8378
  108.7149  244.5522  318.0864 LP  0  0  0  0  0  0  0  0  0  0  0  0  # atno 13581 bound_to 5624
  111.1020  239.3285  317.9369 LP  0  0  0  0  0  0  0  0  0  0  0  0  # atno 13582 bound_to 5698
  112.2305  240.2486  316.9989 LP  0  0  0  0  0  0  0  0  0  0  0  0  # atno 13583 bound_to 5698
  114.4874  239.0206  327.6072 LP  0  0  0  0  0  0  0  0  0  0  0  0  # atno 13584 bound_to 9239
  114.3362  237.3263  327.2810 LP  0  0  0  0  0  0  0  0  0  0  0  0  # atno 13585 bound_to 9239
  106.7406  244.4450  318.6126 LP  0  0  0  0  0  0  0  0  0  0  0  0  # atno 13586 bound_to 5601
  105.8941  244.7381  319.9779 LP  0  0  0  0  0  0  0  0  0  0  0  0  # atno 13587 bound_to 5601
  108.6986  243.7554  314.7350 LP  0  0  0  0  0  0  0  0  0  0  0  0  # atno 13588 bound_to 5627
  109.1770  242.3182  315.5751 LP  0  0  0  0  0  0  0  0  0  0  0  0  # atno 13589 bound_to 5627
  112.3648  244.1392  315.1474 LP  0  0  0  0  0  0  0  0  0  0  0  0  # atno 13590 bound_to 5657
  112.4982  241.3822  314.0342 LP  0  0  0  0  0  0  0  0  0  0  0  0  # atno 13591 bound_to 5695
  109.2079  239.2021  315.2741 LP  0  0  0  0  0  0  0  0  0  0  0  0  # atno 13592 bound_to 5736
  107.6477  237.1482  317.5712 LP  0  0  0  0  0  0  0  0  0  0  0  0  # atno 13593 bound_to 5785
  117.3802  234.9081  319.3777 LP  0  0  0  0  0  0  0  0  0  0  0  0  # atno 13596 bound_to 8370
  117.1620  236.5095  318.7549 LP  0  0  0  0  0  0  0  0  0  0  0  0  # atno 13597 bound_to 8370
  111.8504  237.7018  328.8388 LP  0  0  0  0  0  0  0  0  0  0  0  0  # atno 13598 bound_to 9397
  110.3324  237.2659  330.7550 LP  0  0  0  0  0  0  0  0  0  0  0  0  # atno 13601 bound_to 9355
  110.1121  236.3209  329.3202 LP  0  0  0  0  0  0  0  0  0  0  0  0  # atno 13602 bound_to 9355
  109.3008  234.6400  326.7057 LP  0  0  0  0  0  0  0  0  0  0  0  0  # atno 13603 bound_to 9400
  109.1610  234.1961  328.3740 LP  0  0  0  0  0  0  0  0  0  0  0  0  # atno 13604 bound_to 9400
  114.0557  236.3348  330.5939 LP  0  0  0  0  0  0  0  0  0  0  0  0  # atno 13608 bound_to 9352

> <Gold.Score>
     Fitness  S(hb_ext) S(vdw_ext)  S(hb_int)    S(int)      intcor
     34.04       5.06      21.35       0.00      -0.38      -0.77

> <Gold.Goldscore.Fitness>
34.0371

> <Gold.Goldscore.Internal.Vdw>
-0.6036

> <Gold.Goldscore.Internal.Torsion>
-0.5435

> <Gold.Goldscore.External.Vdw>
21.3516

> <Gold.Goldscore.Internal.HBond>
0.0000

> <Gold.Goldscore.External.HBond>
5.0571

> <Gold.Goldscore.Internal.Correction>
-0.7686

> <Gold.Goldscore.Hbonds>
donor molecule, donor type, donor heavy atom, donor atom, acceptor molecule, acceptor atom, score
      L1  H    10    23       P1  9243  0.84

> <Gold.Goldscore.Internal.Vdw.Weighted>
-0.6036

> <Gold.Goldscore.Internal.Torsion.Weighted>
-0.5435

> <Gold.Goldscore.External.Vdw.Weighted>
29.3585

> <Gold.Goldscore.Internal.HBond.Weighted>
0.0000

> <Gold.Goldscore.External.HBond.Weighted>
5.0571

> <Gold.Goldscore.Internal.Correction.Weighted>
-0.7686

> <Gold.Rescore>
     Score     S(PLP)   S(hbond)     S(cho)   S(metal)  DE(clash)   DE(tors)     intcor
     28.37     -28.52       0.72       0.00       0.00       0.64       0.84       ----

> <Gold.PLP.Fitness>
28.3722

> <Gold.PLP.PLP>
-28.5238

> <Gold.PLP.part.hbond>
-2.6818

> <Gold.PLP.part.metal>
0.0000

> <Gold.PLP.part.buried>
-6.3105

> <Gold.PLP.part.nonpolar>
-19.9855

> <Gold.PLP.part.repulsive>
0.5549

> <Gold.PLP.ligand.clash>
0.6405

> <Gold.PLP.ligand.torsion>
0.8355

> <Gold.PLP.Chemscore.Hbond>
0.7200

> <Gold.PLP.Chemscore.CHOScore>
0.0000

> <Gold.PLP.Chemscore.Metal>
0.0000

> <Gold.Chemscore.Hbonds>
donor molecule, donor type, donor heavy atom, donor atom, acceptor molecule, acceptor atom, score
      L1  H    10    23       P1  9243  1.00

> <Gold.PLP.Chemscore.Internal.Correction>
   9.000000E+99

#       Name:                CT1002167954
#       Creating user name   hitesit
#       Creation time:       Sun Apr 16 22:52:01 2023


#       File generated by GOLD software.
#

@<TRIPOS>MOLECULE
CT1002167954|ligand_prepared|mol2|1|dock1
    29    30     1
SMALL
NO_CHARGES


@<TRIPOS>ATOM
      1 C1         112.6557 241.8909 323.9907 C.3            1 RES1               0.0000
      2 C2         112.8070 242.0539 325.5169 C.ar           1 RES1               0.0000
      3 C3         112.3790 243.2853 323.4362 C.2            1 RES1               0.0000
      4 C4         113.9586 241.2722 323.4965 C.2            1 RES1               0.0000
      5 C5         111.4953 240.9575 323.5739 C.3            1 RES1               0.0000
      6 C6         114.0479 242.3369 326.0798 C.ar           1 RES1               0.0000
      7 C7         111.7163 241.9270 326.3730 C.ar           1 RES1               0.0000
      8 N8         113.3876 243.9090 322.7627 N.am           1 RES1               0.0000
      9 O9         111.3055 243.8452 323.6213 O.2            1 RES1               0.0000
     10 N10        114.7545 242.0240 322.6724 N.am           1 RES1               0.0000
     11 O11        114.3113 240.1466 323.8267 O.2            1 RES1               0.0000
     12 C12        111.6093 240.4355 322.1503 C.3            1 RES1               0.0000
     13 C13        114.1927 242.4904 327.4486 C.ar           1 RES1               0.0000
     14 C14        111.8634 242.0807 327.7417 C.ar           1 RES1               0.0000
     15 C15        114.5429 243.3258 322.3079 C.2            1 RES1               0.0000
     16 C16        113.1007 242.3629 328.2804 C.ar           1 RES1               0.0000
     17 O17        115.3325 243.9528 321.6076 O.2            1 RES1               0.0000
     18 H18        111.4647 240.1035 324.2618 H              1 RES1               0.0000
     19 H19        110.5492 241.5035 323.6751 H              1 RES1               0.0000
     20 H20        114.9191 242.4384 325.4413 H              1 RES1               0.0000
     21 H21        110.7335 241.7042 325.9715 H              1 RES1               0.0000
     22 H22        113.2723 244.9009 322.5804 H              1 RES1               0.0000
     23 H23        115.5812 241.5713 322.2957 H              1 RES1               0.0000
     24 H24        110.7704 239.7860 321.9093 H              1 RES1               0.0000
     25 H25        111.6171 241.2575 321.4375 H              1 RES1               0.0000
     26 H26        112.5272 239.8658 322.0208 H              1 RES1               0.0000
     27 H27        115.1689 242.7111 327.8678 H              1 RES1               0.0000
     28 H28        111.0013 241.9789 328.3925 H              1 RES1               0.0000
     29 H29        113.2143 242.4836 329.3526 H              1 RES1               0.0000
@<TRIPOS>BOND
    1    1    2 1     
    2    1    3 1     
    3    1    4 1     
    4    1    5 1     
    5    2    6 ar    
    6    2    7 ar    
    7    3    8 1     
    8    3    9 2     
    9    4   10 1     
   10    4   11 2     
   11    5   12 1     
   12    5   18 1     
   13    5   19 1     
   14    6   13 ar    
   15    6   20 1     
   16    7   14 ar    
   17    7   21 1     
   18    8   15 1     
   19    8   22 1     
   20   10   15 1     
   21   10   23 1     
   22   12   24 1     
   23   12   25 1     
   24   12   26 1     
   25   13   16 ar    
   26   13   27 1     
   27   14   16 ar    
   28   14   28 1     
   29   15   17 2     
   30   16   29 1     
@<TRIPOS>SUBSTRUCTURE
      1 RES1           1
@<TRIPOS>SET
DONOR_HYDROGENS      STATIC     ATOMS    <user>   **** ""
2 22 23
ATOM$RED        STATIC     ATOMS    COLORGROUP SYSTEM
2 22 23
@<TRIPOS>COMMENT
> <Gold.Version>
2022.3.0

> <Gold.Id.Protein>
unknown|4uh5_clean|pdb

> <Gold.Protein.RotatedTorsions>
[ 8487 8482 8483 8484 ] final -140.99 input   34.95 | X-H torsion
[ 8511 8504 8505 8506 ] final  130.18 input  102.00 | X-H torsion
[ 9055 9051 9052 9053 ] final -126.14 input   39.76 | X-H torsion
[ 9089 9075 9076 9077 ] final  161.65 input   37.88 | X-H torsion
[ 9133 9121 9122 9123 ] final  135.12 input   94.46 | X-H torsion
[ 9141 9132 9131 9129 ] final -118.58 input   60.01 | X-H torsion
[ 9170 9159 9160 9161 ] final  121.73 input   86.63 | X-H torsion
[ 9251 9236 9237 9238 ] final -154.38 input  127.08 | X-H torsion
[ 3623 3616 3617 3618 ] final  -59.10 input   94.27 | X-H torsion
[ 3649 3645 3646 3647 ] final -123.33 input   86.49 | X-H torsion
[ 9037 9031 9032 9033 ] final -170.68 input   26.45 | X-H torsion
[ 9196 9189 9190 9191 ] final  132.09 input  130.40 | X-H torsion
[ 4943 4938 4937 4934 ] final  140.00 input   60.00 | X-H torsion
[ 9041 9036 9035 9032 ] final  169.52 input   59.99 | X-H torsion
[ 9007 8996 8997 8998 ] final   96.69 input   49.09 | X-H torsion
[ 8541 8535 8536 8537 ] final  169.45 input   50.11 | X-H torsion
[ 4959 4954 4955 4956 ] final   89.50 input   27.83 | X-H torsion
[ 8387 8378 8377 8375 ] final  -21.22 input   59.99 | X-H torsion
[ 5633 5624 5625 5626 ] final  173.91 input   44.71 | X-H torsion
[ 5606 5601 5600 5597 ] final   93.55 input   59.98 | X-H torsion
[ 5665 5657 5658 5659 ] final  -40.57 input  114.33 | X-H torsion
[ 5703 5695 5696 5697 ] final  114.49 input   57.04 | X-H torsion
[ 5747 5736 5737 5738 ] final -104.34 input   30.88 | X-H torsion
[ 5797 5785 5786 5787 ] final  -93.82 input   92.04 | X-H torsion
[ 9409 9397 9398 9399 ] final -167.64 input  123.68 | X-H torsion
[ 9376 9352 9353 9354 ] final  159.64 input  105.06 | X-H torsion
[ 11109 11102 11103 11104 ] final -121.72 input   57.11 | X-H torsion
[ 8379 8367 8368 8369 ] final  135.71 input   85.33 | X-H torsion
[ 5602 5596 5597 5598 ] final  155.54 input  106.64 | X-H torsion
[ 13518 8422 8421 8420 ] final -170.46 input    0.00 | X-H torsion
[ 13521 8459 8458 8457 ] final -121.25 input   -0.00 | X-H torsion
[ 13525 8999 8998 8997 ] final -146.51 input   -0.00 | X-H torsion
[ 13528 9054 9053 9052 ] final  -80.43 input   -0.00 | X-H torsion
[ 13531 9078 9077 9076 ] final  -35.42 input    0.00 | X-H torsion
[ 13534 9124 9123 9122 ] final  -18.57 input   -0.00 | X-H torsion
[ 13539 9162 9161 9160 ] final  148.75 input   -0.00 | X-H torsion
[ 13553 9034 9033 9032 ] final   28.57 input    0.00 | X-H torsion
[ 13555 8404 8403 8402 ] final  143.16 input    0.00 | X-H torsion
[ 13562 8485 8484 8483 ] final  -12.98 input    0.00 | X-H torsion
[ 13564 8507 8506 8505 ] final  -86.16 input   -0.00 | X-H torsion
[ 13571 4957 4956 4955 ] final  139.40 input   -0.00 | X-H torsion
[ 13573 5599 5598 5597 ] final  118.15 input   -0.00 | X-H torsion
[ 13582 5698 5697 5696 ] final -143.28 input   -0.00 | X-H torsion
[ 13584 9239 9238 9237 ] final -102.29 input    0.00 | X-H torsion
[ 13588 5627 5626 5625 ] final  121.20 input    0.00 | X-H torsion
[ 13596 8370 8369 8368 ] final  151.87 input   -0.00 | X-H torsion
[ 13601 9355 9354 9353 ] final   -7.78 input   -0.00 | X-H torsion
[ 13603 9400 9399 9398 ] final  132.52 input   -0.00 | X-H torsion

> <Gold.Protein.ActiveResidues>
 MET341  TRP414  CYS420  VAL421  GLY422  LEU429  LEU460  SER462  ALA463  ILE464 
 SER482  GLN483  LEU484  ILE485  ARG486  TYR487  ASP500  ALA502  ASN503  TRP566 
 TYR567  GLY568  LEU569  PRO570  ALA571  VAL572  SER573  ASN574  PRO588  PHE589 
 SER590  GLY591  TRP592  TYR593  MET594  GLY595  GLU597  ILE598  ARG601  ASP602 
 ASP605  ARG608  ILE653  VAL654  TRP683  PRO687  PHE696  HIS697  TYR711  HEM750 
 H4B760 

> <Gold.Protein.RotatedAtoms>
  122.8915  249.9574  327.1588 H   0  0  0  0  0  0  0  0  0  0  0  0  # atno 3623 bound_to 3616
  124.8657  247.9549  326.9794 H   0  0  0  0  0  0  0  0  0  0  0  0  # atno 3649 bound_to 3645
  126.6388  247.3807  317.0472 H   0  0  0  0  0  0  0  0  0  0  0  0  # atno 4943 bound_to 4938
  122.7651  246.8951  313.3393 H   0  0  0  0  0  0  0  0  0  0  0  0  # atno 4959 bound_to 4954
  105.6925  245.7782  317.1196 H   0  0  0  0  0  0  0  0  0  0  0  0  # atno 5602 bound_to 5596
  107.5776  244.4393  319.8888 H   0  0  0  0  0  0  0  0  0  0  0  0  # atno 5606 bound_to 5601
  109.0547  245.3907  318.2265 H   0  0  0  0  0  0  0  0  0  0  0  0  # atno 5633 bound_to 5624
  110.8476  243.4664  315.5322 H   0  0  0  0  0  0  0  0  0  0  0  0  # atno 5665 bound_to 5657
  112.6185  241.3987  314.3984 H   0  0  0  0  0  0  0  0  0  0  0  0  # atno 5703 bound_to 5695
  110.6606  238.5053  315.9599 H   0  0  0  0  0  0  0  0  0  0  0  0  # atno 5747 bound_to 5736
  108.1385  236.8408  317.1663 H   0  0  0  0  0  0  0  0  0  0  0  0  # atno 5797 bound_to 5785
  114.1909  233.8117  318.4047 H   0  0  0  0  0  0  0  0  0  0  0  0  # atno 8379 bound_to 8367
  111.1455  238.3979  320.1409 H   0  0  0  0  0  0  0  0  0  0  0  0  # atno 8387 bound_to 8378
  116.8264  243.3010  317.6428 H   0  0  0  0  0  0  0  0  0  0  0  0  # atno 8487 bound_to 8482
  115.6212  246.6364  317.9631 H   0  0  0  0  0  0  0  0  0  0  0  0  # atno 8511 bound_to 8504
  112.4893  247.5692  316.3941 H   0  0  0  0  0  0  0  0  0  0  0  0  # atno 8541 bound_to 8535
  115.6320  250.1267  315.0915 H   0  0  0  0  0  0  0  0  0  0  0  0  # atno 9007 bound_to 8996
  118.1438  247.9310  315.2404 H   0  0  0  0  0  0  0  0  0  0  0  0  # atno 9037 bound_to 9031
  119.7964  244.4580  313.1197 H   0  0  0  0  0  0  0  0  0  0  0  0  # atno 9041 bound_to 9036
  120.9317  245.7596  316.3007 H   0  0  0  0  0  0  0  0  0  0  0  0  # atno 9055 bound_to 9051
  123.4829  243.3180  318.1218 H   0  0  0  0  0  0  0  0  0  0  0  0  # atno 9089 bound_to 9075
  122.0263  239.6200  320.2895 H   0  0  0  0  0  0  0  0  0  0  0  0  # atno 9133 bound_to 9121
  114.8794  238.2266  321.2646 H   0  0  0  0  0  0  0  0  0  0  0  0  # atno 9141 bound_to 9132
  121.6830  241.2181  324.6097 H   0  0  0  0  0  0  0  0  0  0  0  0  # atno 9170 bound_to 9159
  123.3739  237.6658  327.0041 H   0  0  0  0  0  0  0  0  0  0  0  0  # atno 9196 bound_to 9189
  118.7033  239.3427  328.9872 H   0  0  0  0  0  0  0  0  0  0  0  0  # atno 9251 bound_to 9236
  114.7853  237.8331  331.1130 H   0  0  0  0  0  0  0  0  0  0  0  0  # atno 9376 bound_to 9352
  112.4621  237.9679  328.0879 H   0  0  0  0  0  0  0  0  0  0  0  0  # atno 9409 bound_to 9397
  126.6642  237.4150  323.5178 H   0  0  0  0  0  0  0  0  0  0  0  0  # atno 11109 bound_to 11102
  115.6739  240.6419  316.8586 LP  0  0  0  0  0  0  0  0  0  0  0  0  # atno 13518 bound_to 8422
  115.9557  239.3225  315.7724 LP  0  0  0  0  0  0  0  0  0  0  0  0  # atno 13519 bound_to 8422
  118.1921  244.7381  317.9448 LP  0  0  0  0  0  0  0  0  0  0  0  0  # atno 13521 bound_to 8459
  118.8936  243.4583  317.0120 LP  0  0  0  0  0  0  0  0  0  0  0  0  # atno 13522 bound_to 8459
  115.0971  243.0621  317.5905 LP  0  0  0  0  0  0  0  0  0  0  0  0  # atno 13523 bound_to 8482
  114.6741  246.0970  316.5968 LP  0  0  0  0  0  0  0  0  0  0  0  0  # atno 13524 bound_to 8504
  117.1900  247.0552  316.9714 LP  0  0  0  0  0  0  0  0  0  0  0  0  # atno 13525 bound_to 8999
  116.0266  247.6711  315.8457 LP  0  0  0  0  0  0  0  0  0  0  0  0  # atno 13526 bound_to 8999
  120.2488  244.8250  317.6142 LP  0  0  0  0  0  0  0  0  0  0  0  0  # atno 13527 bound_to 9051
  121.4176  242.3699  316.5751 LP  0  0  0  0  0  0  0  0  0  0  0  0  # atno 13528 bound_to 9054
  123.1180  242.2936  316.2543 LP  0  0  0  0  0  0  0  0  0  0  0  0  # atno 13529 bound_to 9054
  122.4474  243.6029  319.5020 LP  0  0  0  0  0  0  0  0  0  0  0  0  # atno 13530 bound_to 9075
  123.1881  243.0992  321.3770 LP  0  0  0  0  0  0  0  0  0  0  0  0  # atno 13531 bound_to 9078
  121.8106  242.4042  322.1641 LP  0  0  0  0  0  0  0  0  0  0  0  0  # atno 13532 bound_to 9078
  123.0040  240.8491  321.0595 LP  0  0  0  0  0  0  0  0  0  0  0  0  # atno 13533 bound_to 9121
  123.8775  238.7290  322.7187 LP  0  0  0  0  0  0  0  0  0  0  0  0  # atno 13534 bound_to 9124
  124.3299  239.4954  324.2047 LP  0  0  0  0  0  0  0  0  0  0  0  0  # atno 13535 bound_to 9124
  115.1546  239.5765  320.3994 LP  0  0  0  0  0  0  0  0  0  0  0  0  # atno 13536 bound_to 9132
  114.8656  239.6759  322.0035 LP  0  0  0  0  0  0  0  0  0  0  0  0  # atno 13537 bound_to 9132
  121.9799  239.6183  323.9708 LP  0  0  0  0  0  0  0  0  0  0  0  0  # atno 13538 bound_to 9159
  119.9464  237.9079  326.2618 LP  0  0  0  0  0  0  0  0  0  0  0  0  # atno 13539 bound_to 9162
  120.0136  239.6163  326.5392 LP  0  0  0  0  0  0  0  0  0  0  0  0  # atno 13540 bound_to 9162
  118.5392  237.7803  328.2199 LP  0  0  0  0  0  0  0  0  0  0  0  0  # atno 13541 bound_to 9236
  122.0138  248.6318  327.8893 LP  0  0  0  0  0  0  0  0  0  0  0  0  # atno 13550 bound_to 3616
  124.0535  249.0143  325.8551 LP  0  0  0  0  0  0  0  0  0  0  0  0  # atno 13551 bound_to 3645
  119.8599  248.2413  315.2437 LP  0  0  0  0  0  0  0  0  0  0  0  0  # atno 13552 bound_to 9031
  121.3953  247.7764  315.4008 LP  0  0  0  0  0  0  0  0  0  0  0  0  # atno 13553 bound_to 9034
  122.5808  246.5314  315.6124 LP  0  0  0  0  0  0  0  0  0  0  0  0  # atno 13554 bound_to 9034
  120.6912  238.6493  316.9477 LP  0  0  0  0  0  0  0  0  0  0  0  0  # atno 13555 bound_to 8404
  120.5610  237.5267  318.2603 LP  0  0  0  0  0  0  0  0  0  0  0  0  # atno 13556 bound_to 8404
  121.8386  238.4094  326.6106 LP  0  0  0  0  0  0  0  0  0  0  0  0  # atno 13557 bound_to 9189
  125.9433  246.0443  316.4328 LP  0  0  0  0  0  0  0  0  0  0  0  0  # atno 13558 bound_to 4938
  125.0915  247.0348  317.4126 LP  0  0  0  0  0  0  0  0  0  0  0  0  # atno 13559 bound_to 4938
  120.8829  245.1662  314.1025 LP  0  0  0  0  0  0  0  0  0  0  0  0  # atno 13560 bound_to 9036
  119.8929  246.0812  313.1809 LP  0  0  0  0  0  0  0  0  0  0  0  0  # atno 13561 bound_to 9036
  113.3674  244.5006  315.6011 LP  0  0  0  0  0  0  0  0  0  0  0  0  # atno 13562 bound_to 8485
  112.6171  245.6408  316.6674 LP  0  0  0  0  0  0  0  0  0  0  0  0  # atno 13563 bound_to 8485
  114.1619  249.9441  316.3127 LP  0  0  0  0  0  0  0  0  0  0  0  0  # atno 13564 bound_to 8507
  114.2635  248.6485  315.1677 LP  0  0  0  0  0  0  0  0  0  0  0  0  # atno 13565 bound_to 8507
  115.8743  249.1784  313.6437 LP  0  0  0  0  0  0  0  0  0  0  0  0  # atno 13566 bound_to 8996
  111.5590  248.6019  317.4487 LP  0  0  0  0  0  0  0  0  0  0  0  0  # atno 13567 bound_to 8535
  123.7203  248.2807  313.8046 LP  0  0  0  0  0  0  0  0  0  0  0  0  # atno 13570 bound_to 4954
  120.1378  249.6653  313.8554 LP  0  0  0  0  0  0  0  0  0  0  0  0  # atno 13571 bound_to 4957
  120.3784  248.0082  313.4125 LP  0  0  0  0  0  0  0  0  0  0  0  0  # atno 13572 bound_to 4957
  110.5289  246.7470  318.7771 LP  0  0  0  0  0  0  0  0  0  0  0  0  # atno 13573 bound_to 5599
  109.9549  247.8312  317.5544 LP  0  0  0  0  0  0  0  0  0  0  0  0  # atno 13574 bound_to 5599
  112.1714  239.6072  319.7761 LP  0  0  0  0  0  0  0  0  0  0  0  0  # atno 13575 bound_to 8378
  112.5237  238.5715  320.9885 LP  0  0  0  0  0  0  0  0  0  0  0  0  # atno 13576 bound_to 8378
  108.4290  244.8629  316.6798 LP  0  0  0  0  0  0  0  0  0  0  0  0  # atno 13581 bound_to 5624
  111.4045  239.0599  317.8559 LP  0  0  0  0  0  0  0  0  0  0  0  0  # atno 13582 bound_to 5698
  111.9280  240.5172  317.0799 LP  0  0  0  0  0  0  0  0  0  0  0  0  # atno 13583 bound_to 5698
  114.4538  237.7028  328.1698 LP  0  0  0  0  0  0  0  0  0  0  0  0  # atno 13584 bound_to 9239
  114.3698  238.6441  326.7183 LP  0  0  0  0  0  0  0  0  0  0  0  0  # atno 13585 bound_to 9239
  106.5571  244.4777  318.6220 LP  0  0  0  0  0  0  0  0  0  0  0  0  # atno 13586 bound_to 5601
  105.9968  244.7371  320.1338 LP  0  0  0  0  0  0  0  0  0  0  0  0  # atno 13587 bound_to 5601
  108.8991  243.5330  314.4463 LP  0  0  0  0  0  0  0  0  0  0  0  0  # atno 13588 bound_to 5627
  108.9765  242.5406  315.8638 LP  0  0  0  0  0  0  0  0  0  0  0  0  # atno 13589 bound_to 5627
  112.1955  244.4547  315.0285 LP  0  0  0  0  0  0  0  0  0  0  0  0  # atno 13590 bound_to 5657
  110.8934  241.6723  314.4586 LP  0  0  0  0  0  0  0  0  0  0  0  0  # atno 13591 bound_to 5695
  109.1930  239.1457  315.2481 LP  0  0  0  0  0  0  0  0  0  0  0  0  # atno 13592 bound_to 5736
  108.2410  236.4451  318.8621 LP  0  0  0  0  0  0  0  0  0  0  0  0  # atno 13593 bound_to 5785
  118.1287  235.6068  319.0012 LP  0  0  0  0  0  0  0  0  0  0  0  0  # atno 13596 bound_to 8370
  116.4136  235.8108  319.1313 LP  0  0  0  0  0  0  0  0  0  0  0  0  # atno 13597 bound_to 8370
  112.5967  236.5176  329.0501 LP  0  0  0  0  0  0  0  0  0  0  0  0  # atno 13598 bound_to 9397
  110.4267  237.0505  330.8389 LP  0  0  0  0  0  0  0  0  0  0  0  0  # atno 13601 bound_to 9355
  110.0178  236.5363  329.2363 LP  0  0  0  0  0  0  0  0  0  0  0  0  # atno 13602 bound_to 9355
  109.5129  233.6446  327.2710 LP  0  0  0  0  0  0  0  0  0  0  0  0  # atno 13603 bound_to 9400
  108.9489  235.1915  327.8087 LP  0  0  0  0  0  0  0  0  0  0  0  0  # atno 13604 bound_to 9400
  114.0263  236.3220  330.6719 LP  0  0  0  0  0  0  0  0  0  0  0  0  # atno 13608 bound_to 9352

> <Gold.Score>
     Fitness  S(hb_ext) S(vdw_ext)  S(hb_int)    S(int)      intcor
     32.32       0.00      24.17       0.00      -0.92      -0.78

> <Gold.Goldscore.Fitness>
32.3191

> <Gold.Goldscore.Internal.Vdw>
-0.8066

> <Gold.Goldscore.Internal.Torsion>
-0.8875

> <Gold.Goldscore.External.Vdw>
24.1719

> <Gold.Goldscore.Internal.HBond>
0.0000

> <Gold.Goldscore.External.HBond>
0.0000

> <Gold.Goldscore.Internal.Correction>
-0.7769

> <Gold.Goldscore.Internal.Vdw.Weighted>
-0.8066

> <Gold.Goldscore.Internal.Torsion.Weighted>
-0.8875

> <Gold.Goldscore.External.Vdw.Weighted>
33.2363

> <Gold.Goldscore.Internal.HBond.Weighted>
0.0000

> <Gold.Goldscore.External.HBond.Weighted>
0.0000

> <Gold.Goldscore.Internal.Correction.Weighted>
-0.7769

> <Gold.Rescore>
     Score     S(PLP)   S(hbond)     S(cho)   S(metal)  DE(clash)   DE(tors)     intcor
     13.88     -16.62       0.00       0.00       0.00       0.00       1.37       ----

> <Gold.PLP.Fitness>
13.8788

> <Gold.PLP.PLP>
-16.6189

> <Gold.PLP.part.hbond>
-1.7845

> <Gold.PLP.part.metal>
0.0000

> <Gold.PLP.part.buried>
3.0118

> <Gold.PLP.part.nonpolar>
-20.4463

> <Gold.PLP.part.repulsive>
1.8780

> <Gold.PLP.ligand.clash>
0.0000

> <Gold.PLP.ligand.torsion>
1.3700

> <Gold.PLP.Chemscore.Hbond>
0.0000

> <Gold.PLP.Chemscore.CHOScore>
0.0000

> <Gold.PLP.Chemscore.Metal>
0.0000

> <Gold.PLP.Chemscore.Internal.Correction>
   9.000000E+99

#       Name:                CT1002167954
#       Creating user name   hitesit
#       Creation time:       Sun Apr 16 22:52:08 2023


#       File generated by GOLD software.
#

@<TRIPOS>MOLECULE
CT1002167954|ligand_prepared|mol2|1|dock8
    29    30     1
SMALL
NO_CHARGES


@<TRIPOS>ATOM
      1 C1         114.6318 243.8171 322.2390 C.3            1 RES1               0.0000
      2 C2         116.0025 244.4925 322.4480 C.ar           1 RES1               0.0000
      3 C3         114.0967 244.3367 320.9078 C.2            1 RES1               0.0000
      4 C4         114.8886 242.3144 322.2624 C.2            1 RES1               0.0000
      5 C5         113.5999 244.1427 323.3439 C.3            1 RES1               0.0000
      6 C6         117.1784 243.7546 322.3503 C.ar           1 RES1               0.0000
      7 C7         116.1072 245.8508 322.7359 C.ar           1 RES1               0.0000
      8 N8         114.1146 243.4840 319.8436 N.am           1 RES1               0.0000
      9 O9         113.7018 245.4895 320.7840 O.2            1 RES1               0.0000
     10 N10        114.6723 241.6080 321.1083 N.am           1 RES1               0.0000
     11 O11        115.2923 241.7384 323.2652 O.2            1 RES1               0.0000
     12 C12        112.3105 243.3444 323.2330 C.3            1 RES1               0.0000
     13 C13        118.4142 244.3532 322.5310 C.ar           1 RES1               0.0000
     14 C14        117.3441 246.4474 322.9164 C.ar           1 RES1               0.0000
     15 C15        114.3264 242.1296 319.8915 C.2            1 RES1               0.0000
     16 C16        118.4979 245.6999 322.8137 C.ar           1 RES1               0.0000
     17 O17        114.2034 241.4361 318.8860 O.2            1 RES1               0.0000
     18 H18        114.0552 243.9440 324.3219 H              1 RES1               0.0000
     19 H19        113.3583 245.2118 323.2975 H              1 RES1               0.0000
     20 H20        117.1321 242.6931 322.1309 H              1 RES1               0.0000
     21 H21        115.2127 246.4582 322.8225 H              1 RES1               0.0000
     22 H22        113.9559 243.8911 318.9274 H              1 RES1               0.0000
     23 H23        114.7789 240.6000 321.1612 H              1 RES1               0.0000
     24 H24        111.6217 243.6113 324.0318 H              1 RES1               0.0000
     25 H25        111.8179 243.5374 322.2823 H              1 RES1               0.0000
     26 H26        112.5106 242.2771 323.3006 H              1 RES1               0.0000
     27 H27        119.3193 243.7603 322.4504 H              1 RES1               0.0000
     28 H28        117.4052 247.5075 323.1394 H              1 RES1               0.0000
     29 H29        119.4662 246.1687 322.9547 H              1 RES1               0.0000
@<TRIPOS>BOND
    1    1    2 1     
    2    1    3 1     
    3    1    4 1     
    4    1    5 1     
    5    2    6 ar    
    6    2    7 ar    
    7    3    8 1     
    8    3    9 2     
    9    4   10 1     
   10    4   11 2     
   11    5   12 1     
   12    5   18 1     
   13    5   19 1     
   14    6   13 ar    
   15    6   20 1     
   16    7   14 ar    
   17    7   21 1     
   18    8   15 1     
   19    8   22 1     
   20   10   15 1     
   21   10   23 1     
   22   12   24 1     
   23   12   25 1     
   24   12   26 1     
   25   13   16 ar    
   26   13   27 1     
   27   14   16 ar    
   28   14   28 1     
   29   15   17 2     
   30   16   29 1     
@<TRIPOS>SUBSTRUCTURE
      1 RES1           1
@<TRIPOS>SET
DONOR_HYDROGENS      STATIC     ATOMS    <user>   **** ""
2 22 23
ATOM$RED        STATIC     ATOMS    COLORGROUP SYSTEM
2 22 23
@<TRIPOS>COMMENT
> <Gold.Version>
2022.3.0

> <Gold.Id.Protein>
unknown|4uh5_clean|pdb

> <Gold.Protein.RotatedTorsions>
[ 8487 8482 8483 8484 ] final -146.35 input   34.95 | X-H torsion
[ 8511 8504 8505 8506 ] final  111.75 input  102.00 | X-H torsion
[ 9055 9051 9052 9053 ] final -102.64 input   39.76 | X-H torsion
[ 9089 9075 9076 9077 ] final   67.94 input   37.88 | X-H torsion
[ 9133 9121 9122 9123 ] final  144.04 input   94.46 | X-H torsion
[ 9141 9132 9131 9129 ] final  -80.94 input   60.01 | X-H torsion
[ 9170 9159 9160 9161 ] final -106.54 input   86.63 | X-H torsion
[ 9251 9236 9237 9238 ] final -122.51 input  127.08 | X-H torsion
[ 3623 3616 3617 3618 ] final   -0.44 input   94.27 | X-H torsion
[ 3649 3645 3646 3647 ] final  -43.42 input   86.49 | X-H torsion
[ 9037 9031 9032 9033 ] final  125.79 input   26.45 | X-H torsion
[ 9196 9189 9190 9191 ] final  -20.48 input  130.40 | X-H torsion
[ 4943 4938 4937 4934 ] final  -35.39 input   60.00 | X-H torsion
[ 9041 9036 9035 9032 ] final -150.18 input   59.99 | X-H torsion
[ 9007 8996 8997 8998 ] final  -84.07 input   49.09 | X-H torsion
[ 8541 8535 8536 8537 ] final -100.31 input   50.11 | X-H torsion
[ 4959 4954 4955 4956 ] final  -82.47 input   27.83 | X-H torsion
[ 8387 8378 8377 8375 ] final  160.52 input   59.99 | X-H torsion
[ 5633 5624 5625 5626 ] final  114.42 input   44.71 | X-H torsion
[ 5606 5601 5600 5597 ] final -109.62 input   59.98 | X-H torsion
[ 5665 5657 5658 5659 ] final -160.73 input  114.33 | X-H torsion
[ 5703 5695 5696 5697 ] final   89.18 input   57.04 | X-H torsion
[ 5747 5736 5737 5738 ] final  -12.37 input   30.88 | X-H torsion
[ 5797 5785 5786 5787 ] final -146.04 input   92.04 | X-H torsion
[ 9409 9397 9398 9399 ] final  145.38 input  123.68 | X-H torsion
[ 9376 9352 9353 9354 ] final  153.35 input  105.06 | X-H torsion
[ 11109 11102 11103 11104 ] final -158.85 input   57.11 | X-H torsion
[ 8379 8367 8368 8369 ] final   22.51 input   85.33 | X-H torsion
[ 5602 5596 5597 5598 ] final  -29.14 input  106.64 | X-H torsion
[ 13518 8422 8421 8420 ] final  154.85 input    0.00 | X-H torsion
[ 13521 8459 8458 8457 ] final   73.07 input   -0.00 | X-H torsion
[ 13525 8999 8998 8997 ] final  -86.75 input   -0.00 | X-H torsion
[ 13528 9054 9053 9052 ] final  -74.20 input   -0.00 | X-H torsion
[ 13531 9078 9077 9076 ] final   60.60 input    0.00 | X-H torsion
[ 13534 9124 9123 9122 ] final   94.33 input   -0.00 | X-H torsion
[ 13539 9162 9161 9160 ] final  170.49 input   -0.00 | X-H torsion
[ 13553 9034 9033 9032 ] final   70.31 input    0.00 | X-H torsion
[ 13555 8404 8403 8402 ] final  172.67 input    0.00 | X-H torsion
[ 13562 8485 8484 8483 ] final   77.40 input    0.00 | X-H torsion
[ 13564 8507 8506 8505 ] final  -73.08 input   -0.00 | X-H torsion
[ 13571 4957 4956 4955 ] final  -61.35 input   -0.00 | X-H torsion
[ 13573 5599 5598 5597 ] final -127.40 input   -0.00 | X-H torsion
[ 13582 5698 5697 5696 ] final  110.47 input   -0.00 | X-H torsion
[ 13584 9239 9238 9237 ] final   47.97 input    0.00 | X-H torsion
[ 13588 5627 5626 5625 ] final  100.88 input    0.00 | X-H torsion
[ 13596 8370 8369 8368 ] final   40.70 input   -0.00 | X-H torsion
[ 13601 9355 9354 9353 ] final  117.90 input   -0.00 | X-H torsion
[ 13603 9400 9399 9398 ] final  140.62 input   -0.00 | X-H torsion

> <Gold.Protein.ActiveResidues>
 MET341  TRP414  CYS420  VAL421  GLY422  LEU429  LEU460  SER462  ALA463  ILE464 
 SER482  GLN483  LEU484  ILE485  ARG486  TYR487  ASP500  ALA502  ASN503  TRP566 
 TYR567  GLY568  LEU569  PRO570  ALA571  VAL572  SER573  ASN574  PRO588  PHE589 
 SER590  GLY591  TRP592  TYR593  MET594  GLY595  GLU597  ILE598  ARG601  ASP602 
 ASP605  ARG608  ILE653  VAL654  TRP683  PRO687  PHE696  HIS697  TYR711  HEM750 
 H4B760 

> <Gold.Protein.RotatedAtoms>
  122.8255  249.2027  326.7308 H   0  0  0  0  0  0  0  0  0  0  0  0  # atno 3623 bound_to 3616
  125.0665  249.0383  326.7286 H   0  0  0  0  0  0  0  0  0  0  0  0  # atno 3649 bound_to 3645
  125.1882  246.2196  316.8348 H   0  0  0  0  0  0  0  0  0  0  0  0  # atno 4943 bound_to 4938
  123.6311  248.3276  313.8757 H   0  0  0  0  0  0  0  0  0  0  0  0  # atno 4959 bound_to 4954
  107.0890  245.6922  316.0368 H   0  0  0  0  0  0  0  0  0  0  0  0  # atno 5602 bound_to 5596
  105.7914  244.7149  319.5772 H   0  0  0  0  0  0  0  0  0  0  0  0  # atno 5606 bound_to 5601
  108.7514  244.5679  318.1351 H   0  0  0  0  0  0  0  0  0  0  0  0  # atno 5633 bound_to 5624
  111.3878  244.7721  314.9567 H   0  0  0  0  0  0  0  0  0  0  0  0  # atno 5665 bound_to 5657
  112.5539  241.4501  314.7769 H   0  0  0  0  0  0  0  0  0  0  0  0  # atno 5703 bound_to 5695
  109.6987  238.0375  315.2480 H   0  0  0  0  0  0  0  0  0  0  0  0  # atno 5747 bound_to 5736
  108.7022  236.3526  317.3680 H   0  0  0  0  0  0  0  0  0  0  0  0  # atno 5797 bound_to 5785
  115.4140  234.0958  319.1733 H   0  0  0  0  0  0  0  0  0  0  0  0  # atno 8379 bound_to 8367
  112.7393  239.3338  320.4389 H   0  0  0  0  0  0  0  0  0  0  0  0  # atno 8387 bound_to 8378
  116.8314  243.2505  317.5778 H   0  0  0  0  0  0  0  0  0  0  0  0  # atno 8487 bound_to 8482
  115.6962  246.8345  317.7748 H   0  0  0  0  0  0  0  0  0  0  0  0  # atno 8511 bound_to 8504
  112.6827  248.6654  316.9497 H   0  0  0  0  0  0  0  0  0  0  0  0  # atno 8541 bound_to 8535
  115.8848  249.1766  313.6221 H   0  0  0  0  0  0  0  0  0  0  0  0  # atno 9007 bound_to 8996
  118.6674  247.7756  314.4956 H   0  0  0  0  0  0  0  0  0  0  0  0  # atno 9037 bound_to 9031
  119.5225  244.9812  312.8606 H   0  0  0  0  0  0  0  0  0  0  0  0  # atno 9041 bound_to 9036
  120.9134  245.4285  316.1541 H   0  0  0  0  0  0  0  0  0  0  0  0  # atno 9055 bound_to 9051
  123.6366  243.6046  319.3733 H   0  0  0  0  0  0  0  0  0  0  0  0  # atno 9089 bound_to 9075
  121.9381  239.7225  320.2623 H   0  0  0  0  0  0  0  0  0  0  0  0  # atno 9133 bound_to 9121
  114.7967  238.4551  321.8173 H   0  0  0  0  0  0  0  0  0  0  0  0  # atno 9141 bound_to 9132
  122.5390  240.0558  323.8846 H   0  0  0  0  0  0  0  0  0  0  0  0  # atno 9170 bound_to 9159
  121.8506  238.4853  327.0202 H   0  0  0  0  0  0  0  0  0  0  0  0  # atno 9196 bound_to 9189
  118.4157  239.0803  329.2788 H   0  0  0  0  0  0  0  0  0  0  0  0  # atno 9251 bound_to 9236
  114.8147  237.8391  331.0207 H   0  0  0  0  0  0  0  0  0  0  0  0  # atno 9376 bound_to 9352
  113.0020  237.5592  327.9038 H   0  0  0  0  0  0  0  0  0  0  0  0  # atno 9409 bound_to 9397
  126.7130  237.9229  323.2831 H   0  0  0  0  0  0  0  0  0  0  0  0  # atno 11109 bound_to 11102
  115.6535  240.2070  317.1361 LP  0  0  0  0  0  0  0  0  0  0  0  0  # atno 13518 bound_to 8422
  115.9761  239.7574  315.4948 LP  0  0  0  0  0  0  0  0  0  0  0  0  # atno 13519 bound_to 8422
  118.8004  243.5632  316.8480 LP  0  0  0  0  0  0  0  0  0  0  0  0  # atno 13521 bound_to 8459
  118.2853  244.6333  318.1088 LP  0  0  0  0  0  0  0  0  0  0  0  0  # atno 13522 bound_to 8459
  115.0922  243.1116  317.6543 LP  0  0  0  0  0  0  0  0  0  0  0  0  # atno 13523 bound_to 8482
  114.6010  245.9037  316.7804 LP  0  0  0  0  0  0  0  0  0  0  0  0  # atno 13524 bound_to 8504
  116.8225  247.8236  317.1101 LP  0  0  0  0  0  0  0  0  0  0  0  0  # atno 13525 bound_to 8999
  116.3942  246.9027  315.7071 LP  0  0  0  0  0  0  0  0  0  0  0  0  # atno 13526 bound_to 8999
  120.2665  245.1450  317.7560 LP  0  0  0  0  0  0  0  0  0  0  0  0  # atno 13527 bound_to 9051
  121.4150  242.4434  316.5164 LP  0  0  0  0  0  0  0  0  0  0  0  0  # atno 13528 bound_to 9054
  123.1205  242.2201  316.3130 LP  0  0  0  0  0  0  0  0  0  0  0  0  # atno 13529 bound_to 9054
  122.2978  243.3239  318.2838 LP  0  0  0  0  0  0  0  0  0  0  0  0  # atno 13530 bound_to 9075
  121.9070  243.1124  321.2519 LP  0  0  0  0  0  0  0  0  0  0  0  0  # atno 13531 bound_to 9078
  123.0917  242.3910  322.2891 LP  0  0  0  0  0  0  0  0  0  0  0  0  # atno 13532 bound_to 9078
  123.0896  240.7495  321.0860 LP  0  0  0  0  0  0  0  0  0  0  0  0  # atno 13533 bound_to 9121
  124.4362  239.9033  323.3454 LP  0  0  0  0  0  0  0  0  0  0  0  0  # atno 13534 bound_to 9124
  123.7712  238.3210  323.5780 LP  0  0  0  0  0  0  0  0  0  0  0  0  # atno 13535 bound_to 9124
  115.1188  238.9759  320.3101 LP  0  0  0  0  0  0  0  0  0  0  0  0  # atno 13536 bound_to 9132
  114.9847  240.0464  321.5359 LP  0  0  0  0  0  0  0  0  0  0  0  0  # atno 13537 bound_to 9132
  121.1453  240.7516  324.6777 LP  0  0  0  0  0  0  0  0  0  0  0  0  # atno 13538 bound_to 9159
  119.9328  237.9179  326.5879 LP  0  0  0  0  0  0  0  0  0  0  0  0  # atno 13539 bound_to 9162
  120.0272  239.6063  326.2130 LP  0  0  0  0  0  0  0  0  0  0  0  0  # atno 13540 bound_to 9162
  118.8192  238.0356  327.9361 LP  0  0  0  0  0  0  0  0  0  0  0  0  # atno 13541 bound_to 9236
  122.0778  249.3638  328.3044 LP  0  0  0  0  0  0  0  0  0  0  0  0  # atno 13550 bound_to 3616
  123.8560  247.9486  326.1018 LP  0  0  0  0  0  0  0  0  0  0  0  0  # atno 13551 bound_to 3645
  119.3425  248.3949  315.9796 LP  0  0  0  0  0  0  0  0  0  0  0  0  # atno 13552 bound_to 9031
  121.6780  247.8324  315.9465 LP  0  0  0  0  0  0  0  0  0  0  0  0  # atno 13553 bound_to 9034
  122.2981  246.4754  315.0667 LP  0  0  0  0  0  0  0  0  0  0  0  0  # atno 13554 bound_to 9034
  120.3876  238.8245  317.2157 LP  0  0  0  0  0  0  0  0  0  0  0  0  # atno 13555 bound_to 8404
  120.8646  237.3516  317.9923 LP  0  0  0  0  0  0  0  0  0  0  0  0  # atno 13556 bound_to 8404
  123.3104  237.6176  326.5951 LP  0  0  0  0  0  0  0  0  0  0  0  0  # atno 13557 bound_to 9189
  125.7714  247.5791  317.5121 LP  0  0  0  0  0  0  0  0  0  0  0  0  # atno 13558 bound_to 4938
  126.7250  246.6700  316.5473 LP  0  0  0  0  0  0  0  0  0  0  0  0  # atno 13559 bound_to 4938
  120.6819  244.5739  313.9273 LP  0  0  0  0  0  0  0  0  0  0  0  0  # atno 13560 bound_to 9036
  120.3698  246.1465  313.6171 LP  0  0  0  0  0  0  0  0  0  0  0  0  # atno 13561 bound_to 9036
  112.9404  244.4668  316.7528 LP  0  0  0  0  0  0  0  0  0  0  0  0  # atno 13562 bound_to 8485
  113.0441  245.6746  315.5157 LP  0  0  0  0  0  0  0  0  0  0  0  0  # atno 13563 bound_to 8485
  114.3166  249.8536  316.3949 LP  0  0  0  0  0  0  0  0  0  0  0  0  # atno 13564 bound_to 8507
  114.1087  248.7391  315.0855 LP  0  0  0  0  0  0  0  0  0  0  0  0  # atno 13565 bound_to 8507
  115.6273  250.1065  315.0792 LP  0  0  0  0  0  0  0  0  0  0  0  0  # atno 13566 bound_to 8996
  111.3681  247.5195  316.9001 LP  0  0  0  0  0  0  0  0  0  0  0  0  # atno 13567 bound_to 8535
  122.8700  246.8743  313.2779 LP  0  0  0  0  0  0  0  0  0  0  0  0  # atno 13570 bound_to 4954
  120.1298  248.0776  313.2374 LP  0  0  0  0  0  0  0  0  0  0  0  0  # atno 13571 bound_to 4957
  120.3864  249.5959  314.0305 LP  0  0  0  0  0  0  0  0  0  0  0  0  # atno 13572 bound_to 4957
  110.5868  247.1601  317.3819 LP  0  0  0  0  0  0  0  0  0  0  0  0  # atno 13573 bound_to 5599
  109.8971  247.4181  318.9496 LP  0  0  0  0  0  0  0  0  0  0  0  0  # atno 13574 bound_to 5599
  111.7423  238.1127  320.8424 LP  0  0  0  0  0  0  0  0  0  0  0  0  # atno 13575 bound_to 8378
  111.3477  239.1235  319.6221 LP  0  0  0  0  0  0  0  0  0  0  0  0  # atno 13576 bound_to 8378
  108.7231  245.6607  316.7685 LP  0  0  0  0  0  0  0  0  0  0  0  0  # atno 13581 bound_to 5624
  111.0502  240.3783  317.6188 LP  0  0  0  0  0  0  0  0  0  0  0  0  # atno 13582 bound_to 5698
  112.2823  239.1988  317.3170 LP  0  0  0  0  0  0  0  0  0  0  0  0  # atno 13583 bound_to 5698
  114.4240  238.9415  327.0442 LP  0  0  0  0  0  0  0  0  0  0  0  0  # atno 13584 bound_to 9239
  114.3996  237.4054  327.8439 LP  0  0  0  0  0  0  0  0  0  0  0  0  # atno 13585 bound_to 9239
  107.2157  244.5490  320.3464 LP  0  0  0  0  0  0  0  0  0  0  0  0  # atno 13586 bound_to 5601
  107.1374  244.3882  318.7232 LP  0  0  0  0  0  0  0  0  0  0  0  0  # atno 13587 bound_to 5601
  108.7488  243.7104  314.6445 LP  0  0  0  0  0  0  0  0  0  0  0  0  # atno 13588 bound_to 5627
  109.1267  242.3633  315.6655 LP  0  0  0  0  0  0  0  0  0  0  0  0  # atno 13589 bound_to 5627
  111.6643  243.1709  315.5944 LP  0  0  0  0  0  0  0  0  0  0  0  0  # atno 13590 bound_to 5657
  110.9565  241.6221  314.0889 LP  0  0  0  0  0  0  0  0  0  0  0  0  # atno 13591 bound_to 5695
  110.1175  239.5953  315.9324 LP  0  0  0  0  0  0  0  0  0  0  0  0  # atno 13592 bound_to 5736
  107.6842  236.9274  318.6628 LP  0  0  0  0  0  0  0  0  0  0  0  0  # atno 13593 bound_to 5785
  116.8966  235.0025  319.3994 LP  0  0  0  0  0  0  0  0  0  0  0  0  # atno 13596 bound_to 8370
  117.6457  236.4150  318.7332 LP  0  0  0  0  0  0  0  0  0  0  0  0  # atno 13597 bound_to 8370
  112.0660  236.9193  329.2311 LP  0  0  0  0  0  0  0  0  0  0  0  0  # atno 13598 bound_to 9397
  109.8586  237.2871  329.4261 LP  0  0  0  0  0  0  0  0  0  0  0  0  # atno 13601 bound_to 9355
  110.5860  236.2997  330.6491 LP  0  0  0  0  0  0  0  0  0  0  0  0  # atno 13602 bound_to 9355
  109.5040  233.6104  327.3880 LP  0  0  0  0  0  0  0  0  0  0  0  0  # atno 13603 bound_to 9400
  108.9578  235.2257  327.6917 LP  0  0  0  0  0  0  0  0  0  0  0  0  # atno 13604 bound_to 9400
  113.9975  236.3162  330.7621 LP  0  0  0  0  0  0  0  0  0  0  0  0  # atno 13608 bound_to 9352

> <Gold.Score>
     Fitness  S(hb_ext) S(vdw_ext)  S(hb_int)    S(int)      intcor
     32.15       2.69      23.06       0.00      -2.26      -0.76

> <Gold.Goldscore.Fitness>
32.1485

> <Gold.Goldscore.Internal.Vdw>
-2.5732

> <Gold.Goldscore.Internal.Torsion>
-0.4473

> <Gold.Goldscore.External.Vdw>
23.0631

> <Gold.Goldscore.Internal.HBond>
0.0000

> <Gold.Goldscore.External.HBond>
2.6922

> <Gold.Goldscore.Internal.Correction>
-0.7650

> <Gold.Goldscore.Hbonds>
donor molecule, donor type, donor heavy atom, donor atom, acceptor molecule, acceptor atom, score
      L1  H     8    22       P1  8485  0.36
      L1  H    10    23       P1  9132  0.99

> <Gold.Goldscore.Internal.Vdw.Weighted>
-2.5732

> <Gold.Goldscore.Internal.Torsion.Weighted>
-0.4473

> <Gold.Goldscore.External.Vdw.Weighted>
31.7118

> <Gold.Goldscore.Internal.HBond.Weighted>
0.0000

> <Gold.Goldscore.External.HBond.Weighted>
2.6922

> <Gold.Goldscore.Internal.Correction.Weighted>
-0.7650

> <Gold.Rescore>
     Score     S(PLP)   S(hbond)     S(cho)   S(metal)  DE(clash)   DE(tors)     intcor
     26.72     -26.09       1.00       0.00       0.00       1.50       0.44       ----

> <Gold.PLP.Fitness>
26.7180

> <Gold.PLP.PLP>
-26.0916

> <Gold.PLP.part.hbond>
-2.3620

> <Gold.PLP.part.metal>
0.0000

> <Gold.PLP.part.buried>
12.4707

> <Gold.PLP.part.nonpolar>
-40.6908

> <Gold.PLP.part.repulsive>
2.8475

> <Gold.PLP.ligand.clash>
1.5026

> <Gold.PLP.ligand.torsion>
0.4355

> <Gold.PLP.Chemscore.Hbond>
1.0000

> <Gold.PLP.Chemscore.CHOScore>
0.0000

> <Gold.PLP.Chemscore.Metal>
0.0000

> <Gold.Chemscore.Hbonds>
donor molecule, donor type, donor heavy atom, donor atom, acceptor molecule, acceptor atom, score
      L1  H    10    23       P1  9132  0.91

> <Gold.PLP.Chemscore.Internal.Correction>
   9.000000E+99

#       Name:                CT1002167954
#       Creating user name   hitesit
#       Creation time:       Sun Apr 16 22:52:09 2023


#       File generated by GOLD software.
#

@<TRIPOS>MOLECULE
CT1002167954|ligand_prepared|mol2|1|dock9
    29    30     1
SMALL
NO_CHARGES


@<TRIPOS>ATOM
      1 C1         111.9482 242.8811 327.2201 C.3            1 RES1               0.0000
      2 C2         112.1388 243.4452 325.7974 C.ar           1 RES1               0.0000
      3 C3         112.8771 241.6757 327.3311 C.2            1 RES1               0.0000
      4 C4         112.2867 244.0176 328.1785 C.2            1 RES1               0.0000
      5 C5         110.5037 242.4174 327.5201 C.3            1 RES1               0.0000
      6 C6         113.2809 243.1423 325.0621 C.ar           1 RES1               0.0000
      7 C7         111.1818 244.2661 325.2068 C.ar           1 RES1               0.0000
      8 N8         114.0070 241.8157 328.0818 N.am           1 RES1               0.0000
      9 O9         112.6418 240.6308 326.7368 O.2            1 RES1               0.0000
     10 N10        113.3872 243.8736 328.9821 N.am           1 RES1               0.0000
     11 O11        111.6199 245.0436 328.2332 O.2            1 RES1               0.0000
     12 C12        110.4086 241.3934 328.6402 C.3            1 RES1               0.0000
     13 C13        113.4586 243.6396 323.7817 C.ar           1 RES1               0.0000
     14 C14        111.3616 244.7626 323.9263 C.ar           1 RES1               0.0000
     15 C15        114.2804 242.8374 328.9553 C.2            1 RES1               0.0000
     16 C16        112.4990 244.4496 323.2128 C.ar           1 RES1               0.0000
     17 O17        115.2770 242.8051 329.6715 O.2            1 RES1               0.0000
     18 H18        109.9007 243.2931 327.7901 H              1 RES1               0.0000
     19 H19        110.0755 241.9837 326.6080 H              1 RES1               0.0000
     20 H20        114.0480 242.5084 325.4942 H              1 RES1               0.0000
     21 H21        110.2796 244.5265 325.7498 H              1 RES1               0.0000
     22 H22        114.7142 241.0940 327.9846 H              1 RES1               0.0000
     23 H23        113.5563 244.6067 329.6635 H              1 RES1               0.0000
     24 H24        109.3741 241.1022 328.8097 H              1 RES1               0.0000
     25 H25        110.9766 240.4986 328.3940 H              1 RES1               0.0000
     26 H26        110.8028 241.8002 329.5691 H              1 RES1               0.0000
     27 H27        114.3561 243.3914 323.2249 H              1 RES1               0.0000
     28 H28        110.6040 245.4002 323.4827 H              1 RES1               0.0000
     29 H29        112.6382 244.8387 322.2096 H              1 RES1               0.0000
@<TRIPOS>BOND
    1    1    2 1     
    2    1    3 1     
    3    1    4 1     
    4    1    5 1     
    5    2    6 ar    
    6    2    7 ar    
    7    3    8 1     
    8    3    9 2     
    9    4   10 1     
   10    4   11 2     
   11    5   12 1     
   12    5   18 1     
   13    5   19 1     
   14    6   13 ar    
   15    6   20 1     
   16    7   14 ar    
   17    7   21 1     
   18    8   15 1     
   19    8   22 1     
   20   10   15 1     
   21   10   23 1     
   22   12   24 1     
   23   12   25 1     
   24   12   26 1     
   25   13   16 ar    
   26   13   27 1     
   27   14   16 ar    
   28   14   28 1     
   29   15   17 2     
   30   16   29 1     
@<TRIPOS>SUBSTRUCTURE
      1 RES1           1
@<TRIPOS>SET
DONOR_HYDROGENS      STATIC     ATOMS    <user>   **** ""
2 22 23
ATOM$RED        STATIC     ATOMS    COLORGROUP SYSTEM
2 22 23
@<TRIPOS>COMMENT
> <Gold.Version>
2022.3.0

> <Gold.Id.Protein>
unknown|4uh5_clean|pdb

> <Gold.Protein.RotatedTorsions>
[ 8487 8482 8483 8484 ] final   93.08 input   34.95 | X-H torsion
[ 8511 8504 8505 8506 ] final   67.08 input  102.00 | X-H torsion
[ 9055 9051 9052 9053 ] final   45.32 input   39.76 | X-H torsion
[ 9089 9075 9076 9077 ] final   82.96 input   37.88 | X-H torsion
[ 9133 9121 9122 9123 ] final  174.62 input   94.46 | X-H torsion
[ 9141 9132 9131 9129 ] final  159.57 input   60.01 | X-H torsion
[ 9170 9159 9160 9161 ] final   -4.13 input   86.63 | X-H torsion
[ 9251 9236 9237 9238 ] final   47.85 input  127.08 | X-H torsion
[ 3623 3616 3617 3618 ] final  159.30 input   94.27 | X-H torsion
[ 3649 3645 3646 3647 ] final  -46.12 input   86.49 | X-H torsion
[ 9037 9031 9032 9033 ] final  -78.84 input   26.45 | X-H torsion
[ 9196 9189 9190 9191 ] final -110.65 input  130.40 | X-H torsion
[ 4943 4938 4937 4934 ] final -157.17 input   60.00 | X-H torsion
[ 9041 9036 9035 9032 ] final  177.55 input   59.99 | X-H torsion
[ 9007 8996 8997 8998 ] final -148.77 input   49.09 | X-H torsion
[ 8541 8535 8536 8537 ] final  -92.05 input   50.11 | X-H torsion
[ 4959 4954 4955 4956 ] final   82.70 input   27.83 | X-H torsion
[ 8387 8378 8377 8375 ] final   75.35 input   59.99 | X-H torsion
[ 5633 5624 5625 5626 ] final   23.68 input   44.71 | X-H torsion
[ 5606 5601 5600 5597 ] final -132.74 input   59.98 | X-H torsion
[ 5665 5657 5658 5659 ] final  106.97 input  114.33 | X-H torsion
[ 5703 5695 5696 5697 ] final  132.73 input   57.04 | X-H torsion
[ 5747 5736 5737 5738 ] final   29.27 input   30.88 | X-H torsion
[ 5797 5785 5786 5787 ] final  -64.35 input   92.04 | X-H torsion
[ 9409 9397 9398 9399 ] final  157.49 input  123.68 | X-H torsion
[ 9376 9352 9353 9354 ] final   87.20 input  105.06 | X-H torsion
[ 11109 11102 11103 11104 ] final -103.22 input   57.11 | X-H torsion
[ 8379 8367 8368 8369 ] final   97.83 input   85.33 | X-H torsion
[ 5602 5596 5597 5598 ] final  -50.74 input  106.64 | X-H torsion
[ 13518 8422 8421 8420 ] final -176.49 input    0.00 | X-H torsion
[ 13521 8459 8458 8457 ] final   21.46 input   -0.00 | X-H torsion
[ 13525 8999 8998 8997 ] final   50.72 input   -0.00 | X-H torsion
[ 13528 9054 9053 9052 ] final -107.80 input   -0.00 | X-H torsion
[ 13531 9078 9077 9076 ] final -165.60 input    0.00 | X-H torsion
[ 13534 9124 9123 9122 ] final  -92.68 input   -0.00 | X-H torsion
[ 13539 9162 9161 9160 ] final  -87.38 input   -0.00 | X-H torsion
[ 13553 9034 9033 9032 ] final  179.07 input    0.00 | X-H torsion
[ 13555 8404 8403 8402 ] final   78.59 input    0.00 | X-H torsion
[ 13562 8485 8484 8483 ] final  172.80 input    0.00 | X-H torsion
[ 13564 8507 8506 8505 ] final  137.50 input   -0.00 | X-H torsion
[ 13571 4957 4956 4955 ] final  -69.76 input   -0.00 | X-H torsion
[ 13573 5599 5598 5597 ] final  160.67 input   -0.00 | X-H torsion
[ 13582 5698 5697 5696 ] final   70.68 input   -0.00 | X-H torsion
[ 13584 9239 9238 9237 ] final   20.13 input    0.00 | X-H torsion
[ 13588 5627 5626 5625 ] final   60.66 input    0.00 | X-H torsion
[ 13596 8370 8369 8368 ] final  -11.20 input   -0.00 | X-H torsion
[ 13601 9355 9354 9353 ] final -170.45 input   -0.00 | X-H torsion
[ 13603 9400 9399 9398 ] final  169.95 input   -0.00 | X-H torsion

> <Gold.Protein.ActiveResidues>
 MET341  TRP414  CYS420  VAL421  GLY422  LEU429  LEU460  SER462  ALA463  ILE464 
 SER482  GLN483  LEU484  ILE485  ARG486  TYR487  ASP500  ALA502  ASN503  TRP566 
 TYR567  GLY568  LEU569  PRO570  ALA571  VAL572  SER573  ASN574  PRO588  PHE589 
 SER590  GLY591  TRP592  TYR593  MET594  GLY595  GLU597  ILE598  ARG601  ASP602 
 ASP605  ARG608  ILE653  VAL654  TRP683  PRO687  PHE696  HIS697  TYR711  HEM750 
 H4B760 

> <Gold.Protein.RotatedAtoms>
  122.0045  249.0655  328.2685 H   0  0  0  0  0  0  0  0  0  0  0  0  # atno 3623 bound_to 3616
  125.0804  249.0075  326.7527 H   0  0  0  0  0  0  0  0  0  0  0  0  # atno 3649 bound_to 3645
  125.7991  247.5822  317.5012 H   0  0  0  0  0  0  0  0  0  0  0  0  # atno 4943 bound_to 4938
  122.6890  246.9356  313.3982 H   0  0  0  0  0  0  0  0  0  0  0  0  # atno 4959 bound_to 4954
  106.9515  245.9842  315.9595 H   0  0  0  0  0  0  0  0  0  0  0  0  # atno 5602 bound_to 5596
  105.8831  244.7381  319.9403 H   0  0  0  0  0  0  0  0  0  0  0  0  # atno 5606 bound_to 5601
  108.3885  244.4880  316.9264 H   0  0  0  0  0  0  0  0  0  0  0  0  # atno 5633 bound_to 5624
  112.3996  244.0417  315.1903 H   0  0  0  0  0  0  0  0  0  0  0  0  # atno 5665 bound_to 5657
  112.5605  241.3775  314.1250 H   0  0  0  0  0  0  0  0  0  0  0  0  # atno 5703 bound_to 5695
  109.2527  238.4697  315.1151 H   0  0  0  0  0  0  0  0  0  0  0  0  # atno 5747 bound_to 5736
  107.8083  237.0726  317.3571 H   0  0  0  0  0  0  0  0  0  0  0  0  # atno 5797 bound_to 5785
  114.4367  234.2099  318.7341 H   0  0  0  0  0  0  0  0  0  0  0  0  # atno 8379 bound_to 8367
  112.2379  238.3196  321.0092 H   0  0  0  0  0  0  0  0  0  0  0  0  # atno 8387 bound_to 8378
  115.5182  242.6757  317.0392 H   0  0  0  0  0  0  0  0  0  0  0  0  # atno 8487 bound_to 8482
  115.6381  247.0864  317.1539 H   0  0  0  0  0  0  0  0  0  0  0  0  # atno 8511 bound_to 8504
  112.6085  248.7333  317.0263 H   0  0  0  0  0  0  0  0  0  0  0  0  # atno 8541 bound_to 8535
  115.9763  250.1180  313.6447 H   0  0  0  0  0  0  0  0  0  0  0  0  # atno 9007 bound_to 8996
  118.9826  248.3709  316.0717 H   0  0  0  0  0  0  0  0  0  0  0  0  # atno 9037 bound_to 9031
  119.7209  244.5389  313.0493 H   0  0  0  0  0  0  0  0  0  0  0  0  # atno 9041 bound_to 9036
  120.2653  244.7015  317.5611 H   0  0  0  0  0  0  0  0  0  0  0  0  # atno 9055 bound_to 9051
  123.7610  243.5659  319.1819 H   0  0  0  0  0  0  0  0  0  0  0  0  # atno 9089 bound_to 9075
  121.7524  240.1518  320.2486 H   0  0  0  0  0  0  0  0  0  0  0  0  # atno 9133 bound_to 9121
  115.1196  238.9690  320.3188 H   0  0  0  0  0  0  0  0  0  0  0  0  # atno 9141 bound_to 9132
  121.2692  239.7266  324.3119 H   0  0  0  0  0  0  0  0  0  0  0  0  # atno 9170 bound_to 9159
  122.3035  237.9621  325.9660 H   0  0  0  0  0  0  0  0  0  0  0  0  # atno 9196 bound_to 9189
  118.7300  237.9246  327.9811 H   0  0  0  0  0  0  0  0  0  0  0  0  # atno 9251 bound_to 9236
  114.7919  237.3924  330.1660 H   0  0  0  0  0  0  0  0  0  0  0  0  # atno 9376 bound_to 9352
  112.8795  237.6986  327.9104 H   0  0  0  0  0  0  0  0  0  0  0  0  # atno 9409 bound_to 9397
  126.5353  237.2290  323.6887 H   0  0  0  0  0  0  0  0  0  0  0  0  # atno 11109 bound_to 11102
  115.6663  240.5796  316.9245 LP  0  0  0  0  0  0  0  0  0  0  0  0  # atno 13518 bound_to 8422
  115.9633  239.3847  315.7064 LP  0  0  0  0  0  0  0  0  0  0  0  0  # atno 13519 bound_to 8422
  119.0235  243.3809  317.5448 LP  0  0  0  0  0  0  0  0  0  0  0  0  # atno 13521 bound_to 8459
  118.0622  244.8156  317.4121 LP  0  0  0  0  0  0  0  0  0  0  0  0  # atno 13522 bound_to 8459
  116.3803  243.6755  318.1826 LP  0  0  0  0  0  0  0  0  0  0  0  0  # atno 13523 bound_to 8482
  114.6577  245.6582  317.3859 LP  0  0  0  0  0  0  0  0  0  0  0  0  # atno 13524 bound_to 8504
  116.0798  247.4461  315.7276 LP  0  0  0  0  0  0  0  0  0  0  0  0  # atno 13525 bound_to 8999
  117.1369  247.2802  317.0895 LP  0  0  0  0  0  0  0  0  0  0  0  0  # atno 13526 bound_to 8999
  120.8929  245.8476  316.3961 LP  0  0  0  0  0  0  0  0  0  0  0  0  # atno 13527 bound_to 9051
  121.5450  242.0532  316.8019 LP  0  0  0  0  0  0  0  0  0  0  0  0  # atno 13528 bound_to 9054
  122.9906  242.6103  316.0274 LP  0  0  0  0  0  0  0  0  0  0  0  0  # atno 13529 bound_to 9054
  122.1767  243.3616  318.4701 LP  0  0  0  0  0  0  0  0  0  0  0  0  # atno 13530 bound_to 9075
  122.4547  242.2225  322.4545 LP  0  0  0  0  0  0  0  0  0  0  0  0  # atno 13531 bound_to 9078
  122.5440  243.2810  321.0865 LP  0  0  0  0  0  0  0  0  0  0  0  0  # atno 13532 bound_to 9078
  123.2700  240.3325  321.0993 LP  0  0  0  0  0  0  0  0  0  0  0  0  # atno 13533 bound_to 9121
  123.7865  238.3369  323.6816 LP  0  0  0  0  0  0  0  0  0  0  0  0  # atno 13534 bound_to 9124
  124.4209  239.8874  323.2418 LP  0  0  0  0  0  0  0  0  0  0  0  0  # atno 13535 bound_to 9124
  114.9864  240.0491  321.5281 LP  0  0  0  0  0  0  0  0  0  0  0  0  # atno 13536 bound_to 9132
  114.7919  238.4555  321.8274 LP  0  0  0  0  0  0  0  0  0  0  0  0  # atno 13537 bound_to 9132
  122.3834  241.0726  324.2611 LP  0  0  0  0  0  0  0  0  0  0  0  0  # atno 13538 bound_to 9159
  119.9629  239.1244  327.1869 LP  0  0  0  0  0  0  0  0  0  0  0  0  # atno 13539 bound_to 9162
  119.9971  238.3998  325.6141 LP  0  0  0  0  0  0  0  0  0  0  0  0  # atno 13540 bound_to 9162
  118.5132  239.1602  329.1989 LP  0  0  0  0  0  0  0  0  0  0  0  0  # atno 13541 bound_to 9236
  122.8741  249.4969  326.8129 LP  0  0  0  0  0  0  0  0  0  0  0  0  # atno 13550 bound_to 3616
  123.8423  247.9789  326.0782 LP  0  0  0  0  0  0  0  0  0  0  0  0  # atno 13551 bound_to 3645
  119.0310  247.8066  314.4222 LP  0  0  0  0  0  0  0  0  0  0  0  0  # atno 13552 bound_to 9031
  122.6017  246.7704  315.9824 LP  0  0  0  0  0  0  0  0  0  0  0  0  # atno 13553 bound_to 9034
  121.3744  247.5374  315.0308 LP  0  0  0  0  0  0  0  0  0  0  0  0  # atno 13554 bound_to 9034
  121.1951  237.8744  316.9870 LP  0  0  0  0  0  0  0  0  0  0  0  0  # atno 13555 bound_to 8404
  120.0572  238.3016  318.2210 LP  0  0  0  0  0  0  0  0  0  0  0  0  # atno 13556 bound_to 8404
  122.8729  238.1231  327.6136 LP  0  0  0  0  0  0  0  0  0  0  0  0  # atno 13557 bound_to 9189
  126.7140  246.6455  316.5353 LP  0  0  0  0  0  0  0  0  0  0  0  0  # atno 13558 bound_to 4938
  125.1668  246.2306  316.8526 LP  0  0  0  0  0  0  0  0  0  0  0  0  # atno 13559 bound_to 4938
  120.8682  245.0354  314.0910 LP  0  0  0  0  0  0  0  0  0  0  0  0  # atno 13560 bound_to 9036
  119.9837  246.1305  313.2633 LP  0  0  0  0  0  0  0  0  0  0  0  0  # atno 13561 bound_to 9036
  112.6240  245.6991  316.6028 LP  0  0  0  0  0  0  0  0  0  0  0  0  # atno 13562 bound_to 8485
  113.3605  244.4423  315.6657 LP  0  0  0  0  0  0  0  0  0  0  0  0  # atno 13563 bound_to 8485
  113.7812  249.0527  315.0299 LP  0  0  0  0  0  0  0  0  0  0  0  0  # atno 13564 bound_to 8507
  114.6441  249.5399  316.4505 LP  0  0  0  0  0  0  0  0  0  0  0  0  # atno 13565 bound_to 8507
  115.5379  249.1869  315.0571 LP  0  0  0  0  0  0  0  0  0  0  0  0  # atno 13566 bound_to 8996
  111.4413  247.4524  316.8244 LP  0  0  0  0  0  0  0  0  0  0  0  0  # atno 13567 bound_to 8535
  123.7950  248.2409  313.7468 LP  0  0  0  0  0  0  0  0  0  0  0  0  # atno 13570 bound_to 4954
  120.0320  248.1347  313.1800 LP  0  0  0  0  0  0  0  0  0  0  0  0  # atno 13571 bound_to 4957
  120.4842  249.5387  314.0879 LP  0  0  0  0  0  0  0  0  0  0  0  0  # atno 13572 bound_to 4957
  110.7976  246.6273  318.2223 LP  0  0  0  0  0  0  0  0  0  0  0  0  # atno 13573 bound_to 5599
  109.6862  247.9510  318.1092 LP  0  0  0  0  0  0  0  0  0  0  0  0  # atno 13574 bound_to 5599
  111.1244  238.6719  319.8762 LP  0  0  0  0  0  0  0  0  0  0  0  0  # atno 13575 bound_to 8378
  112.4706  239.5858  320.0140 LP  0  0  0  0  0  0  0  0  0  0  0  0  # atno 13576 bound_to 8378
  109.0750  245.7381  317.9405 LP  0  0  0  0  0  0  0  0  0  0  0  0  # atno 13581 bound_to 5624
  111.4823  240.6174  317.2971 LP  0  0  0  0  0  0  0  0  0  0  0  0  # atno 13582 bound_to 5698
  111.8502  238.9597  317.6387 LP  0  0  0  0  0  0  0  0  0  0  0  0  # atno 13583 bound_to 5698
  114.4721  239.0374  327.4469 LP  0  0  0  0  0  0  0  0  0  0  0  0  # atno 13584 bound_to 9239
  114.3515  237.3095  327.4412 LP  0  0  0  0  0  0  0  0  0  0  0  0  # atno 13585 bound_to 9239
  107.4820  244.4752  320.0886 LP  0  0  0  0  0  0  0  0  0  0  0  0  # atno 13586 bound_to 5601
  106.7788  244.4386  318.6153 LP  0  0  0  0  0  0  0  0  0  0  0  0  # atno 13587 bound_to 5601
  108.5360  243.8030  315.1930 LP  0  0  0  0  0  0  0  0  0  0  0  0  # atno 13588 bound_to 5627
  109.3396  242.2706  315.1171 LP  0  0  0  0  0  0  0  0  0  0  0  0  # atno 13589 bound_to 5627
  110.6694  243.8890  315.3647 LP  0  0  0  0  0  0  0  0  0  0  0  0  # atno 13590 bound_to 5657
  110.9500  241.6930  314.7257 LP  0  0  0  0  0  0  0  0  0  0  0  0  # atno 13591 bound_to 5695
  110.5462  239.1799  316.0600 LP  0  0  0  0  0  0  0  0  0  0  0  0  # atno 13592 bound_to 5736
  108.5673  236.2160  318.6736 LP  0  0  0  0  0  0  0  0  0  0  0  0  # atno 13593 bound_to 5785
  116.4305  235.5743  319.2252 LP  0  0  0  0  0  0  0  0  0  0  0  0  # atno 13596 bound_to 8370
  118.1118  235.8432  318.9074 LP  0  0  0  0  0  0  0  0  0  0  0  0  # atno 13597 bound_to 8370
  112.1863  236.7823  329.2246 LP  0  0  0  0  0  0  0  0  0  0  0  0  # atno 13598 bound_to 9397
  110.1167  236.3120  329.3255 LP  0  0  0  0  0  0  0  0  0  0  0  0  # atno 13601 bound_to 9355
  110.3278  237.2749  330.7497 LP  0  0  0  0  0  0  0  0  0  0  0  0  # atno 13602 bound_to 9355
  109.4287  233.6228  327.8199 LP  0  0  0  0  0  0  0  0  0  0  0  0  # atno 13603 bound_to 9400
  109.0331  235.2133  327.2598 LP  0  0  0  0  0  0  0  0  0  0  0  0  # atno 13604 bound_to 9400
  114.0199  236.7527  331.5974 LP  0  0  0  0  0  0  0  0  0  0  0  0  # atno 13608 bound_to 9352

> <Gold.Score>
     Fitness  S(hb_ext) S(vdw_ext)  S(hb_int)    S(int)      intcor
     31.27       4.94      21.26       0.00      -2.90      -0.76

> <Gold.Goldscore.Fitness>
31.2741

> <Gold.Goldscore.Internal.Vdw>
-2.5375

> <Gold.Goldscore.Internal.Torsion>
-1.1296

> <Gold.Goldscore.External.Vdw>
21.2627

> <Gold.Goldscore.Internal.HBond>
0.0000

> <Gold.Goldscore.External.HBond>
4.9400

> <Gold.Goldscore.Internal.Correction>
-0.7650

> <Gold.Goldscore.Hbonds>
donor molecule, donor type, donor heavy atom, donor atom, acceptor molecule, acceptor atom, score
      L1  H    10    23       P1 13474  0.82

> <Gold.Goldscore.Internal.Vdw.Weighted>
-2.5375

> <Gold.Goldscore.Internal.Torsion.Weighted>
-1.1296

> <Gold.Goldscore.External.Vdw.Weighted>
29.2363

> <Gold.Goldscore.Internal.HBond.Weighted>
0.0000

> <Gold.Goldscore.External.HBond.Weighted>
4.9400

> <Gold.Goldscore.Internal.Correction.Weighted>
-0.7650

> <Gold.Rescore>
     Score     S(PLP)   S(hbond)     S(cho)   S(metal)  DE(clash)   DE(tors)     intcor
      2.05      -2.50       0.72       0.00       0.00       0.22       1.19       ----

> <Gold.PLP.Fitness>
2.0544

> <Gold.PLP.PLP>
-2.4979

> <Gold.PLP.part.hbond>
-4.6009

> <Gold.PLP.part.metal>
0.0000

> <Gold.PLP.part.buried>
9.8065

> <Gold.PLP.part.nonpolar>
-18.3125

> <Gold.PLP.part.repulsive>
9.0759

> <Gold.PLP.ligand.clash>
0.2166

> <Gold.PLP.ligand.torsion>
1.1921

> <Gold.PLP.Chemscore.Hbond>
0.7191

> <Gold.PLP.Chemscore.CHOScore>
0.0000

> <Gold.PLP.Chemscore.Metal>
0.0000

> <Gold.Chemscore.Hbonds>
donor molecule, donor type, donor heavy atom, donor atom, acceptor molecule, acceptor atom, score
      L1  H    10    23       P1 13474  0.60

> <Gold.PLP.Chemscore.Internal.Correction>
   9.000000E+99

