#       Name:                CT1002167954
#       Creating user name   hitesit
#       Creation time:       Sun Apr 16 22:52:09 2023


#       File generated by GOLD software.
#

@<TRIPOS>MOLECULE
CT1002167954|ligand_prepared|mol2|1|dock9
    29    30     1
SMALL
NO_CHARGES


@<TRIPOS>ATOM
      1 C1         111.9482 242.8811 327.2201 C.3            1 RES1               0.0000
      2 C2         112.1388 243.4452 325.7974 C.ar           1 RES1               0.0000
      3 C3         112.8771 241.6757 327.3311 C.2            1 RES1               0.0000
      4 C4         112.2867 244.0176 328.1785 C.2            1 RES1               0.0000
      5 C5         110.5037 242.4174 327.5201 C.3            1 RES1               0.0000
      6 C6         113.2809 243.1423 325.0621 C.ar           1 RES1               0.0000
      7 C7         111.1818 244.2661 325.2068 C.ar           1 RES1               0.0000
      8 N8         114.0070 241.8157 328.0818 N.am           1 RES1               0.0000
      9 O9         112.6418 240.6308 326.7368 O.2            1 RES1               0.0000
     10 N10        113.3872 243.8736 328.9821 N.am           1 RES1               0.0000
     11 O11        111.6199 245.0436 328.2332 O.2            1 RES1               0.0000
     12 C12        110.4086 241.3934 328.6402 C.3            1 RES1               0.0000
     13 C13        113.4586 243.6396 323.7817 C.ar           1 RES1               0.0000
     14 C14        111.3616 244.7626 323.9263 C.ar           1 RES1               0.0000
     15 C15        114.2804 242.8374 328.9553 C.2            1 RES1               0.0000
     16 C16        112.4990 244.4496 323.2128 C.ar           1 RES1               0.0000
     17 O17        115.2770 242.8051 329.6715 O.2            1 RES1               0.0000
     18 H18        109.9007 243.2931 327.7901 H              1 RES1               0.0000
     19 H19        110.0755 241.9837 326.6080 H              1 RES1               0.0000
     20 H20        114.0480 242.5084 325.4942 H              1 RES1               0.0000
     21 H21        110.2796 244.5265 325.7498 H              1 RES1               0.0000
     22 H22        114.7142 241.0940 327.9846 H              1 RES1               0.0000
     23 H23        113.5563 244.6067 329.6635 H              1 RES1               0.0000
     24 H24        109.3741 241.1022 328.8097 H              1 RES1               0.0000
     25 H25        110.9766 240.4986 328.3940 H              1 RES1               0.0000
     26 H26        110.8028 241.8002 329.5691 H              1 RES1               0.0000
     27 H27        114.3561 243.3914 323.2249 H              1 RES1               0.0000
     28 H28        110.6040 245.4002 323.4827 H              1 RES1               0.0000
     29 H29        112.6382 244.8387 322.2096 H              1 RES1               0.0000
@<TRIPOS>BOND
    1    1    2 1     
    2    1    3 1     
    3    1    4 1     
    4    1    5 1     
    5    2    6 ar    
    6    2    7 ar    
    7    3    8 1     
    8    3    9 2     
    9    4   10 1     
   10    4   11 2     
   11    5   12 1     
   12    5   18 1     
   13    5   19 1     
   14    6   13 ar    
   15    6   20 1     
   16    7   14 ar    
   17    7   21 1     
   18    8   15 1     
   19    8   22 1     
   20   10   15 1     
   21   10   23 1     
   22   12   24 1     
   23   12   25 1     
   24   12   26 1     
   25   13   16 ar    
   26   13   27 1     
   27   14   16 ar    
   28   14   28 1     
   29   15   17 2     
   30   16   29 1     
@<TRIPOS>SUBSTRUCTURE
      1 RES1           1
@<TRIPOS>SET
DONOR_HYDROGENS      STATIC     ATOMS    <user>   **** ""
2 22 23
ATOM$RED        STATIC     ATOMS    COLORGROUP SYSTEM
2 22 23
@<TRIPOS>COMMENT
> <Gold.Version>
2022.3.0

> <Gold.Id.Protein>
unknown|4uh5_clean|pdb

> <Gold.Protein.RotatedTorsions>
[ 8487 8482 8483 8484 ] final   93.08 input   34.95 | X-H torsion
[ 8511 8504 8505 8506 ] final   67.08 input  102.00 | X-H torsion
[ 9055 9051 9052 9053 ] final   45.32 input   39.76 | X-H torsion
[ 9089 9075 9076 9077 ] final   82.96 input   37.88 | X-H torsion
[ 9133 9121 9122 9123 ] final  174.62 input   94.46 | X-H torsion
[ 9141 9132 9131 9129 ] final  159.57 input   60.01 | X-H torsion
[ 9170 9159 9160 9161 ] final   -4.13 input   86.63 | X-H torsion
[ 9251 9236 9237 9238 ] final   47.85 input  127.08 | X-H torsion
[ 3623 3616 3617 3618 ] final  159.30 input   94.27 | X-H torsion
[ 3649 3645 3646 3647 ] final  -46.12 input   86.49 | X-H torsion
[ 9037 9031 9032 9033 ] final  -78.84 input   26.45 | X-H torsion
[ 9196 9189 9190 9191 ] final -110.65 input  130.40 | X-H torsion
[ 4943 4938 4937 4934 ] final -157.17 input   60.00 | X-H torsion
[ 9041 9036 9035 9032 ] final  177.55 input   59.99 | X-H torsion
[ 9007 8996 8997 8998 ] final -148.77 input   49.09 | X-H torsion
[ 8541 8535 8536 8537 ] final  -92.05 input   50.11 | X-H torsion
[ 4959 4954 4955 4956 ] final   82.70 input   27.83 | X-H torsion
[ 8387 8378 8377 8375 ] final   75.35 input   59.99 | X-H torsion
[ 5633 5624 5625 5626 ] final   23.68 input   44.71 | X-H torsion
[ 5606 5601 5600 5597 ] final -132.74 input   59.98 | X-H torsion
[ 5665 5657 5658 5659 ] final  106.97 input  114.33 | X-H torsion
[ 5703 5695 5696 5697 ] final  132.73 input   57.04 | X-H torsion
[ 5747 5736 5737 5738 ] final   29.27 input   30.88 | X-H torsion
[ 5797 5785 5786 5787 ] final  -64.35 input   92.04 | X-H torsion
[ 9409 9397 9398 9399 ] final  157.49 input  123.68 | X-H torsion
[ 9376 9352 9353 9354 ] final   87.20 input  105.06 | X-H torsion
[ 11109 11102 11103 11104 ] final -103.22 input   57.11 | X-H torsion
[ 8379 8367 8368 8369 ] final   97.83 input   85.33 | X-H torsion
[ 5602 5596 5597 5598 ] final  -50.74 input  106.64 | X-H torsion
[ 13518 8422 8421 8420 ] final -176.49 input    0.00 | X-H torsion
[ 13521 8459 8458 8457 ] final   21.46 input   -0.00 | X-H torsion
[ 13525 8999 8998 8997 ] final   50.72 input   -0.00 | X-H torsion
[ 13528 9054 9053 9052 ] final -107.80 input   -0.00 | X-H torsion
[ 13531 9078 9077 9076 ] final -165.60 input    0.00 | X-H torsion
[ 13534 9124 9123 9122 ] final  -92.68 input   -0.00 | X-H torsion
[ 13539 9162 9161 9160 ] final  -87.38 input   -0.00 | X-H torsion
[ 13553 9034 9033 9032 ] final  179.07 input    0.00 | X-H torsion
[ 13555 8404 8403 8402 ] final   78.59 input    0.00 | X-H torsion
[ 13562 8485 8484 8483 ] final  172.80 input    0.00 | X-H torsion
[ 13564 8507 8506 8505 ] final  137.50 input   -0.00 | X-H torsion
[ 13571 4957 4956 4955 ] final  -69.76 input   -0.00 | X-H torsion
[ 13573 5599 5598 5597 ] final  160.67 input   -0.00 | X-H torsion
[ 13582 5698 5697 5696 ] final   70.68 input   -0.00 | X-H torsion
[ 13584 9239 9238 9237 ] final   20.13 input    0.00 | X-H torsion
[ 13588 5627 5626 5625 ] final   60.66 input    0.00 | X-H torsion
[ 13596 8370 8369 8368 ] final  -11.20 input   -0.00 | X-H torsion
[ 13601 9355 9354 9353 ] final -170.45 input   -0.00 | X-H torsion
[ 13603 9400 9399 9398 ] final  169.95 input   -0.00 | X-H torsion

> <Gold.Protein.ActiveResidues>
 MET341  TRP414  CYS420  VAL421  GLY422  LEU429  LEU460  SER462  ALA463  ILE464 
 SER482  GLN483  LEU484  ILE485  ARG486  TYR487  ASP500  ALA502  ASN503  TRP566 
 TYR567  GLY568  LEU569  PRO570  ALA571  VAL572  SER573  ASN574  PRO588  PHE589 
 SER590  GLY591  TRP592  TYR593  MET594  GLY595  GLU597  ILE598  ARG601  ASP602 
 ASP605  ARG608  ILE653  VAL654  TRP683  PRO687  PHE696  HIS697  TYR711  HEM750 
 H4B760 

> <Gold.Protein.RotatedAtoms>
  122.0045  249.0655  328.2685 H   0  0  0  0  0  0  0  0  0  0  0  0  # atno 3623 bound_to 3616
  125.0804  249.0075  326.7527 H   0  0  0  0  0  0  0  0  0  0  0  0  # atno 3649 bound_to 3645
  125.7991  247.5822  317.5012 H   0  0  0  0  0  0  0  0  0  0  0  0  # atno 4943 bound_to 4938
  122.6890  246.9356  313.3982 H   0  0  0  0  0  0  0  0  0  0  0  0  # atno 4959 bound_to 4954
  106.9515  245.9842  315.9595 H   0  0  0  0  0  0  0  0  0  0  0  0  # atno 5602 bound_to 5596
  105.8831  244.7381  319.9403 H   0  0  0  0  0  0  0  0  0  0  0  0  # atno 5606 bound_to 5601
  108.3885  244.4880  316.9264 H   0  0  0  0  0  0  0  0  0  0  0  0  # atno 5633 bound_to 5624
  112.3996  244.0417  315.1903 H   0  0  0  0  0  0  0  0  0  0  0  0  # atno 5665 bound_to 5657
  112.5605  241.3775  314.1250 H   0  0  0  0  0  0  0  0  0  0  0  0  # atno 5703 bound_to 5695
  109.2527  238.4697  315.1151 H   0  0  0  0  0  0  0  0  0  0  0  0  # atno 5747 bound_to 5736
  107.8083  237.0726  317.3571 H   0  0  0  0  0  0  0  0  0  0  0  0  # atno 5797 bound_to 5785
  114.4367  234.2099  318.7341 H   0  0  0  0  0  0  0  0  0  0  0  0  # atno 8379 bound_to 8367
  112.2379  238.3196  321.0092 H   0  0  0  0  0  0  0  0  0  0  0  0  # atno 8387 bound_to 8378
  115.5182  242.6757  317.0392 H   0  0  0  0  0  0  0  0  0  0  0  0  # atno 8487 bound_to 8482
  115.6381  247.0864  317.1539 H   0  0  0  0  0  0  0  0  0  0  0  0  # atno 8511 bound_to 8504
  112.6085  248.7333  317.0263 H   0  0  0  0  0  0  0  0  0  0  0  0  # atno 8541 bound_to 8535
  115.9763  250.1180  313.6447 H   0  0  0  0  0  0  0  0  0  0  0  0  # atno 9007 bound_to 8996
  118.9826  248.3709  316.0717 H   0  0  0  0  0  0  0  0  0  0  0  0  # atno 9037 bound_to 9031
  119.7209  244.5389  313.0493 H   0  0  0  0  0  0  0  0  0  0  0  0  # atno 9041 bound_to 9036
  120.2653  244.7015  317.5611 H   0  0  0  0  0  0  0  0  0  0  0  0  # atno 9055 bound_to 9051
  123.7610  243.5659  319.1819 H   0  0  0  0  0  0  0  0  0  0  0  0  # atno 9089 bound_to 9075
  121.7524  240.1518  320.2486 H   0  0  0  0  0  0  0  0  0  0  0  0  # atno 9133 bound_to 9121
  115.1196  238.9690  320.3188 H   0  0  0  0  0  0  0  0  0  0  0  0  # atno 9141 bound_to 9132
  121.2692  239.7266  324.3119 H   0  0  0  0  0  0  0  0  0  0  0  0  # atno 9170 bound_to 9159
  122.3035  237.9621  325.9660 H   0  0  0  0  0  0  0  0  0  0  0  0  # atno 9196 bound_to 9189
  118.7300  237.9246  327.9811 H   0  0  0  0  0  0  0  0  0  0  0  0  # atno 9251 bound_to 9236
  114.7919  237.3924  330.1660 H   0  0  0  0  0  0  0  0  0  0  0  0  # atno 9376 bound_to 9352
  112.8795  237.6986  327.9104 H   0  0  0  0  0  0  0  0  0  0  0  0  # atno 9409 bound_to 9397
  126.5353  237.2290  323.6887 H   0  0  0  0  0  0  0  0  0  0  0  0  # atno 11109 bound_to 11102
  115.6663  240.5796  316.9245 LP  0  0  0  0  0  0  0  0  0  0  0  0  # atno 13518 bound_to 8422
  115.9633  239.3847  315.7064 LP  0  0  0  0  0  0  0  0  0  0  0  0  # atno 13519 bound_to 8422
  119.0235  243.3809  317.5448 LP  0  0  0  0  0  0  0  0  0  0  0  0  # atno 13521 bound_to 8459
  118.0622  244.8156  317.4121 LP  0  0  0  0  0  0  0  0  0  0  0  0  # atno 13522 bound_to 8459
  116.3803  243.6755  318.1826 LP  0  0  0  0  0  0  0  0  0  0  0  0  # atno 13523 bound_to 8482
  114.6577  245.6582  317.3859 LP  0  0  0  0  0  0  0  0  0  0  0  0  # atno 13524 bound_to 8504
  116.0798  247.4461  315.7276 LP  0  0  0  0  0  0  0  0  0  0  0  0  # atno 13525 bound_to 8999
  117.1369  247.2802  317.0895 LP  0  0  0  0  0  0  0  0  0  0  0  0  # atno 13526 bound_to 8999
  120.8929  245.8476  316.3961 LP  0  0  0  0  0  0  0  0  0  0  0  0  # atno 13527 bound_to 9051
  121.5450  242.0532  316.8019 LP  0  0  0  0  0  0  0  0  0  0  0  0  # atno 13528 bound_to 9054
  122.9906  242.6103  316.0274 LP  0  0  0  0  0  0  0  0  0  0  0  0  # atno 13529 bound_to 9054
  122.1767  243.3616  318.4701 LP  0  0  0  0  0  0  0  0  0  0  0  0  # atno 13530 bound_to 9075
  122.4547  242.2225  322.4545 LP  0  0  0  0  0  0  0  0  0  0  0  0  # atno 13531 bound_to 9078
  122.5440  243.2810  321.0865 LP  0  0  0  0  0  0  0  0  0  0  0  0  # atno 13532 bound_to 9078
  123.2700  240.3325  321.0993 LP  0  0  0  0  0  0  0  0  0  0  0  0  # atno 13533 bound_to 9121
  123.7865  238.3369  323.6816 LP  0  0  0  0  0  0  0  0  0  0  0  0  # atno 13534 bound_to 9124
  124.4209  239.8874  323.2418 LP  0  0  0  0  0  0  0  0  0  0  0  0  # atno 13535 bound_to 9124
  114.9864  240.0491  321.5281 LP  0  0  0  0  0  0  0  0  0  0  0  0  # atno 13536 bound_to 9132
  114.7919  238.4555  321.8274 LP  0  0  0  0  0  0  0  0  0  0  0  0  # atno 13537 bound_to 9132
  122.3834  241.0726  324.2611 LP  0  0  0  0  0  0  0  0  0  0  0  0  # atno 13538 bound_to 9159
  119.9629  239.1244  327.1869 LP  0  0  0  0  0  0  0  0  0  0  0  0  # atno 13539 bound_to 9162
  119.9971  238.3998  325.6141 LP  0  0  0  0  0  0  0  0  0  0  0  0  # atno 13540 bound_to 9162
  118.5132  239.1602  329.1989 LP  0  0  0  0  0  0  0  0  0  0  0  0  # atno 13541 bound_to 9236
  122.8741  249.4969  326.8129 LP  0  0  0  0  0  0  0  0  0  0  0  0  # atno 13550 bound_to 3616
  123.8423  247.9789  326.0782 LP  0  0  0  0  0  0  0  0  0  0  0  0  # atno 13551 bound_to 3645
  119.0310  247.8066  314.4222 LP  0  0  0  0  0  0  0  0  0  0  0  0  # atno 13552 bound_to 9031
  122.6017  246.7704  315.9824 LP  0  0  0  0  0  0  0  0  0  0  0  0  # atno 13553 bound_to 9034
  121.3744  247.5374  315.0308 LP  0  0  0  0  0  0  0  0  0  0  0  0  # atno 13554 bound_to 9034
  121.1951  237.8744  316.9870 LP  0  0  0  0  0  0  0  0  0  0  0  0  # atno 13555 bound_to 8404
  120.0572  238.3016  318.2210 LP  0  0  0  0  0  0  0  0  0  0  0  0  # atno 13556 bound_to 8404
  122.8729  238.1231  327.6136 LP  0  0  0  0  0  0  0  0  0  0  0  0  # atno 13557 bound_to 9189
  126.7140  246.6455  316.5353 LP  0  0  0  0  0  0  0  0  0  0  0  0  # atno 13558 bound_to 4938
  125.1668  246.2306  316.8526 LP  0  0  0  0  0  0  0  0  0  0  0  0  # atno 13559 bound_to 4938
  120.8682  245.0354  314.0910 LP  0  0  0  0  0  0  0  0  0  0  0  0  # atno 13560 bound_to 9036
  119.9837  246.1305  313.2633 LP  0  0  0  0  0  0  0  0  0  0  0  0  # atno 13561 bound_to 9036
  112.6240  245.6991  316.6028 LP  0  0  0  0  0  0  0  0  0  0  0  0  # atno 13562 bound_to 8485
  113.3605  244.4423  315.6657 LP  0  0  0  0  0  0  0  0  0  0  0  0  # atno 13563 bound_to 8485
  113.7812  249.0527  315.0299 LP  0  0  0  0  0  0  0  0  0  0  0  0  # atno 13564 bound_to 8507
  114.6441  249.5399  316.4505 LP  0  0  0  0  0  0  0  0  0  0  0  0  # atno 13565 bound_to 8507
  115.5379  249.1869  315.0571 LP  0  0  0  0  0  0  0  0  0  0  0  0  # atno 13566 bound_to 8996
  111.4413  247.4524  316.8244 LP  0  0  0  0  0  0  0  0  0  0  0  0  # atno 13567 bound_to 8535
  123.7950  248.2409  313.7468 LP  0  0  0  0  0  0  0  0  0  0  0  0  # atno 13570 bound_to 4954
  120.0320  248.1347  313.1800 LP  0  0  0  0  0  0  0  0  0  0  0  0  # atno 13571 bound_to 4957
  120.4842  249.5387  314.0879 LP  0  0  0  0  0  0  0  0  0  0  0  0  # atno 13572 bound_to 4957
  110.7976  246.6273  318.2223 LP  0  0  0  0  0  0  0  0  0  0  0  0  # atno 13573 bound_to 5599
  109.6862  247.9510  318.1092 LP  0  0  0  0  0  0  0  0  0  0  0  0  # atno 13574 bound_to 5599
  111.1244  238.6719  319.8762 LP  0  0  0  0  0  0  0  0  0  0  0  0  # atno 13575 bound_to 8378
  112.4706  239.5858  320.0140 LP  0  0  0  0  0  0  0  0  0  0  0  0  # atno 13576 bound_to 8378
  109.0750  245.7381  317.9405 LP  0  0  0  0  0  0  0  0  0  0  0  0  # atno 13581 bound_to 5624
  111.4823  240.6174  317.2971 LP  0  0  0  0  0  0  0  0  0  0  0  0  # atno 13582 bound_to 5698
  111.8502  238.9597  317.6387 LP  0  0  0  0  0  0  0  0  0  0  0  0  # atno 13583 bound_to 5698
  114.4721  239.0374  327.4469 LP  0  0  0  0  0  0  0  0  0  0  0  0  # atno 13584 bound_to 9239
  114.3515  237.3095  327.4412 LP  0  0  0  0  0  0  0  0  0  0  0  0  # atno 13585 bound_to 9239
  107.4820  244.4752  320.0886 LP  0  0  0  0  0  0  0  0  0  0  0  0  # atno 13586 bound_to 5601
  106.7788  244.4386  318.6153 LP  0  0  0  0  0  0  0  0  0  0  0  0  # atno 13587 bound_to 5601
  108.5360  243.8030  315.1930 LP  0  0  0  0  0  0  0  0  0  0  0  0  # atno 13588 bound_to 5627
  109.3396  242.2706  315.1171 LP  0  0  0  0  0  0  0  0  0  0  0  0  # atno 13589 bound_to 5627
  110.6694  243.8890  315.3647 LP  0  0  0  0  0  0  0  0  0  0  0  0  # atno 13590 bound_to 5657
  110.9500  241.6930  314.7257 LP  0  0  0  0  0  0  0  0  0  0  0  0  # atno 13591 bound_to 5695
  110.5462  239.1799  316.0600 LP  0  0  0  0  0  0  0  0  0  0  0  0  # atno 13592 bound_to 5736
  108.5673  236.2160  318.6736 LP  0  0  0  0  0  0  0  0  0  0  0  0  # atno 13593 bound_to 5785
  116.4305  235.5743  319.2252 LP  0  0  0  0  0  0  0  0  0  0  0  0  # atno 13596 bound_to 8370
  118.1118  235.8432  318.9074 LP  0  0  0  0  0  0  0  0  0  0  0  0  # atno 13597 bound_to 8370
  112.1863  236.7823  329.2246 LP  0  0  0  0  0  0  0  0  0  0  0  0  # atno 13598 bound_to 9397
  110.1167  236.3120  329.3255 LP  0  0  0  0  0  0  0  0  0  0  0  0  # atno 13601 bound_to 9355
  110.3278  237.2749  330.7497 LP  0  0  0  0  0  0  0  0  0  0  0  0  # atno 13602 bound_to 9355
  109.4287  233.6228  327.8199 LP  0  0  0  0  0  0  0  0  0  0  0  0  # atno 13603 bound_to 9400
  109.0331  235.2133  327.2598 LP  0  0  0  0  0  0  0  0  0  0  0  0  # atno 13604 bound_to 9400
  114.0199  236.7527  331.5974 LP  0  0  0  0  0  0  0  0  0  0  0  0  # atno 13608 bound_to 9352

> <Gold.Score>
     Fitness  S(hb_ext) S(vdw_ext)  S(hb_int)    S(int)      intcor
     31.27       4.94      21.26       0.00      -2.90      -0.76

> <Gold.Goldscore.Fitness>
31.2741

> <Gold.Goldscore.Internal.Vdw>
-2.5375

> <Gold.Goldscore.Internal.Torsion>
-1.1296

> <Gold.Goldscore.External.Vdw>
21.2627

> <Gold.Goldscore.Internal.HBond>
0.0000

> <Gold.Goldscore.External.HBond>
4.9400

> <Gold.Goldscore.Internal.Correction>
-0.7650

> <Gold.Goldscore.Hbonds>
donor molecule, donor type, donor heavy atom, donor atom, acceptor molecule, acceptor atom, score
      L1  H    10    23       P1 13474  0.82

> <Gold.Goldscore.Internal.Vdw.Weighted>
-2.5375

> <Gold.Goldscore.Internal.Torsion.Weighted>
-1.1296

> <Gold.Goldscore.External.Vdw.Weighted>
29.2363

> <Gold.Goldscore.Internal.HBond.Weighted>
0.0000

> <Gold.Goldscore.External.HBond.Weighted>
4.9400

> <Gold.Goldscore.Internal.Correction.Weighted>
-0.7650

> <Gold.Rescore>
     Score     S(PLP)   S(hbond)     S(cho)   S(metal)  DE(clash)   DE(tors)     intcor
      2.05      -2.50       0.72       0.00       0.00       0.22       1.19       ----

> <Gold.PLP.Fitness>
2.0544

> <Gold.PLP.PLP>
-2.4979

> <Gold.PLP.part.hbond>
-4.6009

> <Gold.PLP.part.metal>
0.0000

> <Gold.PLP.part.buried>
9.8065

> <Gold.PLP.part.nonpolar>
-18.3125

> <Gold.PLP.part.repulsive>
9.0759

> <Gold.PLP.ligand.clash>
0.2166

> <Gold.PLP.ligand.torsion>
1.1921

> <Gold.PLP.Chemscore.Hbond>
0.7191

> <Gold.PLP.Chemscore.CHOScore>
0.0000

> <Gold.PLP.Chemscore.Metal>
0.0000

> <Gold.Chemscore.Hbonds>
donor molecule, donor type, donor heavy atom, donor atom, acceptor molecule, acceptor atom, score
      L1  H    10    23       P1 13474  0.60

> <Gold.PLP.Chemscore.Internal.Correction>
   9.000000E+99

