#       Name:                CT1002167954
#       Creating user name   hitesit
#       Creation time:       Sun Apr 16 22:52:06 2023


#       File generated by GOLD software.
#

@<TRIPOS>MOLECULE
CT1002167954|ligand_prepared|mol2|1|dock6
    29    30     1
SMALL
NO_CHARGES


@<TRIPOS>ATOM
      1 C1         112.9889 241.8885 323.4246 C.3            1 RES1               0.0000
      2 C2         114.0439 242.7168 322.6631 C.ar           1 RES1               0.0000
      3 C3         113.6422 240.5452 323.7362 C.2            1 RES1               0.0000
      4 C4         112.6185 242.7017 324.6599 C.2            1 RES1               0.0000
      5 C5         111.6955 241.6301 322.6172 C.3            1 RES1               0.0000
      6 C6         114.0061 242.8081 321.2749 C.ar           1 RES1               0.0000
      7 C7         115.0574 243.3960 323.3339 C.ar           1 RES1               0.0000
      8 N8         114.0225 240.3115 325.0249 N.am           1 RES1               0.0000
      9 O9         113.8563 239.7196 322.8572 O.2            1 RES1               0.0000
     10 N10        112.9455 242.1890 325.8879 N.am           1 RES1               0.0000
     11 O11        112.0613 243.7896 324.5804 O.2            1 RES1               0.0000
     12 C12        110.5580 241.0578 323.4482 C.3            1 RES1               0.0000
     13 C13        114.9458 243.5538 320.5826 C.ar           1 RES1               0.0000
     14 C14        115.9962 244.1410 322.6396 C.ar           1 RES1               0.0000
     15 C15        113.6581 241.0452 326.1251 C.2            1 RES1               0.0000
     16 C16        115.9410 244.2211 321.2643 C.ar           1 RES1               0.0000
     17 O17        113.9605 240.6775 327.2567 O.2            1 RES1               0.0000
     18 H18        111.3645 242.5750 322.1687 H              1 RES1               0.0000
     19 H19        111.9220 240.9329 321.8011 H              1 RES1               0.0000
     20 H20        113.2317 242.2878 320.7211 H              1 RES1               0.0000
     21 H21        115.1210 243.3464 324.4156 H              1 RES1               0.0000
     22 H22        114.6344 239.5177 325.1853 H              1 RES1               0.0000
     23 H23        112.6282 242.7080 326.7005 H              1 RES1               0.0000
     24 H24        109.6750 240.8956 322.8337 H              1 RES1               0.0000
     25 H25        110.8437 240.1050 323.8891 H              1 RES1               0.0000
     26 H26        110.2896 241.7374 324.2545 H              1 RES1               0.0000
     27 H27        114.8988 243.6125 319.5002 H              1 RES1               0.0000
     28 H28        116.7781 244.6641 323.1802 H              1 RES1               0.0000
     29 H29        116.6768 244.8055 320.7218 H              1 RES1               0.0000
@<TRIPOS>BOND
    1    1    2 1     
    2    1    3 1     
    3    1    4 1     
    4    1    5 1     
    5    2    6 ar    
    6    2    7 ar    
    7    3    8 1     
    8    3    9 2     
    9    4   10 1     
   10    4   11 2     
   11    5   12 1     
   12    5   18 1     
   13    5   19 1     
   14    6   13 ar    
   15    6   20 1     
   16    7   14 ar    
   17    7   21 1     
   18    8   15 1     
   19    8   22 1     
   20   10   15 1     
   21   10   23 1     
   22   12   24 1     
   23   12   25 1     
   24   12   26 1     
   25   13   16 ar    
   26   13   27 1     
   27   14   16 ar    
   28   14   28 1     
   29   15   17 2     
   30   16   29 1     
@<TRIPOS>SUBSTRUCTURE
      1 RES1           1
@<TRIPOS>SET
DONOR_HYDROGENS      STATIC     ATOMS    <user>   **** ""
2 22 23
ATOM$RED        STATIC     ATOMS    COLORGROUP SYSTEM
2 22 23
@<TRIPOS>COMMENT
> <Gold.Version>
2022.3.0

> <Gold.Id.Protein>
unknown|4uh5_clean|pdb

> <Gold.Protein.RotatedTorsions>
[ 8487 8482 8483 8484 ] final   49.06 input   34.95 | X-H torsion
[ 8511 8504 8505 8506 ] final  -21.21 input  102.00 | X-H torsion
[ 9055 9051 9052 9053 ] final  101.68 input   39.76 | X-H torsion
[ 9089 9075 9076 9077 ] final   88.49 input   37.88 | X-H torsion
[ 9133 9121 9122 9123 ] final   90.21 input   94.46 | X-H torsion
[ 9141 9132 9131 9129 ] final   24.51 input   60.01 | X-H torsion
[ 9170 9159 9160 9161 ] final -128.98 input   86.63 | X-H torsion
[ 9251 9236 9237 9238 ] final  -61.42 input  127.08 | X-H torsion
[ 3623 3616 3617 3618 ] final -178.62 input   94.27 | X-H torsion
[ 3649 3645 3646 3647 ] final   52.70 input   86.49 | X-H torsion
[ 9037 9031 9032 9033 ] final  -24.29 input   26.45 | X-H torsion
[ 9196 9189 9190 9191 ] final  -70.85 input  130.40 | X-H torsion
[ 4943 4938 4937 4934 ] final -110.23 input   60.00 | X-H torsion
[ 9041 9036 9035 9032 ] final -136.97 input   59.99 | X-H torsion
[ 9007 8996 8997 8998 ] final  -90.24 input   49.09 | X-H torsion
[ 8541 8535 8536 8537 ] final   82.17 input   50.11 | X-H torsion
[ 4959 4954 4955 4956 ] final  -83.49 input   27.83 | X-H torsion
[ 8387 8378 8377 8375 ] final -162.46 input   59.99 | X-H torsion
[ 5633 5624 5625 5626 ] final -128.25 input   44.71 | X-H torsion
[ 5606 5601 5600 5597 ] final   90.64 input   59.98 | X-H torsion
[ 5665 5657 5658 5659 ] final -127.77 input  114.33 | X-H torsion
[ 5703 5695 5696 5697 ] final   61.49 input   57.04 | X-H torsion
[ 5747 5736 5737 5738 ] final   26.66 input   30.88 | X-H torsion
[ 5797 5785 5786 5787 ] final    0.50 input   92.04 | X-H torsion
[ 9409 9397 9398 9399 ] final  165.66 input  123.68 | X-H torsion
[ 9376 9352 9353 9354 ] final  147.60 input  105.06 | X-H torsion
[ 11109 11102 11103 11104 ] final   72.31 input   57.11 | X-H torsion
[ 8379 8367 8368 8369 ] final  -44.22 input   85.33 | X-H torsion
[ 5602 5596 5597 5598 ] final  152.84 input  106.64 | X-H torsion
[ 13518 8422 8421 8420 ] final   72.90 input    0.00 | X-H torsion
[ 13521 8459 8458 8457 ] final   48.87 input   -0.00 | X-H torsion
[ 13525 8999 8998 8997 ] final -156.36 input   -0.00 | X-H torsion
[ 13528 9054 9053 9052 ] final  -94.44 input   -0.00 | X-H torsion
[ 13531 9078 9077 9076 ] final  -64.91 input    0.00 | X-H torsion
[ 13534 9124 9123 9122 ] final -160.55 input   -0.00 | X-H torsion
[ 13539 9162 9161 9160 ] final -178.81 input   -0.00 | X-H torsion
[ 13553 9034 9033 9032 ] final  130.53 input    0.00 | X-H torsion
[ 13555 8404 8403 8402 ] final   16.66 input    0.00 | X-H torsion
[ 13562 8485 8484 8483 ] final  179.75 input    0.00 | X-H torsion
[ 13564 8507 8506 8505 ] final -114.16 input   -0.00 | X-H torsion
[ 13571 4957 4956 4955 ] final -147.99 input   -0.00 | X-H torsion
[ 13573 5599 5598 5597 ] final -145.18 input   -0.00 | X-H torsion
[ 13582 5698 5697 5696 ] final    5.35 input   -0.00 | X-H torsion
[ 13584 9239 9238 9237 ] final   20.79 input    0.00 | X-H torsion
[ 13588 5627 5626 5625 ] final   79.79 input    0.00 | X-H torsion
[ 13596 8370 8369 8368 ] final  147.29 input   -0.00 | X-H torsion
[ 13601 9355 9354 9353 ] final   61.45 input   -0.00 | X-H torsion
[ 13603 9400 9399 9398 ] final -170.50 input   -0.00 | X-H torsion

> <Gold.Protein.ActiveResidues>
 MET341  TRP414  CYS420  VAL421  GLY422  LEU429  LEU460  SER462  ALA463  ILE464 
 SER482  GLN483  LEU484  ILE485  ARG486  TYR487  ASP500  ALA502  ASN503  TRP566 
 TYR567  GLY568  LEU569  PRO570  ALA571  VAL572  SER573  ASN574  PRO588  PHE589 
 SER590  GLY591  TRP592  TYR593  MET594  GLY595  GLU597  ILE598  ARG601  ASP602 
 ASP605  ARG608  ILE653  VAL654  TRP683  PRO687  PHE696  HIS697  TYR711  HEM750 
 H4B760 

> <Gold.Protein.RotatedAtoms>
  122.0899  249.3876  328.3368 H   0  0  0  0  0  0  0  0  0  0  0  0  # atno 3623 bound_to 3616
  124.0830  249.0680  325.8655 H   0  0  0  0  0  0  0  0  0  0  0  0  # atno 3649 bound_to 3645
  125.1810  247.1673  317.4635 H   0  0  0  0  0  0  0  0  0  0  0  0  # atno 4943 bound_to 4938
  123.6441  248.3239  313.8678 H   0  0  0  0  0  0  0  0  0  0  0  0  # atno 4959 bound_to 4954
  105.7020  245.7410  317.1359 H   0  0  0  0  0  0  0  0  0  0  0  0  # atno 5602 bound_to 5596
  107.5928  244.4319  319.8443 H   0  0  0  0  0  0  0  0  0  0  0  0  # atno 5606 bound_to 5601
  109.0577  245.9417  317.5673 H   0  0  0  0  0  0  0  0  0  0  0  0  # atno 5633 bound_to 5624
  110.9384  244.5832  315.0649 H   0  0  0  0  0  0  0  0  0  0  0  0  # atno 5665 bound_to 5657
  112.3067  241.5244  315.1121 H   0  0  0  0  0  0  0  0  0  0  0  0  # atno 5703 bound_to 5695
  109.2727  238.4342  315.1162 H   0  0  0  0  0  0  0  0  0  0  0  0  # atno 5747 bound_to 5736
  107.5142  237.1528  318.2474 H   0  0  0  0  0  0  0  0  0  0  0  0  # atno 5797 bound_to 5785
  115.7766  233.2338  318.9161 H   0  0  0  0  0  0  0  0  0  0  0  0  # atno 8379 bound_to 8367
  112.4431  239.5866  319.9898 H   0  0  0  0  0  0  0  0  0  0  0  0  # atno 8387 bound_to 8378
  115.1105  242.9673  317.4699 H   0  0  0  0  0  0  0  0  0  0  0  0  # atno 8487 bound_to 8482
  114.8651  246.4497  316.4352 H   0  0  0  0  0  0  0  0  0  0  0  0  # atno 8511 bound_to 8504
  111.3853  247.4849  316.8860 H   0  0  0  0  0  0  0  0  0  0  0  0  # atno 8541 bound_to 8535
  115.9036  249.2593  313.5788 H   0  0  0  0  0  0  0  0  0  0  0  0  # atno 9007 bound_to 8996
  119.6959  248.3782  315.7006 H   0  0  0  0  0  0  0  0  0  0  0  0  # atno 9037 bound_to 9031
  119.4993  245.1939  312.8360 H   0  0  0  0  0  0  0  0  0  0  0  0  # atno 9041 bound_to 9036
  120.3506  245.5033  317.7993 H   0  0  0  0  0  0  0  0  0  0  0  0  # atno 9055 bound_to 9051
  123.7933  243.5496  319.1044 H   0  0  0  0  0  0  0  0  0  0  0  0  # atno 9089 bound_to 9075
  122.5989  239.3690  320.5512 H   0  0  0  0  0  0  0  0  0  0  0  0  # atno 9133 bound_to 9121
  114.9398  239.9355  321.7417 H   0  0  0  0  0  0  0  0  0  0  0  0  # atno 9141 bound_to 9132
  122.6477  240.3778  323.9408 H   0  0  0  0  0  0  0  0  0  0  0  0  # atno 9170 bound_to 9159
  121.8970  238.2676  326.2959 H   0  0  0  0  0  0  0  0  0  0  0  0  # atno 9196 bound_to 9189
  118.0915  238.2410  329.2384 H   0  0  0  0  0  0  0  0  0  0  0  0  # atno 9251 bound_to 9236
  114.8372  237.8364  330.9349 H   0  0  0  0  0  0  0  0  0  0  0  0  # atno 9376 bound_to 9352
  112.7878  237.7814  327.9317 H   0  0  0  0  0  0  0  0  0  0  0  0  # atno 9409 bound_to 9397
  125.4512  238.5858  323.9904 H   0  0  0  0  0  0  0  0  0  0  0  0  # atno 11109 bound_to 11102
  115.8066  239.1875  316.6595 LP  0  0  0  0  0  0  0  0  0  0  0  0  # atno 13518 bound_to 8422
  115.8230  240.7769  315.9714 LP  0  0  0  0  0  0  0  0  0  0  0  0  # atno 13519 bound_to 8422
  118.9455  243.4088  317.1429 LP  0  0  0  0  0  0  0  0  0  0  0  0  # atno 13521 bound_to 8459
  118.1402  244.7877  317.8139 LP  0  0  0  0  0  0  0  0  0  0  0  0  # atno 13522 bound_to 8459
  116.7802  243.3894  317.7601 LP  0  0  0  0  0  0  0  0  0  0  0  0  # atno 13523 bound_to 8482
  115.4114  246.2789  318.0866 LP  0  0  0  0  0  0  0  0  0  0  0  0  # atno 13524 bound_to 8504
  117.1971  246.9380  316.8804 LP  0  0  0  0  0  0  0  0  0  0  0  0  # atno 13525 bound_to 8999
  116.0196  247.7883  315.9367 LP  0  0  0  0  0  0  0  0  0  0  0  0  # atno 13526 bound_to 8999
  120.8105  245.0727  316.1659 LP  0  0  0  0  0  0  0  0  0  0  0  0  # atno 13527 bound_to 9051
  121.4599  242.2042  316.6993 LP  0  0  0  0  0  0  0  0  0  0  0  0  # atno 13528 bound_to 9054
  123.0757  242.4593  316.1301 LP  0  0  0  0  0  0  0  0  0  0  0  0  # atno 13529 bound_to 9054
  122.1452  243.3775  318.5456 LP  0  0  0  0  0  0  0  0  0  0  0  0  # atno 13530 bound_to 9075
  123.3564  242.8576  321.7052 LP  0  0  0  0  0  0  0  0  0  0  0  0  # atno 13531 bound_to 9078
  121.6423  242.6459  321.8359 LP  0  0  0  0  0  0  0  0  0  0  0  0  # atno 13532 bound_to 9078
  122.4477  241.0930  320.8053 LP  0  0  0  0  0  0  0  0  0  0  0  0  # atno 13533 bound_to 9121
  124.1184  238.9847  324.3182 LP  0  0  0  0  0  0  0  0  0  0  0  0  # atno 13534 bound_to 9124
  124.0890  239.2397  322.6052 LP  0  0  0  0  0  0  0  0  0  0  0  0  # atno 13535 bound_to 9124
  114.8176  238.3175  321.6242 LP  0  0  0  0  0  0  0  0  0  0  0  0  # atno 13536 bound_to 9132
  115.1418  239.2134  320.2980 LP  0  0  0  0  0  0  0  0  0  0  0  0  # atno 13537 bound_to 9132
  121.0393  240.4376  324.6229 LP  0  0  0  0  0  0  0  0  0  0  0  0  # atno 13538 bound_to 9159
  119.9285  237.9677  326.7415 LP  0  0  0  0  0  0  0  0  0  0  0  0  # atno 13539 bound_to 9162
  120.0315  239.5565  326.0595 LP  0  0  0  0  0  0  0  0  0  0  0  0  # atno 13540 bound_to 9162
  119.1346  238.8524  327.9754 LP  0  0  0  0  0  0  0  0  0  0  0  0  # atno 13541 bound_to 9236
  122.7912  249.1845  326.7468 LP  0  0  0  0  0  0  0  0  0  0  0  0  # atno 13550 bound_to 3616
  124.8234  247.9193  326.9509 LP  0  0  0  0  0  0  0  0  0  0  0  0  # atno 13551 bound_to 3645
  118.3263  247.7995  314.7890 LP  0  0  0  0  0  0  0  0  0  0  0  0  # atno 13552 bound_to 9031
  122.3051  247.3394  316.2908 LP  0  0  0  0  0  0  0  0  0  0  0  0  # atno 13553 bound_to 9034
  121.6710  246.9684  314.7223 LP  0  0  0  0  0  0  0  0  0  0  0  0  # atno 13554 bound_to 9034
  121.0690  237.3495  317.6961 LP  0  0  0  0  0  0  0  0  0  0  0  0  # atno 13555 bound_to 8404
  120.1833  238.8265  317.5120 LP  0  0  0  0  0  0  0  0  0  0  0  0  # atno 13556 bound_to 8404
  123.2657  237.8280  327.2949 LP  0  0  0  0  0  0  0  0  0  0  0  0  # atno 13557 bound_to 9189
  126.7204  247.2733  316.9474 LP  0  0  0  0  0  0  0  0  0  0  0  0  # atno 13558 bound_to 4938
  125.7832  246.0209  316.4785 LP  0  0  0  0  0  0  0  0  0  0  0  0  # atno 13559 bound_to 4938
  120.5567  244.4374  313.8145 LP  0  0  0  0  0  0  0  0  0  0  0  0  # atno 13560 bound_to 9036
  120.5185  246.0688  313.7546 LP  0  0  0  0  0  0  0  0  0  0  0  0  # atno 13561 bound_to 9036
  112.6372  245.7607  316.5188 LP  0  0  0  0  0  0  0  0  0  0  0  0  # atno 13562 bound_to 8485
  113.3473  244.3808  315.7497 LP  0  0  0  0  0  0  0  0  0  0  0  0  # atno 13563 bound_to 8485
  113.8495  250.0213  316.0444 LP  0  0  0  0  0  0  0  0  0  0  0  0  # atno 13564 bound_to 8507
  114.5758  248.5713  315.4360 LP  0  0  0  0  0  0  0  0  0  0  0  0  # atno 13565 bound_to 8507
  115.6089  250.0257  315.1214 LP  0  0  0  0  0  0  0  0  0  0  0  0  # atno 13566 bound_to 8996
  112.6492  248.6851  316.9629 LP  0  0  0  0  0  0  0  0  0  0  0  0  # atno 13567 bound_to 8535
  122.8573  246.8779  313.2857 LP  0  0  0  0  0  0  0  0  0  0  0  0  # atno 13570 bound_to 4954
  119.5734  249.1266  313.1898 LP  0  0  0  0  0  0  0  0  0  0  0  0  # atno 13571 bound_to 4957
  120.9427  248.5469  314.0781 LP  0  0  0  0  0  0  0  0  0  0  0  0  # atno 13572 bound_to 4957
  110.7144  246.9666  317.5156 LP  0  0  0  0  0  0  0  0  0  0  0  0  # atno 13573 bound_to 5599
  109.7694  247.6117  318.8160 LP  0  0  0  0  0  0  0  0  0  0  0  0  # atno 13574 bound_to 5599
  112.2685  238.3377  321.0182 LP  0  0  0  0  0  0  0  0  0  0  0  0  # atno 13575 bound_to 8378
  111.1198  238.6439  319.8986 LP  0  0  0  0  0  0  0  0  0  0  0  0  # atno 13576 bound_to 8378
  108.4261  244.3286  317.3191 LP  0  0  0  0  0  0  0  0  0  0  0  0  # atno 13581 bound_to 5624
  112.2634  240.2016  316.9959 LP  0  0  0  0  0  0  0  0  0  0  0  0  # atno 13582 bound_to 5698
  111.0690  239.3755  317.9399 LP  0  0  0  0  0  0  0  0  0  0  0  0  # atno 13583 bound_to 5698
  114.4711  239.0374  327.4370 LP  0  0  0  0  0  0  0  0  0  0  0  0  # atno 13584 bound_to 9239
  114.3525  237.3095  327.4512 LP  0  0  0  0  0  0  0  0  0  0  0  0  # atno 13585 bound_to 9239
  106.5108  244.4866  318.6303 LP  0  0  0  0  0  0  0  0  0  0  0  0  # atno 13586 bound_to 5601
  106.0278  244.7356  320.1702 LP  0  0  0  0  0  0  0  0  0  0  0  0  # atno 13587 bound_to 5601
  108.6180  243.8057  314.9171 LP  0  0  0  0  0  0  0  0  0  0  0  0  # atno 13588 bound_to 5627
  109.2576  242.2680  315.3930 LP  0  0  0  0  0  0  0  0  0  0  0  0  # atno 13589 bound_to 5627
  112.1062  243.3566  315.4880 LP  0  0  0  0  0  0  0  0  0  0  0  0  # atno 13590 bound_to 5657
  111.1979  241.5495  313.7614 LP  0  0  0  0  0  0  0  0  0  0  0  0  # atno 13591 bound_to 5695
  110.5270  239.2140  316.0590 LP  0  0  0  0  0  0  0  0  0  0  0  0  # atno 13592 bound_to 5736
  108.8579  236.1369  317.7941 LP  0  0  0  0  0  0  0  0  0  0  0  0  # atno 13593 bound_to 5785
  118.1204  235.5435  319.0279 LP  0  0  0  0  0  0  0  0  0  0  0  0  # atno 13596 bound_to 8370
  116.4219  235.8740  319.1046 LP  0  0  0  0  0  0  0  0  0  0  0  0  # atno 13597 bound_to 8370
  112.2765  236.7009  329.2037 LP  0  0  0  0  0  0  0  0  0  0  0  0  # atno 13598 bound_to 9397
  110.0134  237.6255  330.1559 LP  0  0  0  0  0  0  0  0  0  0  0  0  # atno 13601 bound_to 9355
  110.4311  235.9613  329.9193 LP  0  0  0  0  0  0  0  0  0  0  0  0  # atno 13602 bound_to 9355
  109.3486  233.7467  328.0741 LP  0  0  0  0  0  0  0  0  0  0  0  0  # atno 13603 bound_to 9400
  109.1132  235.0894  327.0056 LP  0  0  0  0  0  0  0  0  0  0  0  0  # atno 13604 bound_to 9400
  113.9755  236.3188  330.8460 LP  0  0  0  0  0  0  0  0  0  0  0  0  # atno 13608 bound_to 9352

> <Gold.Score>
     Fitness  S(hb_ext) S(vdw_ext)  S(hb_int)    S(int)      intcor
     36.14       0.07      26.62       0.00      -0.53      -0.77

> <Gold.Goldscore.Fitness>
36.1381

> <Gold.Goldscore.Internal.Vdw>
-0.7366

> <Gold.Goldscore.Internal.Torsion>
-0.5634

> <Gold.Goldscore.External.Vdw>
26.6176

> <Gold.Goldscore.Internal.HBond>
0.0000

> <Gold.Goldscore.External.HBond>
0.0702

> <Gold.Goldscore.Internal.Correction>
-0.7686

> <Gold.Goldscore.Hbonds>
donor molecule, donor type, donor heavy atom, donor atom, acceptor molecule, acceptor atom, score
      P1  H  9132  9141       L1     9  0.01
      P1  H  9397  9409       L1    17  0.02

> <Gold.Goldscore.Internal.Vdw.Weighted>
-0.7366

> <Gold.Goldscore.Internal.Torsion.Weighted>
-0.5634

> <Gold.Goldscore.External.Vdw.Weighted>
36.5992

> <Gold.Goldscore.Internal.HBond.Weighted>
0.0000

> <Gold.Goldscore.External.HBond.Weighted>
0.0702

> <Gold.Goldscore.Internal.Correction.Weighted>
-0.7686

> <Gold.Rescore>
     Score     S(PLP)   S(hbond)     S(cho)   S(metal)  DE(clash)   DE(tors)     intcor
     35.87     -34.36       1.00       0.00       0.00       0.00       0.75       ----

> <Gold.PLP.Fitness>
35.8651

> <Gold.PLP.PLP>
-34.3635

> <Gold.PLP.part.hbond>
-2.0000

> <Gold.PLP.part.metal>
0.0000

> <Gold.PLP.part.buried>
-7.7375

> <Gold.PLP.part.nonpolar>
-25.1781

> <Gold.PLP.part.repulsive>
0.5282

> <Gold.PLP.ligand.clash>
0.0000

> <Gold.PLP.ligand.torsion>
0.7492

> <Gold.PLP.Chemscore.Hbond>
1.0000

> <Gold.PLP.Chemscore.CHOScore>
0.0000

> <Gold.PLP.Chemscore.Metal>
0.0000

> <Gold.Chemscore.Hbonds>
donor molecule, donor type, donor heavy atom, donor atom, acceptor molecule, acceptor atom, score
      L1  H     8    22       P1  9404  0.14
      P1  H  9132  9141       L1     9  0.33

> <Gold.PLP.Chemscore.Internal.Correction>
   9.000000E+99

