#       Name:                CT1002167954
#       Creating user name   hitesit
#       Creation time:       Sun Apr 16 22:52:10 2023


#       File generated by GOLD software.
#

@<TRIPOS>MOLECULE
CT1002167954|ligand_prepared|mol2|1|dock10
    29    30     1
SMALL
NO_CHARGES


@<TRIPOS>ATOM
      1 C1         117.5191 245.5001 321.8768 C.3            1 RES1               0.0000
      2 C2         116.3580 244.5101 322.1016 C.ar           1 RES1               0.0000
      3 C3         118.6023 245.1259 322.8842 C.2            1 RES1               0.0000
      4 C4         117.9413 245.3389 320.4206 C.2            1 RES1               0.0000
      5 C5         117.1304 246.9801 322.1004 C.3            1 RES1               0.0000
      6 C6         116.6097 243.1556 322.2981 C.ar           1 RES1               0.0000
      7 C7         115.0325 244.9360 322.1178 C.ar           1 RES1               0.0000
      8 N8         119.7149 244.4951 322.4106 N.am           1 RES1               0.0000
      9 O9         118.4649 245.3455 324.0813 O.2            1 RES1               0.0000
     10 N10        119.1918 244.8396 320.1661 N.am           1 RES1               0.0000
     11 O11        117.1962 245.6241 319.4912 O.2            1 RES1               0.0000
     12 C12        118.3041 247.9426 322.0103 C.3            1 RES1               0.0000
     13 C13        115.5742 242.2597 322.5062 C.ar           1 RES1               0.0000
     14 C14        113.9984 244.0384 322.3259 C.ar           1 RES1               0.0000
     15 C15        120.0861 244.3816 321.0949 C.2            1 RES1               0.0000
     16 C16        114.2680 242.7005 322.5207 C.ar           1 RES1               0.0000
     17 O17        121.1702 243.8957 320.7853 O.2            1 RES1               0.0000
     18 H18        116.3814 247.2655 321.3515 H              1 RES1               0.0000
     19 H19        116.6687 247.0782 323.0907 H              1 RES1               0.0000
     20 H20        117.6311 242.7898 322.2875 H              1 RES1               0.0000
     21 H21        114.7967 245.9838 321.9657 H              1 RES1               0.0000
     22 H22        120.3274 244.0683 323.0983 H              1 RES1               0.0000
     23 H23        119.4830 244.8063 319.1943 H              1 RES1               0.0000
     24 H24        117.9764 248.9670 322.1748 H              1 RES1               0.0000
     25 H25        119.0574 247.7036 322.7581 H              1 RES1               0.0000
     26 H26        118.7717 247.8898 321.0292 H              1 RES1               0.0000
     27 H27        115.7915 241.2075 322.6576 H              1 RES1               0.0000
     28 H28        112.9719 244.3897 322.3359 H              1 RES1               0.0000
     29 H29        113.4569 241.9985 322.6841 H              1 RES1               0.0000
@<TRIPOS>BOND
    1    1    2 1     
    2    1    3 1     
    3    1    4 1     
    4    1    5 1     
    5    2    6 ar    
    6    2    7 ar    
    7    3    8 1     
    8    3    9 2     
    9    4   10 1     
   10    4   11 2     
   11    5   12 1     
   12    5   18 1     
   13    5   19 1     
   14    6   13 ar    
   15    6   20 1     
   16    7   14 ar    
   17    7   21 1     
   18    8   15 1     
   19    8   22 1     
   20   10   15 1     
   21   10   23 1     
   22   12   24 1     
   23   12   25 1     
   24   12   26 1     
   25   13   16 ar    
   26   13   27 1     
   27   14   16 ar    
   28   14   28 1     
   29   15   17 2     
   30   16   29 1     
@<TRIPOS>SUBSTRUCTURE
      1 RES1           1
@<TRIPOS>SET
DONOR_HYDROGENS      STATIC     ATOMS    <user>   **** ""
2 22 23
ATOM$RED        STATIC     ATOMS    COLORGROUP SYSTEM
2 22 23
@<TRIPOS>COMMENT
> <Gold.Version>
2022.3.0

> <Gold.Id.Protein>
unknown|4uh5_clean|pdb

> <Gold.Protein.RotatedTorsions>
[ 8487 8482 8483 8484 ] final  -50.79 input   34.95 | X-H torsion
[ 8511 8504 8505 8506 ] final  152.78 input  102.00 | X-H torsion
[ 9055 9051 9052 9053 ] final -139.56 input   39.76 | X-H torsion
[ 9089 9075 9076 9077 ] final -157.38 input   37.88 | X-H torsion
[ 9133 9121 9122 9123 ] final   51.51 input   94.46 | X-H torsion
[ 9141 9132 9131 9129 ] final   62.56 input   60.01 | X-H torsion
[ 9170 9159 9160 9161 ] final   95.78 input   86.63 | X-H torsion
[ 9251 9236 9237 9238 ] final -109.50 input  127.08 | X-H torsion
[ 3623 3616 3617 3618 ] final  112.40 input   94.27 | X-H torsion
[ 3649 3645 3646 3647 ] final  -59.96 input   86.49 | X-H torsion
[ 9037 9031 9032 9033 ] final  -48.05 input   26.45 | X-H torsion
[ 9196 9189 9190 9191 ] final  104.86 input  130.40 | X-H torsion
[ 4943 4938 4937 4934 ] final   98.86 input   60.00 | X-H torsion
[ 9041 9036 9035 9032 ] final -163.82 input   59.99 | X-H torsion
[ 9007 8996 8997 8998 ] final  -59.80 input   49.09 | X-H torsion
[ 8541 8535 8536 8537 ] final  175.14 input   50.11 | X-H torsion
[ 4959 4954 4955 4956 ] final  -87.83 input   27.83 | X-H torsion
[ 8387 8378 8377 8375 ] final  108.83 input   59.99 | X-H torsion
[ 5633 5624 5625 5626 ] final  132.96 input   44.71 | X-H torsion
[ 5606 5601 5600 5597 ] final  -93.83 input   59.98 | X-H torsion
[ 5665 5657 5658 5659 ] final  -51.54 input  114.33 | X-H torsion
[ 5703 5695 5696 5697 ] final   83.03 input   57.04 | X-H torsion
[ 5747 5736 5737 5738 ] final   10.16 input   30.88 | X-H torsion
[ 5797 5785 5786 5787 ] final -125.08 input   92.04 | X-H torsion
[ 9409 9397 9398 9399 ] final -148.40 input  123.68 | X-H torsion
[ 9376 9352 9353 9354 ] final  129.73 input  105.06 | X-H torsion
[ 11109 11102 11103 11104 ] final  151.53 input   57.11 | X-H torsion
[ 8379 8367 8368 8369 ] final -145.12 input   85.33 | X-H torsion
[ 5602 5596 5597 5598 ] final   75.96 input  106.64 | X-H torsion
[ 13518 8422 8421 8420 ] final  -53.50 input    0.00 | X-H torsion
[ 13521 8459 8458 8457 ] final  -10.53 input   -0.00 | X-H torsion
[ 13525 8999 8998 8997 ] final   89.41 input   -0.00 | X-H torsion
[ 13528 9054 9053 9052 ] final  -36.01 input   -0.00 | X-H torsion
[ 13531 9078 9077 9076 ] final -125.17 input    0.00 | X-H torsion
[ 13534 9124 9123 9122 ] final   58.09 input   -0.00 | X-H torsion
[ 13539 9162 9161 9160 ] final  -91.41 input   -0.00 | X-H torsion
[ 13553 9034 9033 9032 ] final  109.47 input    0.00 | X-H torsion
[ 13555 8404 8403 8402 ] final  148.74 input    0.00 | X-H torsion
[ 13562 8485 8484 8483 ] final  138.88 input    0.00 | X-H torsion
[ 13564 8507 8506 8505 ] final   67.21 input   -0.00 | X-H torsion
[ 13571 4957 4956 4955 ] final  160.76 input   -0.00 | X-H torsion
[ 13573 5599 5598 5597 ] final -153.77 input   -0.00 | X-H torsion
[ 13582 5698 5697 5696 ] final -166.62 input   -0.00 | X-H torsion
[ 13584 9239 9238 9237 ] final   25.97 input    0.00 | X-H torsion
[ 13588 5627 5626 5625 ] final  157.22 input    0.00 | X-H torsion
[ 13596 8370 8369 8368 ] final -121.76 input   -0.00 | X-H torsion
[ 13601 9355 9354 9353 ] final  -74.59 input   -0.00 | X-H torsion
[ 13603 9400 9399 9398 ] final   60.96 input   -0.00 | X-H torsion

> <Gold.Protein.ActiveResidues>
 MET341  TRP414  CYS420  VAL421  GLY422  LEU429  LEU460  SER462  ALA463  ILE464 
 SER482  GLN483  LEU484  ILE485  ARG486  TYR487  ASP500  ALA502  ASN503  TRP566 
 TYR567  GLY568  LEU569  PRO570  ALA571  VAL572  SER573  ASN574  PRO588  PHE589 
 SER590  GLY591  TRP592  TYR593  MET594  GLY595  GLU597  ILE598  ARG601  ASP602 
 ASP605  ARG608  ILE653  VAL654  TRP683  PRO687  PHE696  HIS697  TYR711  HEM750 
 H4B760 

> <Gold.Protein.RotatedAtoms>
  122.0445  248.5392  327.7984 H   0  0  0  0  0  0  0  0  0  0  0  0  # atno 3623 bound_to 3616
  125.1290  248.8332  326.8632 H   0  0  0  0  0  0  0  0  0  0  0  0  # atno 3649 bound_to 3645
  126.7757  246.8693  316.6571 H   0  0  0  0  0  0  0  0  0  0  0  0  # atno 4943 bound_to 4938
  123.6978  248.3057  313.8328 H   0  0  0  0  0  0  0  0  0  0  0  0  # atno 4959 bound_to 4954
  106.4533  244.9421  317.0414 H   0  0  0  0  0  0  0  0  0  0  0  0  # atno 5602 bound_to 5596
  105.8140  244.6837  319.3231 H   0  0  0  0  0  0  0  0  0  0  0  0  # atno 5606 bound_to 5601
  108.8642  244.7998  318.2592 H   0  0  0  0  0  0  0  0  0  0  0  0  # atno 5633 bound_to 5624
  110.7541  243.5979  315.4842 H   0  0  0  0  0  0  0  0  0  0  0  0  # atno 5665 bound_to 5657
  112.5136  241.4654  314.8613 H   0  0  0  0  0  0  0  0  0  0  0  0  # atno 5703 bound_to 5695
  109.4272  238.2319  315.1462 H   0  0  0  0  0  0  0  0  0  0  0  0  # atno 5747 bound_to 5736
  108.5026  236.5414  317.2055 H   0  0  0  0  0  0  0  0  0  0  0  0  # atno 5797 bound_to 5785
  114.7086  232.8420  318.1712 H   0  0  0  0  0  0  0  0  0  0  0  0  # atno 8379 bound_to 8367
  112.6152  238.6978  320.9352 H   0  0  0  0  0  0  0  0  0  0  0  0  # atno 8387 bound_to 8378
  115.8555  243.7144  318.3111 H   0  0  0  0  0  0  0  0  0  0  0  0  # atno 8487 bound_to 8482
  115.4629  246.3579  318.0959 H   0  0  0  0  0  0  0  0  0  0  0  0  # atno 8511 bound_to 8504
  112.5525  247.6290  316.3986 H   0  0  0  0  0  0  0  0  0  0  0  0  # atno 8541 bound_to 8535
  115.7986  248.9126  313.8691 H   0  0  0  0  0  0  0  0  0  0  0  0  # atno 9007 bound_to 8996
  119.4280  248.4097  315.9407 H   0  0  0  0  0  0  0  0  0  0  0  0  # atno 9037 bound_to 9031
  119.5835  244.7757  312.9197 H   0  0  0  0  0  0  0  0  0  0  0  0  # atno 9041 bound_to 9036
  120.9168  245.9162  316.4369 H   0  0  0  0  0  0  0  0  0  0  0  0  # atno 9055 bound_to 9051
  122.8864  243.2613  317.9611 H   0  0  0  0  0  0  0  0  0  0  0  0  # atno 9089 bound_to 9075
  123.0676  239.5641  320.8475 H   0  0  0  0  0  0  0  0  0  0  0  0  # atno 9133 bound_to 9121
  115.0604  240.0866  321.1630 H   0  0  0  0  0  0  0  0  0  0  0  0  # atno 9141 bound_to 9132
  121.3447  241.0255  324.6904 H   0  0  0  0  0  0  0  0  0  0  0  0  # atno 9170 bound_to 9159
  123.2477  237.8304  327.3683 H   0  0  0  0  0  0  0  0  0  0  0  0  # atno 9196 bound_to 9189
  118.3109  238.9209  329.3417 H   0  0  0  0  0  0  0  0  0  0  0  0  # atno 9251 bound_to 9236
  114.8783  237.7796  330.6695 H   0  0  0  0  0  0  0  0  0  0  0  0  # atno 9376 bound_to 9352
  112.2325  238.0067  328.2678 H   0  0  0  0  0  0  0  0  0  0  0  0  # atno 9409 bound_to 9397
  126.3481  238.5663  323.3121 H   0  0  0  0  0  0  0  0  0  0  0  0  # atno 11109 bound_to 11102
  115.9499  240.1805  315.4833 LP  0  0  0  0  0  0  0  0  0  0  0  0  # atno 13518 bound_to 8422
  115.6798  239.7838  317.1476 LP  0  0  0  0  0  0  0  0  0  0  0  0  # atno 13519 bound_to 8422
  118.9781  243.5503  317.9886 LP  0  0  0  0  0  0  0  0  0  0  0  0  # atno 13521 bound_to 8459
  118.1075  244.6462  316.9682 LP  0  0  0  0  0  0  0  0  0  0  0  0  # atno 13522 bound_to 8459
  116.0494  242.6566  316.9350 LP  0  0  0  0  0  0  0  0  0  0  0  0  # atno 13523 bound_to 8482
  114.8286  246.3685  316.4673 LP  0  0  0  0  0  0  0  0  0  0  0  0  # atno 13524 bound_to 8504
  116.3579  246.9456  315.6924 LP  0  0  0  0  0  0  0  0  0  0  0  0  # atno 13525 bound_to 8999
  116.8588  247.7807  317.1248 LP  0  0  0  0  0  0  0  0  0  0  0  0  # atno 13526 bound_to 8999
  120.2632  244.6736  317.4827 LP  0  0  0  0  0  0  0  0  0  0  0  0  # atno 13527 bound_to 9051
  121.6115  242.8345  316.1567 LP  0  0  0  0  0  0  0  0  0  0  0  0  # atno 13528 bound_to 9054
  122.9240  241.8290  316.6727 LP  0  0  0  0  0  0  0  0  0  0  0  0  # atno 13529 bound_to 9054
  123.0279  243.6582  319.6584 LP  0  0  0  0  0  0  0  0  0  0  0  0  # atno 13530 bound_to 9075
  123.0254  242.3539  322.3318 LP  0  0  0  0  0  0  0  0  0  0  0  0  # atno 13531 bound_to 9078
  121.9733  243.1495  321.2093 LP  0  0  0  0  0  0  0  0  0  0  0  0  # atno 13532 bound_to 9078
  121.9922  240.9035  320.5174 LP  0  0  0  0  0  0  0  0  0  0  0  0  # atno 13533 bound_to 9121
  124.3098  239.7020  322.8620 LP  0  0  0  0  0  0  0  0  0  0  0  0  # atno 13534 bound_to 9124
  123.8976  238.5224  324.0614 LP  0  0  0  0  0  0  0  0  0  0  0  0  # atno 13535 bound_to 9124
  114.7760  238.7552  322.0537 LP  0  0  0  0  0  0  0  0  0  0  0  0  # atno 13536 bound_to 9132
  115.0619  238.6236  320.4514 LP  0  0  0  0  0  0  0  0  0  0  0  0  # atno 13537 bound_to 9132
  122.3098  239.8061  323.8921 LP  0  0  0  0  0  0  0  0  0  0  0  0  # atno 13538 bound_to 9159
  119.9593  239.0684  327.2103 LP  0  0  0  0  0  0  0  0  0  0  0  0  # atno 13539 bound_to 9162
  120.0007  238.4559  325.5907 LP  0  0  0  0  0  0  0  0  0  0  0  0  # atno 13540 bound_to 9162
  118.9211  238.1907  327.8749 LP  0  0  0  0  0  0  0  0  0  0  0  0  # atno 13541 bound_to 9236
  122.8353  250.0074  327.2689 LP  0  0  0  0  0  0  0  0  0  0  0  0  # atno 13550 bound_to 3616
  123.7945  248.1503  325.9695 LP  0  0  0  0  0  0  0  0  0  0  0  0  # atno 13551 bound_to 3645
  118.5910  247.7683  314.5517 LP  0  0  0  0  0  0  0  0  0  0  0  0  # atno 13552 bound_to 9031
  122.0904  247.5698  316.2593 LP  0  0  0  0  0  0  0  0  0  0  0  0  # atno 13553 bound_to 9034
  121.8857  246.7381  314.7539 LP  0  0  0  0  0  0  0  0  0  0  0  0  # atno 13554 bound_to 9034
  120.6326  238.6956  316.9869 LP  0  0  0  0  0  0  0  0  0  0  0  0  # atno 13555 bound_to 8404
  120.6196  237.4804  318.2211 LP  0  0  0  0  0  0  0  0  0  0  0  0  # atno 13556 bound_to 8404
  121.9605  238.2504  326.2587 LP  0  0  0  0  0  0  0  0  0  0  0  0  # atno 13557 bound_to 9189
  125.3409  246.1035  316.7022 LP  0  0  0  0  0  0  0  0  0  0  0  0  # atno 13558 bound_to 4938
  125.5559  247.4909  317.5363 LP  0  0  0  0  0  0  0  0  0  0  0  0  # atno 13559 bound_to 4938
  120.7839  244.7514  314.0181 LP  0  0  0  0  0  0  0  0  0  0  0  0  # atno 13560 bound_to 9036
  120.2064  246.1759  313.4668 LP  0  0  0  0  0  0  0  0  0  0  0  0  # atno 13561 bound_to 9036
  112.6382  245.2868  316.8945 LP  0  0  0  0  0  0  0  0  0  0  0  0  # atno 13562 bound_to 8485
  113.3463  244.8547  315.3740 LP  0  0  0  0  0  0  0  0  0  0  0  0  # atno 13563 bound_to 8485
  114.5620  248.5711  315.4207 LP  0  0  0  0  0  0  0  0  0  0  0  0  # atno 13564 bound_to 8507
  113.8633  250.0215  316.0597 LP  0  0  0  0  0  0  0  0  0  0  0  0  # atno 13565 bound_to 8507
  115.7114  250.3644  314.8379 LP  0  0  0  0  0  0  0  0  0  0  0  0  # atno 13566 bound_to 8996
  111.4965  248.5429  317.4443 LP  0  0  0  0  0  0  0  0  0  0  0  0  # atno 13567 bound_to 8535
  122.8046  246.8958  313.3200 LP  0  0  0  0  0  0  0  0  0  0  0  0  # atno 13570 bound_to 4954
  119.8984  249.6244  313.6454 LP  0  0  0  0  0  0  0  0  0  0  0  0  # atno 13571 bound_to 4957
  120.6178  248.0490  313.6225 LP  0  0  0  0  0  0  0  0  0  0  0  0  # atno 13572 bound_to 4957
  110.7605  246.8831  317.6035 LP  0  0  0  0  0  0  0  0  0  0  0  0  # atno 13573 bound_to 5599
  109.7233  247.6952  318.7281 LP  0  0  0  0  0  0  0  0  0  0  0  0  # atno 13574 bound_to 5599
  111.1866  238.2987  320.2658 LP  0  0  0  0  0  0  0  0  0  0  0  0  # atno 13575 bound_to 8378
  112.0284  239.5781  319.6988 LP  0  0  0  0  0  0  0  0  0  0  0  0  # atno 13576 bound_to 8378
  108.6137  245.4358  316.6482 LP  0  0  0  0  0  0  0  0  0  0  0  0  # atno 13581 bound_to 5624
  111.1414  239.2787  317.9312 LP  0  0  0  0  0  0  0  0  0  0  0  0  # atno 13582 bound_to 5698
  112.1910  240.2984  317.0045 LP  0  0  0  0  0  0  0  0  0  0  0  0  # atno 13583 bound_to 5698
  114.4628  239.0338  327.3592 LP  0  0  0  0  0  0  0  0  0  0  0  0  # atno 13584 bound_to 9239
  114.3608  237.3131  327.5289 LP  0  0  0  0  0  0  0  0  0  0  0  0  # atno 13585 bound_to 9239
  106.9843  244.6002  320.4505 LP  0  0  0  0  0  0  0  0  0  0  0  0  # atno 13586 bound_to 5601
  107.3461  244.3684  318.8751 LP  0  0  0  0  0  0  0  0  0  0  0  0  # atno 13587 bound_to 5601
  109.1650  243.0854  314.3208 LP  0  0  0  0  0  0  0  0  0  0  0  0  # atno 13588 bound_to 5627
  108.7106  242.9882  315.9893 LP  0  0  0  0  0  0  0  0  0  0  0  0  # atno 13589 bound_to 5627
  112.2874  244.3254  315.0757 LP  0  0  0  0  0  0  0  0  0  0  0  0  # atno 13590 bound_to 5657
  110.9959  241.6071  314.0064 LP  0  0  0  0  0  0  0  0  0  0  0  0  # atno 13591 bound_to 5695
  110.3784  239.4085  316.0301 LP  0  0  0  0  0  0  0  0  0  0  0  0  # atno 13592 bound_to 5736
  107.8814  236.7408  318.8234 LP  0  0  0  0  0  0  0  0  0  0  0  0  # atno 13593 bound_to 5785
  117.3948  236.4976  318.7308 LP  0  0  0  0  0  0  0  0  0  0  0  0  # atno 13596 bound_to 8370
  117.1475  234.9200  319.4017 LP  0  0  0  0  0  0  0  0  0  0  0  0  # atno 13597 bound_to 8370
  112.8224  236.4794  328.8733 LP  0  0  0  0  0  0  0  0  0  0  0  0  # atno 13598 bound_to 9397
  110.5794  236.1662  330.5162 LP  0  0  0  0  0  0  0  0  0  0  0  0  # atno 13601 bound_to 9355
  109.8651  237.4207  329.5590 LP  0  0  0  0  0  0  0  0  0  0  0  0  # atno 13602 bound_to 9355
  109.3608  234.4561  326.6845 LP  0  0  0  0  0  0  0  0  0  0  0  0  # atno 13603 bound_to 9400
  109.1010  234.3800  328.3952 LP  0  0  0  0  0  0  0  0  0  0  0  0  # atno 13604 bound_to 9400
  113.9354  236.3743  331.1054 LP  0  0  0  0  0  0  0  0  0  0  0  0  # atno 13608 bound_to 9352

> <Gold.Score>
     Fitness  S(hb_ext) S(vdw_ext)  S(hb_int)    S(int)      intcor
     38.06       2.66      25.99       0.00      -0.34      -0.76

> <Gold.Goldscore.Fitness>
38.0554

> <Gold.Goldscore.Internal.Vdw>
-0.6878

> <Gold.Goldscore.Internal.Torsion>
-0.4185

> <Gold.Goldscore.External.Vdw>
25.9918

> <Gold.Goldscore.Internal.HBond>
0.0000

> <Gold.Goldscore.External.HBond>
2.6580

> <Gold.Goldscore.Internal.Correction>
-0.7650

> <Gold.Goldscore.Hbonds>
donor molecule, donor type, donor heavy atom, donor atom, acceptor molecule, acceptor atom, score
      P1  H  8504  8511       L1    11  1.00
      L1  H    10    23       P1  9051  0.11

> <Gold.Goldscore.Internal.Vdw.Weighted>
-0.6878

> <Gold.Goldscore.Internal.Torsion.Weighted>
-0.4185

> <Gold.Goldscore.External.Vdw.Weighted>
35.7387

> <Gold.Goldscore.Internal.HBond.Weighted>
0.0000

> <Gold.Goldscore.External.HBond.Weighted>
2.6580

> <Gold.Goldscore.Internal.Correction.Weighted>
-0.7650

> <Gold.Rescore>
     Score     S(PLP)   S(hbond)     S(cho)   S(metal)  DE(clash)   DE(tors)     intcor
     28.59     -27.31       1.01       0.00       0.00       0.00       0.87       ----

> <Gold.PLP.Fitness>
28.5908

> <Gold.PLP.PLP>
-27.3146

> <Gold.PLP.part.hbond>
-3.2713

> <Gold.PLP.part.metal>
0.0000

> <Gold.PLP.part.buried>
0.1108

> <Gold.PLP.part.nonpolar>
-28.8280

> <Gold.PLP.part.repulsive>
3.0924

> <Gold.PLP.ligand.clash>
0.0000

> <Gold.PLP.ligand.torsion>
0.8736

> <Gold.PLP.Chemscore.Hbond>
1.0078

> <Gold.PLP.Chemscore.CHOScore>
0.0000

> <Gold.PLP.Chemscore.Metal>
0.0000

> <Gold.Chemscore.Hbonds>
donor molecule, donor type, donor heavy atom, donor atom, acceptor molecule, acceptor atom, score
      L1  H    10    23       P1  8459  0.16
      P1  H  8504  8511       L1    11  0.39

> <Gold.PLP.Chemscore.Internal.Correction>
   9.000000E+99

