#       Name:                CT1002167954
#       Creating user name   hitesit
#       Creation time:       Sun Apr 16 22:52:01 2023


#       File generated by GOLD software.
#

@<TRIPOS>MOLECULE
CT1002167954|ligand_prepared|mol2|1|dock1
    29    30     1
SMALL
NO_CHARGES


@<TRIPOS>ATOM
      1 C1         112.6557 241.8909 323.9907 C.3            1 RES1               0.0000
      2 C2         112.8070 242.0539 325.5169 C.ar           1 RES1               0.0000
      3 C3         112.3790 243.2853 323.4362 C.2            1 RES1               0.0000
      4 C4         113.9586 241.2722 323.4965 C.2            1 RES1               0.0000
      5 C5         111.4953 240.9575 323.5739 C.3            1 RES1               0.0000
      6 C6         114.0479 242.3369 326.0798 C.ar           1 RES1               0.0000
      7 C7         111.7163 241.9270 326.3730 C.ar           1 RES1               0.0000
      8 N8         113.3876 243.9090 322.7627 N.am           1 RES1               0.0000
      9 O9         111.3055 243.8452 323.6213 O.2            1 RES1               0.0000
     10 N10        114.7545 242.0240 322.6724 N.am           1 RES1               0.0000
     11 O11        114.3113 240.1466 323.8267 O.2            1 RES1               0.0000
     12 C12        111.6093 240.4355 322.1503 C.3            1 RES1               0.0000
     13 C13        114.1927 242.4904 327.4486 C.ar           1 RES1               0.0000
     14 C14        111.8634 242.0807 327.7417 C.ar           1 RES1               0.0000
     15 C15        114.5429 243.3258 322.3079 C.2            1 RES1               0.0000
     16 C16        113.1007 242.3629 328.2804 C.ar           1 RES1               0.0000
     17 O17        115.3325 243.9528 321.6076 O.2            1 RES1               0.0000
     18 H18        111.4647 240.1035 324.2618 H              1 RES1               0.0000
     19 H19        110.5492 241.5035 323.6751 H              1 RES1               0.0000
     20 H20        114.9191 242.4384 325.4413 H              1 RES1               0.0000
     21 H21        110.7335 241.7042 325.9715 H              1 RES1               0.0000
     22 H22        113.2723 244.9009 322.5804 H              1 RES1               0.0000
     23 H23        115.5812 241.5713 322.2957 H              1 RES1               0.0000
     24 H24        110.7704 239.7860 321.9093 H              1 RES1               0.0000
     25 H25        111.6171 241.2575 321.4375 H              1 RES1               0.0000
     26 H26        112.5272 239.8658 322.0208 H              1 RES1               0.0000
     27 H27        115.1689 242.7111 327.8678 H              1 RES1               0.0000
     28 H28        111.0013 241.9789 328.3925 H              1 RES1               0.0000
     29 H29        113.2143 242.4836 329.3526 H              1 RES1               0.0000
@<TRIPOS>BOND
    1    1    2 1     
    2    1    3 1     
    3    1    4 1     
    4    1    5 1     
    5    2    6 ar    
    6    2    7 ar    
    7    3    8 1     
    8    3    9 2     
    9    4   10 1     
   10    4   11 2     
   11    5   12 1     
   12    5   18 1     
   13    5   19 1     
   14    6   13 ar    
   15    6   20 1     
   16    7   14 ar    
   17    7   21 1     
   18    8   15 1     
   19    8   22 1     
   20   10   15 1     
   21   10   23 1     
   22   12   24 1     
   23   12   25 1     
   24   12   26 1     
   25   13   16 ar    
   26   13   27 1     
   27   14   16 ar    
   28   14   28 1     
   29   15   17 2     
   30   16   29 1     
@<TRIPOS>SUBSTRUCTURE
      1 RES1           1
@<TRIPOS>SET
DONOR_HYDROGENS      STATIC     ATOMS    <user>   **** ""
2 22 23
ATOM$RED        STATIC     ATOMS    COLORGROUP SYSTEM
2 22 23
@<TRIPOS>COMMENT
> <Gold.Version>
2022.3.0

> <Gold.Id.Protein>
unknown|4uh5_clean|pdb

> <Gold.Protein.RotatedTorsions>
[ 8487 8482 8483 8484 ] final -140.99 input   34.95 | X-H torsion
[ 8511 8504 8505 8506 ] final  130.18 input  102.00 | X-H torsion
[ 9055 9051 9052 9053 ] final -126.14 input   39.76 | X-H torsion
[ 9089 9075 9076 9077 ] final  161.65 input   37.88 | X-H torsion
[ 9133 9121 9122 9123 ] final  135.12 input   94.46 | X-H torsion
[ 9141 9132 9131 9129 ] final -118.58 input   60.01 | X-H torsion
[ 9170 9159 9160 9161 ] final  121.73 input   86.63 | X-H torsion
[ 9251 9236 9237 9238 ] final -154.38 input  127.08 | X-H torsion
[ 3623 3616 3617 3618 ] final  -59.10 input   94.27 | X-H torsion
[ 3649 3645 3646 3647 ] final -123.33 input   86.49 | X-H torsion
[ 9037 9031 9032 9033 ] final -170.68 input   26.45 | X-H torsion
[ 9196 9189 9190 9191 ] final  132.09 input  130.40 | X-H torsion
[ 4943 4938 4937 4934 ] final  140.00 input   60.00 | X-H torsion
[ 9041 9036 9035 9032 ] final  169.52 input   59.99 | X-H torsion
[ 9007 8996 8997 8998 ] final   96.69 input   49.09 | X-H torsion
[ 8541 8535 8536 8537 ] final  169.45 input   50.11 | X-H torsion
[ 4959 4954 4955 4956 ] final   89.50 input   27.83 | X-H torsion
[ 8387 8378 8377 8375 ] final  -21.22 input   59.99 | X-H torsion
[ 5633 5624 5625 5626 ] final  173.91 input   44.71 | X-H torsion
[ 5606 5601 5600 5597 ] final   93.55 input   59.98 | X-H torsion
[ 5665 5657 5658 5659 ] final  -40.57 input  114.33 | X-H torsion
[ 5703 5695 5696 5697 ] final  114.49 input   57.04 | X-H torsion
[ 5747 5736 5737 5738 ] final -104.34 input   30.88 | X-H torsion
[ 5797 5785 5786 5787 ] final  -93.82 input   92.04 | X-H torsion
[ 9409 9397 9398 9399 ] final -167.64 input  123.68 | X-H torsion
[ 9376 9352 9353 9354 ] final  159.64 input  105.06 | X-H torsion
[ 11109 11102 11103 11104 ] final -121.72 input   57.11 | X-H torsion
[ 8379 8367 8368 8369 ] final  135.71 input   85.33 | X-H torsion
[ 5602 5596 5597 5598 ] final  155.54 input  106.64 | X-H torsion
[ 13518 8422 8421 8420 ] final -170.46 input    0.00 | X-H torsion
[ 13521 8459 8458 8457 ] final -121.25 input   -0.00 | X-H torsion
[ 13525 8999 8998 8997 ] final -146.51 input   -0.00 | X-H torsion
[ 13528 9054 9053 9052 ] final  -80.43 input   -0.00 | X-H torsion
[ 13531 9078 9077 9076 ] final  -35.42 input    0.00 | X-H torsion
[ 13534 9124 9123 9122 ] final  -18.57 input   -0.00 | X-H torsion
[ 13539 9162 9161 9160 ] final  148.75 input   -0.00 | X-H torsion
[ 13553 9034 9033 9032 ] final   28.57 input    0.00 | X-H torsion
[ 13555 8404 8403 8402 ] final  143.16 input    0.00 | X-H torsion
[ 13562 8485 8484 8483 ] final  -12.98 input    0.00 | X-H torsion
[ 13564 8507 8506 8505 ] final  -86.16 input   -0.00 | X-H torsion
[ 13571 4957 4956 4955 ] final  139.40 input   -0.00 | X-H torsion
[ 13573 5599 5598 5597 ] final  118.15 input   -0.00 | X-H torsion
[ 13582 5698 5697 5696 ] final -143.28 input   -0.00 | X-H torsion
[ 13584 9239 9238 9237 ] final -102.29 input    0.00 | X-H torsion
[ 13588 5627 5626 5625 ] final  121.20 input    0.00 | X-H torsion
[ 13596 8370 8369 8368 ] final  151.87 input   -0.00 | X-H torsion
[ 13601 9355 9354 9353 ] final   -7.78 input   -0.00 | X-H torsion
[ 13603 9400 9399 9398 ] final  132.52 input   -0.00 | X-H torsion

> <Gold.Protein.ActiveResidues>
 MET341  TRP414  CYS420  VAL421  GLY422  LEU429  LEU460  SER462  ALA463  ILE464 
 SER482  GLN483  LEU484  ILE485  ARG486  TYR487  ASP500  ALA502  ASN503  TRP566 
 TYR567  GLY568  LEU569  PRO570  ALA571  VAL572  SER573  ASN574  PRO588  PHE589 
 SER590  GLY591  TRP592  TYR593  MET594  GLY595  GLU597  ILE598  ARG601  ASP602 
 ASP605  ARG608  ILE653  VAL654  TRP683  PRO687  PHE696  HIS697  TYR711  HEM750 
 H4B760 

> <Gold.Protein.RotatedAtoms>
  122.8915  249.9574  327.1588 H   0  0  0  0  0  0  0  0  0  0  0  0  # atno 3623 bound_to 3616
  124.8657  247.9549  326.9794 H   0  0  0  0  0  0  0  0  0  0  0  0  # atno 3649 bound_to 3645
  126.6388  247.3807  317.0472 H   0  0  0  0  0  0  0  0  0  0  0  0  # atno 4943 bound_to 4938
  122.7651  246.8951  313.3393 H   0  0  0  0  0  0  0  0  0  0  0  0  # atno 4959 bound_to 4954
  105.6925  245.7782  317.1196 H   0  0  0  0  0  0  0  0  0  0  0  0  # atno 5602 bound_to 5596
  107.5776  244.4393  319.8888 H   0  0  0  0  0  0  0  0  0  0  0  0  # atno 5606 bound_to 5601
  109.0547  245.3907  318.2265 H   0  0  0  0  0  0  0  0  0  0  0  0  # atno 5633 bound_to 5624
  110.8476  243.4664  315.5322 H   0  0  0  0  0  0  0  0  0  0  0  0  # atno 5665 bound_to 5657
  112.6185  241.3987  314.3984 H   0  0  0  0  0  0  0  0  0  0  0  0  # atno 5703 bound_to 5695
  110.6606  238.5053  315.9599 H   0  0  0  0  0  0  0  0  0  0  0  0  # atno 5747 bound_to 5736
  108.1385  236.8408  317.1663 H   0  0  0  0  0  0  0  0  0  0  0  0  # atno 5797 bound_to 5785
  114.1909  233.8117  318.4047 H   0  0  0  0  0  0  0  0  0  0  0  0  # atno 8379 bound_to 8367
  111.1455  238.3979  320.1409 H   0  0  0  0  0  0  0  0  0  0  0  0  # atno 8387 bound_to 8378
  116.8264  243.3010  317.6428 H   0  0  0  0  0  0  0  0  0  0  0  0  # atno 8487 bound_to 8482
  115.6212  246.6364  317.9631 H   0  0  0  0  0  0  0  0  0  0  0  0  # atno 8511 bound_to 8504
  112.4893  247.5692  316.3941 H   0  0  0  0  0  0  0  0  0  0  0  0  # atno 8541 bound_to 8535
  115.6320  250.1267  315.0915 H   0  0  0  0  0  0  0  0  0  0  0  0  # atno 9007 bound_to 8996
  118.1438  247.9310  315.2404 H   0  0  0  0  0  0  0  0  0  0  0  0  # atno 9037 bound_to 9031
  119.7964  244.4580  313.1197 H   0  0  0  0  0  0  0  0  0  0  0  0  # atno 9041 bound_to 9036
  120.9317  245.7596  316.3007 H   0  0  0  0  0  0  0  0  0  0  0  0  # atno 9055 bound_to 9051
  123.4829  243.3180  318.1218 H   0  0  0  0  0  0  0  0  0  0  0  0  # atno 9089 bound_to 9075
  122.0263  239.6200  320.2895 H   0  0  0  0  0  0  0  0  0  0  0  0  # atno 9133 bound_to 9121
  114.8794  238.2266  321.2646 H   0  0  0  0  0  0  0  0  0  0  0  0  # atno 9141 bound_to 9132
  121.6830  241.2181  324.6097 H   0  0  0  0  0  0  0  0  0  0  0  0  # atno 9170 bound_to 9159
  123.3739  237.6658  327.0041 H   0  0  0  0  0  0  0  0  0  0  0  0  # atno 9196 bound_to 9189
  118.7033  239.3427  328.9872 H   0  0  0  0  0  0  0  0  0  0  0  0  # atno 9251 bound_to 9236
  114.7853  237.8331  331.1130 H   0  0  0  0  0  0  0  0  0  0  0  0  # atno 9376 bound_to 9352
  112.4621  237.9679  328.0879 H   0  0  0  0  0  0  0  0  0  0  0  0  # atno 9409 bound_to 9397
  126.6642  237.4150  323.5178 H   0  0  0  0  0  0  0  0  0  0  0  0  # atno 11109 bound_to 11102
  115.6739  240.6419  316.8586 LP  0  0  0  0  0  0  0  0  0  0  0  0  # atno 13518 bound_to 8422
  115.9557  239.3225  315.7724 LP  0  0  0  0  0  0  0  0  0  0  0  0  # atno 13519 bound_to 8422
  118.1921  244.7381  317.9448 LP  0  0  0  0  0  0  0  0  0  0  0  0  # atno 13521 bound_to 8459
  118.8936  243.4583  317.0120 LP  0  0  0  0  0  0  0  0  0  0  0  0  # atno 13522 bound_to 8459
  115.0971  243.0621  317.5905 LP  0  0  0  0  0  0  0  0  0  0  0  0  # atno 13523 bound_to 8482
  114.6741  246.0970  316.5968 LP  0  0  0  0  0  0  0  0  0  0  0  0  # atno 13524 bound_to 8504
  117.1900  247.0552  316.9714 LP  0  0  0  0  0  0  0  0  0  0  0  0  # atno 13525 bound_to 8999
  116.0266  247.6711  315.8457 LP  0  0  0  0  0  0  0  0  0  0  0  0  # atno 13526 bound_to 8999
  120.2488  244.8250  317.6142 LP  0  0  0  0  0  0  0  0  0  0  0  0  # atno 13527 bound_to 9051
  121.4176  242.3699  316.5751 LP  0  0  0  0  0  0  0  0  0  0  0  0  # atno 13528 bound_to 9054
  123.1180  242.2936  316.2543 LP  0  0  0  0  0  0  0  0  0  0  0  0  # atno 13529 bound_to 9054
  122.4474  243.6029  319.5020 LP  0  0  0  0  0  0  0  0  0  0  0  0  # atno 13530 bound_to 9075
  123.1881  243.0992  321.3770 LP  0  0  0  0  0  0  0  0  0  0  0  0  # atno 13531 bound_to 9078
  121.8106  242.4042  322.1641 LP  0  0  0  0  0  0  0  0  0  0  0  0  # atno 13532 bound_to 9078
  123.0040  240.8491  321.0595 LP  0  0  0  0  0  0  0  0  0  0  0  0  # atno 13533 bound_to 9121
  123.8775  238.7290  322.7187 LP  0  0  0  0  0  0  0  0  0  0  0  0  # atno 13534 bound_to 9124
  124.3299  239.4954  324.2047 LP  0  0  0  0  0  0  0  0  0  0  0  0  # atno 13535 bound_to 9124
  115.1546  239.5765  320.3994 LP  0  0  0  0  0  0  0  0  0  0  0  0  # atno 13536 bound_to 9132
  114.8656  239.6759  322.0035 LP  0  0  0  0  0  0  0  0  0  0  0  0  # atno 13537 bound_to 9132
  121.9799  239.6183  323.9708 LP  0  0  0  0  0  0  0  0  0  0  0  0  # atno 13538 bound_to 9159
  119.9464  237.9079  326.2618 LP  0  0  0  0  0  0  0  0  0  0  0  0  # atno 13539 bound_to 9162
  120.0136  239.6163  326.5392 LP  0  0  0  0  0  0  0  0  0  0  0  0  # atno 13540 bound_to 9162
  118.5392  237.7803  328.2199 LP  0  0  0  0  0  0  0  0  0  0  0  0  # atno 13541 bound_to 9236
  122.0138  248.6318  327.8893 LP  0  0  0  0  0  0  0  0  0  0  0  0  # atno 13550 bound_to 3616
  124.0535  249.0143  325.8551 LP  0  0  0  0  0  0  0  0  0  0  0  0  # atno 13551 bound_to 3645
  119.8599  248.2413  315.2437 LP  0  0  0  0  0  0  0  0  0  0  0  0  # atno 13552 bound_to 9031
  121.3953  247.7764  315.4008 LP  0  0  0  0  0  0  0  0  0  0  0  0  # atno 13553 bound_to 9034
  122.5808  246.5314  315.6124 LP  0  0  0  0  0  0  0  0  0  0  0  0  # atno 13554 bound_to 9034
  120.6912  238.6493  316.9477 LP  0  0  0  0  0  0  0  0  0  0  0  0  # atno 13555 bound_to 8404
  120.5610  237.5267  318.2603 LP  0  0  0  0  0  0  0  0  0  0  0  0  # atno 13556 bound_to 8404
  121.8386  238.4094  326.6106 LP  0  0  0  0  0  0  0  0  0  0  0  0  # atno 13557 bound_to 9189
  125.9433  246.0443  316.4328 LP  0  0  0  0  0  0  0  0  0  0  0  0  # atno 13558 bound_to 4938
  125.0915  247.0348  317.4126 LP  0  0  0  0  0  0  0  0  0  0  0  0  # atno 13559 bound_to 4938
  120.8829  245.1662  314.1025 LP  0  0  0  0  0  0  0  0  0  0  0  0  # atno 13560 bound_to 9036
  119.8929  246.0812  313.1809 LP  0  0  0  0  0  0  0  0  0  0  0  0  # atno 13561 bound_to 9036
  113.3674  244.5006  315.6011 LP  0  0  0  0  0  0  0  0  0  0  0  0  # atno 13562 bound_to 8485
  112.6171  245.6408  316.6674 LP  0  0  0  0  0  0  0  0  0  0  0  0  # atno 13563 bound_to 8485
  114.1619  249.9441  316.3127 LP  0  0  0  0  0  0  0  0  0  0  0  0  # atno 13564 bound_to 8507
  114.2635  248.6485  315.1677 LP  0  0  0  0  0  0  0  0  0  0  0  0  # atno 13565 bound_to 8507
  115.8743  249.1784  313.6437 LP  0  0  0  0  0  0  0  0  0  0  0  0  # atno 13566 bound_to 8996
  111.5590  248.6019  317.4487 LP  0  0  0  0  0  0  0  0  0  0  0  0  # atno 13567 bound_to 8535
  123.7203  248.2807  313.8046 LP  0  0  0  0  0  0  0  0  0  0  0  0  # atno 13570 bound_to 4954
  120.1378  249.6653  313.8554 LP  0  0  0  0  0  0  0  0  0  0  0  0  # atno 13571 bound_to 4957
  120.3784  248.0082  313.4125 LP  0  0  0  0  0  0  0  0  0  0  0  0  # atno 13572 bound_to 4957
  110.5289  246.7470  318.7771 LP  0  0  0  0  0  0  0  0  0  0  0  0  # atno 13573 bound_to 5599
  109.9549  247.8312  317.5544 LP  0  0  0  0  0  0  0  0  0  0  0  0  # atno 13574 bound_to 5599
  112.1714  239.6072  319.7761 LP  0  0  0  0  0  0  0  0  0  0  0  0  # atno 13575 bound_to 8378
  112.5237  238.5715  320.9885 LP  0  0  0  0  0  0  0  0  0  0  0  0  # atno 13576 bound_to 8378
  108.4290  244.8629  316.6798 LP  0  0  0  0  0  0  0  0  0  0  0  0  # atno 13581 bound_to 5624
  111.4045  239.0599  317.8559 LP  0  0  0  0  0  0  0  0  0  0  0  0  # atno 13582 bound_to 5698
  111.9280  240.5172  317.0799 LP  0  0  0  0  0  0  0  0  0  0  0  0  # atno 13583 bound_to 5698
  114.4538  237.7028  328.1698 LP  0  0  0  0  0  0  0  0  0  0  0  0  # atno 13584 bound_to 9239
  114.3698  238.6441  326.7183 LP  0  0  0  0  0  0  0  0  0  0  0  0  # atno 13585 bound_to 9239
  106.5571  244.4777  318.6220 LP  0  0  0  0  0  0  0  0  0  0  0  0  # atno 13586 bound_to 5601
  105.9968  244.7371  320.1338 LP  0  0  0  0  0  0  0  0  0  0  0  0  # atno 13587 bound_to 5601
  108.8991  243.5330  314.4463 LP  0  0  0  0  0  0  0  0  0  0  0  0  # atno 13588 bound_to 5627
  108.9765  242.5406  315.8638 LP  0  0  0  0  0  0  0  0  0  0  0  0  # atno 13589 bound_to 5627
  112.1955  244.4547  315.0285 LP  0  0  0  0  0  0  0  0  0  0  0  0  # atno 13590 bound_to 5657
  110.8934  241.6723  314.4586 LP  0  0  0  0  0  0  0  0  0  0  0  0  # atno 13591 bound_to 5695
  109.1930  239.1457  315.2481 LP  0  0  0  0  0  0  0  0  0  0  0  0  # atno 13592 bound_to 5736
  108.2410  236.4451  318.8621 LP  0  0  0  0  0  0  0  0  0  0  0  0  # atno 13593 bound_to 5785
  118.1287  235.6068  319.0012 LP  0  0  0  0  0  0  0  0  0  0  0  0  # atno 13596 bound_to 8370
  116.4136  235.8108  319.1313 LP  0  0  0  0  0  0  0  0  0  0  0  0  # atno 13597 bound_to 8370
  112.5967  236.5176  329.0501 LP  0  0  0  0  0  0  0  0  0  0  0  0  # atno 13598 bound_to 9397
  110.4267  237.0505  330.8389 LP  0  0  0  0  0  0  0  0  0  0  0  0  # atno 13601 bound_to 9355
  110.0178  236.5363  329.2363 LP  0  0  0  0  0  0  0  0  0  0  0  0  # atno 13602 bound_to 9355
  109.5129  233.6446  327.2710 LP  0  0  0  0  0  0  0  0  0  0  0  0  # atno 13603 bound_to 9400
  108.9489  235.1915  327.8087 LP  0  0  0  0  0  0  0  0  0  0  0  0  # atno 13604 bound_to 9400
  114.0263  236.3220  330.6719 LP  0  0  0  0  0  0  0  0  0  0  0  0  # atno 13608 bound_to 9352

> <Gold.Score>
     Fitness  S(hb_ext) S(vdw_ext)  S(hb_int)    S(int)      intcor
     32.32       0.00      24.17       0.00      -0.92      -0.78

> <Gold.Goldscore.Fitness>
32.3191

> <Gold.Goldscore.Internal.Vdw>
-0.8066

> <Gold.Goldscore.Internal.Torsion>
-0.8875

> <Gold.Goldscore.External.Vdw>
24.1719

> <Gold.Goldscore.Internal.HBond>
0.0000

> <Gold.Goldscore.External.HBond>
0.0000

> <Gold.Goldscore.Internal.Correction>
-0.7769

> <Gold.Goldscore.Internal.Vdw.Weighted>
-0.8066

> <Gold.Goldscore.Internal.Torsion.Weighted>
-0.8875

> <Gold.Goldscore.External.Vdw.Weighted>
33.2363

> <Gold.Goldscore.Internal.HBond.Weighted>
0.0000

> <Gold.Goldscore.External.HBond.Weighted>
0.0000

> <Gold.Goldscore.Internal.Correction.Weighted>
-0.7769

> <Gold.Rescore>
     Score     S(PLP)   S(hbond)     S(cho)   S(metal)  DE(clash)   DE(tors)     intcor
     13.88     -16.62       0.00       0.00       0.00       0.00       1.37       ----

> <Gold.PLP.Fitness>
13.8788

> <Gold.PLP.PLP>
-16.6189

> <Gold.PLP.part.hbond>
-1.7845

> <Gold.PLP.part.metal>
0.0000

> <Gold.PLP.part.buried>
3.0118

> <Gold.PLP.part.nonpolar>
-20.4463

> <Gold.PLP.part.repulsive>
1.8780

> <Gold.PLP.ligand.clash>
0.0000

> <Gold.PLP.ligand.torsion>
1.3700

> <Gold.PLP.Chemscore.Hbond>
0.0000

> <Gold.PLP.Chemscore.CHOScore>
0.0000

> <Gold.PLP.Chemscore.Metal>
0.0000

> <Gold.PLP.Chemscore.Internal.Correction>
   9.000000E+99

