#       Name:                CT1002167954
#       Creating user name   hitesit
#       Creation time:       Sun Apr 16 22:52:08 2023


#       File generated by GOLD software.
#

@<TRIPOS>MOLECULE
CT1002167954|ligand_prepared|mol2|1|dock8
    29    30     1
SMALL
NO_CHARGES


@<TRIPOS>ATOM
      1 C1         114.6318 243.8171 322.2390 C.3            1 RES1               0.0000
      2 C2         116.0025 244.4925 322.4480 C.ar           1 RES1               0.0000
      3 C3         114.0967 244.3367 320.9078 C.2            1 RES1               0.0000
      4 C4         114.8886 242.3144 322.2624 C.2            1 RES1               0.0000
      5 C5         113.5999 244.1427 323.3439 C.3            1 RES1               0.0000
      6 C6         117.1784 243.7546 322.3503 C.ar           1 RES1               0.0000
      7 C7         116.1072 245.8508 322.7359 C.ar           1 RES1               0.0000
      8 N8         114.1146 243.4840 319.8436 N.am           1 RES1               0.0000
      9 O9         113.7018 245.4895 320.7840 O.2            1 RES1               0.0000
     10 N10        114.6723 241.6080 321.1083 N.am           1 RES1               0.0000
     11 O11        115.2923 241.7384 323.2652 O.2            1 RES1               0.0000
     12 C12        112.3105 243.3444 323.2330 C.3            1 RES1               0.0000
     13 C13        118.4142 244.3532 322.5310 C.ar           1 RES1               0.0000
     14 C14        117.3441 246.4474 322.9164 C.ar           1 RES1               0.0000
     15 C15        114.3264 242.1296 319.8915 C.2            1 RES1               0.0000
     16 C16        118.4979 245.6999 322.8137 C.ar           1 RES1               0.0000
     17 O17        114.2034 241.4361 318.8860 O.2            1 RES1               0.0000
     18 H18        114.0552 243.9440 324.3219 H              1 RES1               0.0000
     19 H19        113.3583 245.2118 323.2975 H              1 RES1               0.0000
     20 H20        117.1321 242.6931 322.1309 H              1 RES1               0.0000
     21 H21        115.2127 246.4582 322.8225 H              1 RES1               0.0000
     22 H22        113.9559 243.8911 318.9274 H              1 RES1               0.0000
     23 H23        114.7789 240.6000 321.1612 H              1 RES1               0.0000
     24 H24        111.6217 243.6113 324.0318 H              1 RES1               0.0000
     25 H25        111.8179 243.5374 322.2823 H              1 RES1               0.0000
     26 H26        112.5106 242.2771 323.3006 H              1 RES1               0.0000
     27 H27        119.3193 243.7603 322.4504 H              1 RES1               0.0000
     28 H28        117.4052 247.5075 323.1394 H              1 RES1               0.0000
     29 H29        119.4662 246.1687 322.9547 H              1 RES1               0.0000
@<TRIPOS>BOND
    1    1    2 1     
    2    1    3 1     
    3    1    4 1     
    4    1    5 1     
    5    2    6 ar    
    6    2    7 ar    
    7    3    8 1     
    8    3    9 2     
    9    4   10 1     
   10    4   11 2     
   11    5   12 1     
   12    5   18 1     
   13    5   19 1     
   14    6   13 ar    
   15    6   20 1     
   16    7   14 ar    
   17    7   21 1     
   18    8   15 1     
   19    8   22 1     
   20   10   15 1     
   21   10   23 1     
   22   12   24 1     
   23   12   25 1     
   24   12   26 1     
   25   13   16 ar    
   26   13   27 1     
   27   14   16 ar    
   28   14   28 1     
   29   15   17 2     
   30   16   29 1     
@<TRIPOS>SUBSTRUCTURE
      1 RES1           1
@<TRIPOS>SET
DONOR_HYDROGENS      STATIC     ATOMS    <user>   **** ""
2 22 23
ATOM$RED        STATIC     ATOMS    COLORGROUP SYSTEM
2 22 23
@<TRIPOS>COMMENT
> <Gold.Version>
2022.3.0

> <Gold.Id.Protein>
unknown|4uh5_clean|pdb

> <Gold.Protein.RotatedTorsions>
[ 8487 8482 8483 8484 ] final -146.35 input   34.95 | X-H torsion
[ 8511 8504 8505 8506 ] final  111.75 input  102.00 | X-H torsion
[ 9055 9051 9052 9053 ] final -102.64 input   39.76 | X-H torsion
[ 9089 9075 9076 9077 ] final   67.94 input   37.88 | X-H torsion
[ 9133 9121 9122 9123 ] final  144.04 input   94.46 | X-H torsion
[ 9141 9132 9131 9129 ] final  -80.94 input   60.01 | X-H torsion
[ 9170 9159 9160 9161 ] final -106.54 input   86.63 | X-H torsion
[ 9251 9236 9237 9238 ] final -122.51 input  127.08 | X-H torsion
[ 3623 3616 3617 3618 ] final   -0.44 input   94.27 | X-H torsion
[ 3649 3645 3646 3647 ] final  -43.42 input   86.49 | X-H torsion
[ 9037 9031 9032 9033 ] final  125.79 input   26.45 | X-H torsion
[ 9196 9189 9190 9191 ] final  -20.48 input  130.40 | X-H torsion
[ 4943 4938 4937 4934 ] final  -35.39 input   60.00 | X-H torsion
[ 9041 9036 9035 9032 ] final -150.18 input   59.99 | X-H torsion
[ 9007 8996 8997 8998 ] final  -84.07 input   49.09 | X-H torsion
[ 8541 8535 8536 8537 ] final -100.31 input   50.11 | X-H torsion
[ 4959 4954 4955 4956 ] final  -82.47 input   27.83 | X-H torsion
[ 8387 8378 8377 8375 ] final  160.52 input   59.99 | X-H torsion
[ 5633 5624 5625 5626 ] final  114.42 input   44.71 | X-H torsion
[ 5606 5601 5600 5597 ] final -109.62 input   59.98 | X-H torsion
[ 5665 5657 5658 5659 ] final -160.73 input  114.33 | X-H torsion
[ 5703 5695 5696 5697 ] final   89.18 input   57.04 | X-H torsion
[ 5747 5736 5737 5738 ] final  -12.37 input   30.88 | X-H torsion
[ 5797 5785 5786 5787 ] final -146.04 input   92.04 | X-H torsion
[ 9409 9397 9398 9399 ] final  145.38 input  123.68 | X-H torsion
[ 9376 9352 9353 9354 ] final  153.35 input  105.06 | X-H torsion
[ 11109 11102 11103 11104 ] final -158.85 input   57.11 | X-H torsion
[ 8379 8367 8368 8369 ] final   22.51 input   85.33 | X-H torsion
[ 5602 5596 5597 5598 ] final  -29.14 input  106.64 | X-H torsion
[ 13518 8422 8421 8420 ] final  154.85 input    0.00 | X-H torsion
[ 13521 8459 8458 8457 ] final   73.07 input   -0.00 | X-H torsion
[ 13525 8999 8998 8997 ] final  -86.75 input   -0.00 | X-H torsion
[ 13528 9054 9053 9052 ] final  -74.20 input   -0.00 | X-H torsion
[ 13531 9078 9077 9076 ] final   60.60 input    0.00 | X-H torsion
[ 13534 9124 9123 9122 ] final   94.33 input   -0.00 | X-H torsion
[ 13539 9162 9161 9160 ] final  170.49 input   -0.00 | X-H torsion
[ 13553 9034 9033 9032 ] final   70.31 input    0.00 | X-H torsion
[ 13555 8404 8403 8402 ] final  172.67 input    0.00 | X-H torsion
[ 13562 8485 8484 8483 ] final   77.40 input    0.00 | X-H torsion
[ 13564 8507 8506 8505 ] final  -73.08 input   -0.00 | X-H torsion
[ 13571 4957 4956 4955 ] final  -61.35 input   -0.00 | X-H torsion
[ 13573 5599 5598 5597 ] final -127.40 input   -0.00 | X-H torsion
[ 13582 5698 5697 5696 ] final  110.47 input   -0.00 | X-H torsion
[ 13584 9239 9238 9237 ] final   47.97 input    0.00 | X-H torsion
[ 13588 5627 5626 5625 ] final  100.88 input    0.00 | X-H torsion
[ 13596 8370 8369 8368 ] final   40.70 input   -0.00 | X-H torsion
[ 13601 9355 9354 9353 ] final  117.90 input   -0.00 | X-H torsion
[ 13603 9400 9399 9398 ] final  140.62 input   -0.00 | X-H torsion

> <Gold.Protein.ActiveResidues>
 MET341  TRP414  CYS420  VAL421  GLY422  LEU429  LEU460  SER462  ALA463  ILE464 
 SER482  GLN483  LEU484  ILE485  ARG486  TYR487  ASP500  ALA502  ASN503  TRP566 
 TYR567  GLY568  LEU569  PRO570  ALA571  VAL572  SER573  ASN574  PRO588  PHE589 
 SER590  GLY591  TRP592  TYR593  MET594  GLY595  GLU597  ILE598  ARG601  ASP602 
 ASP605  ARG608  ILE653  VAL654  TRP683  PRO687  PHE696  HIS697  TYR711  HEM750 
 H4B760 

> <Gold.Protein.RotatedAtoms>
  122.8255  249.2027  326.7308 H   0  0  0  0  0  0  0  0  0  0  0  0  # atno 3623 bound_to 3616
  125.0665  249.0383  326.7286 H   0  0  0  0  0  0  0  0  0  0  0  0  # atno 3649 bound_to 3645
  125.1882  246.2196  316.8348 H   0  0  0  0  0  0  0  0  0  0  0  0  # atno 4943 bound_to 4938
  123.6311  248.3276  313.8757 H   0  0  0  0  0  0  0  0  0  0  0  0  # atno 4959 bound_to 4954
  107.0890  245.6922  316.0368 H   0  0  0  0  0  0  0  0  0  0  0  0  # atno 5602 bound_to 5596
  105.7914  244.7149  319.5772 H   0  0  0  0  0  0  0  0  0  0  0  0  # atno 5606 bound_to 5601
  108.7514  244.5679  318.1351 H   0  0  0  0  0  0  0  0  0  0  0  0  # atno 5633 bound_to 5624
  111.3878  244.7721  314.9567 H   0  0  0  0  0  0  0  0  0  0  0  0  # atno 5665 bound_to 5657
  112.5539  241.4501  314.7769 H   0  0  0  0  0  0  0  0  0  0  0  0  # atno 5703 bound_to 5695
  109.6987  238.0375  315.2480 H   0  0  0  0  0  0  0  0  0  0  0  0  # atno 5747 bound_to 5736
  108.7022  236.3526  317.3680 H   0  0  0  0  0  0  0  0  0  0  0  0  # atno 5797 bound_to 5785
  115.4140  234.0958  319.1733 H   0  0  0  0  0  0  0  0  0  0  0  0  # atno 8379 bound_to 8367
  112.7393  239.3338  320.4389 H   0  0  0  0  0  0  0  0  0  0  0  0  # atno 8387 bound_to 8378
  116.8314  243.2505  317.5778 H   0  0  0  0  0  0  0  0  0  0  0  0  # atno 8487 bound_to 8482
  115.6962  246.8345  317.7748 H   0  0  0  0  0  0  0  0  0  0  0  0  # atno 8511 bound_to 8504
  112.6827  248.6654  316.9497 H   0  0  0  0  0  0  0  0  0  0  0  0  # atno 8541 bound_to 8535
  115.8848  249.1766  313.6221 H   0  0  0  0  0  0  0  0  0  0  0  0  # atno 9007 bound_to 8996
  118.6674  247.7756  314.4956 H   0  0  0  0  0  0  0  0  0  0  0  0  # atno 9037 bound_to 9031
  119.5225  244.9812  312.8606 H   0  0  0  0  0  0  0  0  0  0  0  0  # atno 9041 bound_to 9036
  120.9134  245.4285  316.1541 H   0  0  0  0  0  0  0  0  0  0  0  0  # atno 9055 bound_to 9051
  123.6366  243.6046  319.3733 H   0  0  0  0  0  0  0  0  0  0  0  0  # atno 9089 bound_to 9075
  121.9381  239.7225  320.2623 H   0  0  0  0  0  0  0  0  0  0  0  0  # atno 9133 bound_to 9121
  114.7967  238.4551  321.8173 H   0  0  0  0  0  0  0  0  0  0  0  0  # atno 9141 bound_to 9132
  122.5390  240.0558  323.8846 H   0  0  0  0  0  0  0  0  0  0  0  0  # atno 9170 bound_to 9159
  121.8506  238.4853  327.0202 H   0  0  0  0  0  0  0  0  0  0  0  0  # atno 9196 bound_to 9189
  118.4157  239.0803  329.2788 H   0  0  0  0  0  0  0  0  0  0  0  0  # atno 9251 bound_to 9236
  114.8147  237.8391  331.0207 H   0  0  0  0  0  0  0  0  0  0  0  0  # atno 9376 bound_to 9352
  113.0020  237.5592  327.9038 H   0  0  0  0  0  0  0  0  0  0  0  0  # atno 9409 bound_to 9397
  126.7130  237.9229  323.2831 H   0  0  0  0  0  0  0  0  0  0  0  0  # atno 11109 bound_to 11102
  115.6535  240.2070  317.1361 LP  0  0  0  0  0  0  0  0  0  0  0  0  # atno 13518 bound_to 8422
  115.9761  239.7574  315.4948 LP  0  0  0  0  0  0  0  0  0  0  0  0  # atno 13519 bound_to 8422
  118.8004  243.5632  316.8480 LP  0  0  0  0  0  0  0  0  0  0  0  0  # atno 13521 bound_to 8459
  118.2853  244.6333  318.1088 LP  0  0  0  0  0  0  0  0  0  0  0  0  # atno 13522 bound_to 8459
  115.0922  243.1116  317.6543 LP  0  0  0  0  0  0  0  0  0  0  0  0  # atno 13523 bound_to 8482
  114.6010  245.9037  316.7804 LP  0  0  0  0  0  0  0  0  0  0  0  0  # atno 13524 bound_to 8504
  116.8225  247.8236  317.1101 LP  0  0  0  0  0  0  0  0  0  0  0  0  # atno 13525 bound_to 8999
  116.3942  246.9027  315.7071 LP  0  0  0  0  0  0  0  0  0  0  0  0  # atno 13526 bound_to 8999
  120.2665  245.1450  317.7560 LP  0  0  0  0  0  0  0  0  0  0  0  0  # atno 13527 bound_to 9051
  121.4150  242.4434  316.5164 LP  0  0  0  0  0  0  0  0  0  0  0  0  # atno 13528 bound_to 9054
  123.1205  242.2201  316.3130 LP  0  0  0  0  0  0  0  0  0  0  0  0  # atno 13529 bound_to 9054
  122.2978  243.3239  318.2838 LP  0  0  0  0  0  0  0  0  0  0  0  0  # atno 13530 bound_to 9075
  121.9070  243.1124  321.2519 LP  0  0  0  0  0  0  0  0  0  0  0  0  # atno 13531 bound_to 9078
  123.0917  242.3910  322.2891 LP  0  0  0  0  0  0  0  0  0  0  0  0  # atno 13532 bound_to 9078
  123.0896  240.7495  321.0860 LP  0  0  0  0  0  0  0  0  0  0  0  0  # atno 13533 bound_to 9121
  124.4362  239.9033  323.3454 LP  0  0  0  0  0  0  0  0  0  0  0  0  # atno 13534 bound_to 9124
  123.7712  238.3210  323.5780 LP  0  0  0  0  0  0  0  0  0  0  0  0  # atno 13535 bound_to 9124
  115.1188  238.9759  320.3101 LP  0  0  0  0  0  0  0  0  0  0  0  0  # atno 13536 bound_to 9132
  114.9847  240.0464  321.5359 LP  0  0  0  0  0  0  0  0  0  0  0  0  # atno 13537 bound_to 9132
  121.1453  240.7516  324.6777 LP  0  0  0  0  0  0  0  0  0  0  0  0  # atno 13538 bound_to 9159
  119.9328  237.9179  326.5879 LP  0  0  0  0  0  0  0  0  0  0  0  0  # atno 13539 bound_to 9162
  120.0272  239.6063  326.2130 LP  0  0  0  0  0  0  0  0  0  0  0  0  # atno 13540 bound_to 9162
  118.8192  238.0356  327.9361 LP  0  0  0  0  0  0  0  0  0  0  0  0  # atno 13541 bound_to 9236
  122.0778  249.3638  328.3044 LP  0  0  0  0  0  0  0  0  0  0  0  0  # atno 13550 bound_to 3616
  123.8560  247.9486  326.1018 LP  0  0  0  0  0  0  0  0  0  0  0  0  # atno 13551 bound_to 3645
  119.3425  248.3949  315.9796 LP  0  0  0  0  0  0  0  0  0  0  0  0  # atno 13552 bound_to 9031
  121.6780  247.8324  315.9465 LP  0  0  0  0  0  0  0  0  0  0  0  0  # atno 13553 bound_to 9034
  122.2981  246.4754  315.0667 LP  0  0  0  0  0  0  0  0  0  0  0  0  # atno 13554 bound_to 9034
  120.3876  238.8245  317.2157 LP  0  0  0  0  0  0  0  0  0  0  0  0  # atno 13555 bound_to 8404
  120.8646  237.3516  317.9923 LP  0  0  0  0  0  0  0  0  0  0  0  0  # atno 13556 bound_to 8404
  123.3104  237.6176  326.5951 LP  0  0  0  0  0  0  0  0  0  0  0  0  # atno 13557 bound_to 9189
  125.7714  247.5791  317.5121 LP  0  0  0  0  0  0  0  0  0  0  0  0  # atno 13558 bound_to 4938
  126.7250  246.6700  316.5473 LP  0  0  0  0  0  0  0  0  0  0  0  0  # atno 13559 bound_to 4938
  120.6819  244.5739  313.9273 LP  0  0  0  0  0  0  0  0  0  0  0  0  # atno 13560 bound_to 9036
  120.3698  246.1465  313.6171 LP  0  0  0  0  0  0  0  0  0  0  0  0  # atno 13561 bound_to 9036
  112.9404  244.4668  316.7528 LP  0  0  0  0  0  0  0  0  0  0  0  0  # atno 13562 bound_to 8485
  113.0441  245.6746  315.5157 LP  0  0  0  0  0  0  0  0  0  0  0  0  # atno 13563 bound_to 8485
  114.3166  249.8536  316.3949 LP  0  0  0  0  0  0  0  0  0  0  0  0  # atno 13564 bound_to 8507
  114.1087  248.7391  315.0855 LP  0  0  0  0  0  0  0  0  0  0  0  0  # atno 13565 bound_to 8507
  115.6273  250.1065  315.0792 LP  0  0  0  0  0  0  0  0  0  0  0  0  # atno 13566 bound_to 8996
  111.3681  247.5195  316.9001 LP  0  0  0  0  0  0  0  0  0  0  0  0  # atno 13567 bound_to 8535
  122.8700  246.8743  313.2779 LP  0  0  0  0  0  0  0  0  0  0  0  0  # atno 13570 bound_to 4954
  120.1298  248.0776  313.2374 LP  0  0  0  0  0  0  0  0  0  0  0  0  # atno 13571 bound_to 4957
  120.3864  249.5959  314.0305 LP  0  0  0  0  0  0  0  0  0  0  0  0  # atno 13572 bound_to 4957
  110.5868  247.1601  317.3819 LP  0  0  0  0  0  0  0  0  0  0  0  0  # atno 13573 bound_to 5599
  109.8971  247.4181  318.9496 LP  0  0  0  0  0  0  0  0  0  0  0  0  # atno 13574 bound_to 5599
  111.7423  238.1127  320.8424 LP  0  0  0  0  0  0  0  0  0  0  0  0  # atno 13575 bound_to 8378
  111.3477  239.1235  319.6221 LP  0  0  0  0  0  0  0  0  0  0  0  0  # atno 13576 bound_to 8378
  108.7231  245.6607  316.7685 LP  0  0  0  0  0  0  0  0  0  0  0  0  # atno 13581 bound_to 5624
  111.0502  240.3783  317.6188 LP  0  0  0  0  0  0  0  0  0  0  0  0  # atno 13582 bound_to 5698
  112.2823  239.1988  317.3170 LP  0  0  0  0  0  0  0  0  0  0  0  0  # atno 13583 bound_to 5698
  114.4240  238.9415  327.0442 LP  0  0  0  0  0  0  0  0  0  0  0  0  # atno 13584 bound_to 9239
  114.3996  237.4054  327.8439 LP  0  0  0  0  0  0  0  0  0  0  0  0  # atno 13585 bound_to 9239
  107.2157  244.5490  320.3464 LP  0  0  0  0  0  0  0  0  0  0  0  0  # atno 13586 bound_to 5601
  107.1374  244.3882  318.7232 LP  0  0  0  0  0  0  0  0  0  0  0  0  # atno 13587 bound_to 5601
  108.7488  243.7104  314.6445 LP  0  0  0  0  0  0  0  0  0  0  0  0  # atno 13588 bound_to 5627
  109.1267  242.3633  315.6655 LP  0  0  0  0  0  0  0  0  0  0  0  0  # atno 13589 bound_to 5627
  111.6643  243.1709  315.5944 LP  0  0  0  0  0  0  0  0  0  0  0  0  # atno 13590 bound_to 5657
  110.9565  241.6221  314.0889 LP  0  0  0  0  0  0  0  0  0  0  0  0  # atno 13591 bound_to 5695
  110.1175  239.5953  315.9324 LP  0  0  0  0  0  0  0  0  0  0  0  0  # atno 13592 bound_to 5736
  107.6842  236.9274  318.6628 LP  0  0  0  0  0  0  0  0  0  0  0  0  # atno 13593 bound_to 5785
  116.8966  235.0025  319.3994 LP  0  0  0  0  0  0  0  0  0  0  0  0  # atno 13596 bound_to 8370
  117.6457  236.4150  318.7332 LP  0  0  0  0  0  0  0  0  0  0  0  0  # atno 13597 bound_to 8370
  112.0660  236.9193  329.2311 LP  0  0  0  0  0  0  0  0  0  0  0  0  # atno 13598 bound_to 9397
  109.8586  237.2871  329.4261 LP  0  0  0  0  0  0  0  0  0  0  0  0  # atno 13601 bound_to 9355
  110.5860  236.2997  330.6491 LP  0  0  0  0  0  0  0  0  0  0  0  0  # atno 13602 bound_to 9355
  109.5040  233.6104  327.3880 LP  0  0  0  0  0  0  0  0  0  0  0  0  # atno 13603 bound_to 9400
  108.9578  235.2257  327.6917 LP  0  0  0  0  0  0  0  0  0  0  0  0  # atno 13604 bound_to 9400
  113.9975  236.3162  330.7621 LP  0  0  0  0  0  0  0  0  0  0  0  0  # atno 13608 bound_to 9352

> <Gold.Score>
     Fitness  S(hb_ext) S(vdw_ext)  S(hb_int)    S(int)      intcor
     32.15       2.69      23.06       0.00      -2.26      -0.76

> <Gold.Goldscore.Fitness>
32.1485

> <Gold.Goldscore.Internal.Vdw>
-2.5732

> <Gold.Goldscore.Internal.Torsion>
-0.4473

> <Gold.Goldscore.External.Vdw>
23.0631

> <Gold.Goldscore.Internal.HBond>
0.0000

> <Gold.Goldscore.External.HBond>
2.6922

> <Gold.Goldscore.Internal.Correction>
-0.7650

> <Gold.Goldscore.Hbonds>
donor molecule, donor type, donor heavy atom, donor atom, acceptor molecule, acceptor atom, score
      L1  H     8    22       P1  8485  0.36
      L1  H    10    23       P1  9132  0.99

> <Gold.Goldscore.Internal.Vdw.Weighted>
-2.5732

> <Gold.Goldscore.Internal.Torsion.Weighted>
-0.4473

> <Gold.Goldscore.External.Vdw.Weighted>
31.7118

> <Gold.Goldscore.Internal.HBond.Weighted>
0.0000

> <Gold.Goldscore.External.HBond.Weighted>
2.6922

> <Gold.Goldscore.Internal.Correction.Weighted>
-0.7650

> <Gold.Rescore>
     Score     S(PLP)   S(hbond)     S(cho)   S(metal)  DE(clash)   DE(tors)     intcor
     26.72     -26.09       1.00       0.00       0.00       1.50       0.44       ----

> <Gold.PLP.Fitness>
26.7180

> <Gold.PLP.PLP>
-26.0916

> <Gold.PLP.part.hbond>
-2.3620

> <Gold.PLP.part.metal>
0.0000

> <Gold.PLP.part.buried>
12.4707

> <Gold.PLP.part.nonpolar>
-40.6908

> <Gold.PLP.part.repulsive>
2.8475

> <Gold.PLP.ligand.clash>
1.5026

> <Gold.PLP.ligand.torsion>
0.4355

> <Gold.PLP.Chemscore.Hbond>
1.0000

> <Gold.PLP.Chemscore.CHOScore>
0.0000

> <Gold.PLP.Chemscore.Metal>
0.0000

> <Gold.Chemscore.Hbonds>
donor molecule, donor type, donor heavy atom, donor atom, acceptor molecule, acceptor atom, score
      L1  H    10    23       P1  9132  0.91

> <Gold.PLP.Chemscore.Internal.Correction>
   9.000000E+99

