#       Name:                CT1002167954
#       Creating user name   hitesit
#       Creation time:       Sun Apr 16 22:52:03 2023


#       File generated by GOLD software.
#

@<TRIPOS>MOLECULE
CT1002167954|ligand_prepared|mol2|1|dock3
    29    30     1
SMALL
NO_CHARGES


@<TRIPOS>ATOM
      1 C1         113.2011 242.0771 323.9913 C.3            1 RES1               0.0000
      2 C2         114.0939 242.8526 323.0012 C.ar           1 RES1               0.0000
      3 C3         111.7599 242.4306 323.6360 C.2            1 RES1               0.0000
      4 C4         113.5430 240.6025 323.8092 C.2            1 RES1               0.0000
      5 C5         113.4459 242.4448 325.4733 C.3            1 RES1               0.0000
      6 C6         115.1357 243.6516 323.4625 C.ar           1 RES1               0.0000
      7 C7         113.8900 242.7768 321.6259 C.ar           1 RES1               0.0000
      8 N8         111.0144 241.4809 323.0016 N.am           1 RES1               0.0000
      9 O9         111.2968 243.5394 323.8733 O.2            1 RES1               0.0000
     10 N10        112.5715 239.7750 323.3101 N.am           1 RES1               0.0000
     11 O11        114.6502 240.1528 324.0778 O.2            1 RES1               0.0000
     12 C12        112.5010 241.7506 326.4415 C.3            1 RES1               0.0000
     13 C13        115.9462 244.3475 322.5810 C.ar           1 RES1               0.0000
     14 C14        114.7016 243.4737 320.7460 C.ar           1 RES1               0.0000
     15 C15        111.3326 240.1532 322.8692 C.2            1 RES1               0.0000
     16 C16        115.7301 244.2587 321.2223 C.ar           1 RES1               0.0000
     17 O17        110.5334 239.3588 322.3820 O.2            1 RES1               0.0000
     18 H18        114.4777 242.1813 325.7367 H              1 RES1               0.0000
     19 H19        113.3368 243.5301 325.5905 H              1 RES1               0.0000
     20 H20        115.3194 243.7357 324.5285 H              1 RES1               0.0000
     21 H21        113.0862 242.1663 321.2287 H              1 RES1               0.0000
     22 H22        110.1396 241.7863 322.5872 H              1 RES1               0.0000
     23 H23        112.7922 238.7853 323.2629 H              1 RES1               0.0000
     24 H24        112.7159 242.0435 327.4670 H              1 RES1               0.0000
     25 H25        111.4670 242.0104 326.2244 H              1 RES1               0.0000
     26 H26        112.6012 240.6695 326.3697 H              1 RES1               0.0000
     27 H27        116.7534 244.9650 322.9609 H              1 RES1               0.0000
     28 H28        114.5275 243.4013 319.6776 H              1 RES1               0.0000
     29 H29        116.3654 244.8035 320.5319 H              1 RES1               0.0000
@<TRIPOS>BOND
    1    1    2 1     
    2    1    3 1     
    3    1    4 1     
    4    1    5 1     
    5    2    6 ar    
    6    2    7 ar    
    7    3    8 1     
    8    3    9 2     
    9    4   10 1     
   10    4   11 2     
   11    5   12 1     
   12    5   18 1     
   13    5   19 1     
   14    6   13 ar    
   15    6   20 1     
   16    7   14 ar    
   17    7   21 1     
   18    8   15 1     
   19    8   22 1     
   20   10   15 1     
   21   10   23 1     
   22   12   24 1     
   23   12   25 1     
   24   12   26 1     
   25   13   16 ar    
   26   13   27 1     
   27   14   16 ar    
   28   14   28 1     
   29   15   17 2     
   30   16   29 1     
@<TRIPOS>SUBSTRUCTURE
      1 RES1           1
@<TRIPOS>SET
DONOR_HYDROGENS      STATIC     ATOMS    <user>   **** ""
2 22 23
ATOM$RED        STATIC     ATOMS    COLORGROUP SYSTEM
2 22 23
@<TRIPOS>COMMENT
> <Gold.Version>
2022.3.0

> <Gold.Id.Protein>
unknown|4uh5_clean|pdb

> <Gold.Protein.RotatedTorsions>
[ 8487 8482 8483 8484 ] final  -74.41 input   34.95 | X-H torsion
[ 8511 8504 8505 8506 ] final   41.64 input  102.00 | X-H torsion
[ 9055 9051 9052 9053 ] final -144.40 input   39.76 | X-H torsion
[ 9089 9075 9076 9077 ] final   -8.30 input   37.88 | X-H torsion
[ 9133 9121 9122 9123 ] final -104.51 input   94.46 | X-H torsion
[ 9141 9132 9131 9129 ] final  -11.99 input   60.01 | X-H torsion
[ 9170 9159 9160 9161 ] final -112.55 input   86.63 | X-H torsion
[ 9251 9236 9237 9238 ] final -101.40 input  127.08 | X-H torsion
[ 3623 3616 3617 3618 ] final   12.26 input   94.27 | X-H torsion
[ 3649 3645 3646 3647 ] final  -61.18 input   86.49 | X-H torsion
[ 9037 9031 9032 9033 ] final  -20.33 input   26.45 | X-H torsion
[ 9196 9189 9190 9191 ] final   66.08 input  130.40 | X-H torsion
[ 4943 4938 4937 4934 ] final -166.98 input   60.00 | X-H torsion
[ 9041 9036 9035 9032 ] final  101.73 input   59.99 | X-H torsion
[ 9007 8996 8997 8998 ] final   92.32 input   49.09 | X-H torsion
[ 8541 8535 8536 8537 ] final   64.18 input   50.11 | X-H torsion
[ 4959 4954 4955 4956 ] final   12.64 input   27.83 | X-H torsion
[ 8387 8378 8377 8375 ] final  -93.45 input   59.99 | X-H torsion
[ 5633 5624 5625 5626 ] final -122.12 input   44.71 | X-H torsion
[ 5606 5601 5600 5597 ] final -116.56 input   59.98 | X-H torsion
[ 5665 5657 5658 5659 ] final  -93.33 input  114.33 | X-H torsion
[ 5703 5695 5696 5697 ] final -179.99 input   57.04 | X-H torsion
[ 5747 5736 5737 5738 ] final -173.81 input   30.88 | X-H torsion
[ 5797 5785 5786 5787 ] final  109.46 input   92.04 | X-H torsion
[ 9409 9397 9398 9399 ] final  169.93 input  123.68 | X-H torsion
[ 9376 9352 9353 9354 ] final -129.25 input  105.06 | X-H torsion
[ 11109 11102 11103 11104 ] final  159.93 input   57.11 | X-H torsion
[ 8379 8367 8368 8369 ] final  -71.94 input   85.33 | X-H torsion
[ 5602 5596 5597 5598 ] final  -98.70 input  106.64 | X-H torsion
[ 13518 8422 8421 8420 ] final  -67.64 input    0.00 | X-H torsion
[ 13521 8459 8458 8457 ] final  -73.14 input   -0.00 | X-H torsion
[ 13525 8999 8998 8997 ] final   84.19 input   -0.00 | X-H torsion
[ 13528 9054 9053 9052 ] final  -28.57 input   -0.00 | X-H torsion
[ 13531 9078 9077 9076 ] final -170.22 input    0.00 | X-H torsion
[ 13534 9124 9123 9122 ] final  143.27 input   -0.00 | X-H torsion
[ 13539 9162 9161 9160 ] final -171.89 input   -0.00 | X-H torsion
[ 13553 9034 9033 9032 ] final  -51.26 input    0.00 | X-H torsion
[ 13555 8404 8403 8402 ] final -144.03 input    0.00 | X-H torsion
[ 13562 8485 8484 8483 ] final   35.67 input    0.00 | X-H torsion
[ 13564 8507 8506 8505 ] final  -39.17 input   -0.00 | X-H torsion
[ 13571 4957 4956 4955 ] final   97.47 input   -0.00 | X-H torsion
[ 13573 5599 5598 5597 ] final  151.31 input   -0.00 | X-H torsion
[ 13582 5698 5697 5696 ] final   63.17 input   -0.00 | X-H torsion
[ 13584 9239 9238 9237 ] final  -17.93 input    0.00 | X-H torsion
[ 13588 5627 5626 5625 ] final   84.53 input    0.00 | X-H torsion
[ 13596 8370 8369 8368 ] final -117.42 input   -0.00 | X-H torsion
[ 13601 9355 9354 9353 ] final   70.35 input   -0.00 | X-H torsion
[ 13603 9400 9399 9398 ] final  172.03 input   -0.00 | X-H torsion

> <Gold.Protein.ActiveResidues>
 MET341  TRP414  CYS420  VAL421  GLY422  LEU429  LEU460  SER462  ALA463  ILE464 
 SER482  GLN483  LEU484  ILE485  ARG486  TYR487  ASP500  ALA502  ASN503  TRP566 
 TYR567  GLY568  LEU569  PRO570  ALA571  VAL572  SER573  ASN574  PRO588  PHE589 
 SER590  GLY591  TRP592  TYR593  MET594  GLY595  GLU597  ILE598  ARG601  ASP602 
 ASP605  ARG608  ILE653  VAL654  TRP683  PRO687  PHE696  HIS697  TYR711  HEM750 
 H4B760 

> <Gold.Protein.RotatedAtoms>
  122.7534  249.0201  326.7394 H   0  0  0  0  0  0  0  0  0  0  0  0  # atno 3623 bound_to 3616
  125.1314  248.8168  326.8717 H   0  0  0  0  0  0  0  0  0  0  0  0  # atno 3649 bound_to 3645
  125.9516  247.6116  317.4624 H   0  0  0  0  0  0  0  0  0  0  0  0  # atno 4943 bound_to 4938
  122.4833  247.7278  313.9925 H   0  0  0  0  0  0  0  0  0  0  0  0  # atno 4959 bound_to 4954
  106.4137  246.4404  316.1023 H   0  0  0  0  0  0  0  0  0  0  0  0  # atno 5602 bound_to 5596
  105.8036  244.7249  319.6896 H   0  0  0  0  0  0  0  0  0  0  0  0  # atno 5606 bound_to 5601
  109.0378  245.9580  317.4758 H   0  0  0  0  0  0  0  0  0  0  0  0  # atno 5633 bound_to 5624
  110.6730  244.1753  315.2512 H   0  0  0  0  0  0  0  0  0  0  0  0  # atno 5665 bound_to 5657
  112.0663  241.3967  313.6170 H   0  0  0  0  0  0  0  0  0  0  0  0  # atno 5703 bound_to 5695
  110.3381  239.4657  316.0608 H   0  0  0  0  0  0  0  0  0  0  0  0  # atno 5747 bound_to 5736
  108.5158  236.2617  318.7401 H   0  0  0  0  0  0  0  0  0  0  0  0  # atno 5797 bound_to 5785
  115.6264  232.9188  318.6781 H   0  0  0  0  0  0  0  0  0  0  0  0  # atno 8379 bound_to 8367
  111.5090  239.2822  319.5900 H   0  0  0  0  0  0  0  0  0  0  0  0  # atno 8387 bound_to 8378
  116.2132  243.7189  318.2643 H   0  0  0  0  0  0  0  0  0  0  0  0  # atno 8487 bound_to 8482
  115.4659  247.0433  316.8070 H   0  0  0  0  0  0  0  0  0  0  0  0  # atno 8511 bound_to 8504
  111.2631  247.6652  317.0530 H   0  0  0  0  0  0  0  0  0  0  0  0  # atno 8541 bound_to 8535
  115.6183  250.0690  315.1239 H   0  0  0  0  0  0  0  0  0  0  0  0  # atno 9007 bound_to 8996
  119.7301  248.3679  315.6516 H   0  0  0  0  0  0  0  0  0  0  0  0  # atno 9037 bound_to 9031
  120.5659  244.4546  313.8253 H   0  0  0  0  0  0  0  0  0  0  0  0  # atno 9041 bound_to 9036
  120.9071  245.9646  316.4936 H   0  0  0  0  0  0  0  0  0  0  0  0  # atno 9055 bound_to 9051
  122.5664  243.6188  319.6006 H   0  0  0  0  0  0  0  0  0  0  0  0  # atno 9089 bound_to 9075
  122.2437  241.0853  320.7085 H   0  0  0  0  0  0  0  0  0  0  0  0  # atno 9133 bound_to 9121
  114.8349  239.4775  322.0921 H   0  0  0  0  0  0  0  0  0  0  0  0  # atno 9141 bound_to 9132
  122.5796  240.1388  323.8939 H   0  0  0  0  0  0  0  0  0  0  0  0  # atno 9170 bound_to 9159
  122.8293  238.1314  327.6579 H   0  0  0  0  0  0  0  0  0  0  0  0  # atno 9196 bound_to 9189
  118.2533  238.8117  329.3616 H   0  0  0  0  0  0  0  0  0  0  0  0  # atno 9251 bound_to 9236
  114.2506  237.2257  331.7465 H   0  0  0  0  0  0  0  0  0  0  0  0  # atno 9376 bound_to 9352
  112.7377  237.8204  327.9480 H   0  0  0  0  0  0  0  0  0  0  0  0  # atno 9409 bound_to 9397
  126.4372  238.4792  323.2778 H   0  0  0  0  0  0  0  0  0  0  0  0  # atno 11109 bound_to 11102
  115.9239  240.3800  315.5540 LP  0  0  0  0  0  0  0  0  0  0  0  0  # atno 13518 bound_to 8422
  115.7057  239.5843  317.0769 LP  0  0  0  0  0  0  0  0  0  0  0  0  # atno 13519 bound_to 8422
  118.5564  244.2696  318.3272 LP  0  0  0  0  0  0  0  0  0  0  0  0  # atno 13521 bound_to 8459
  118.5293  243.9268  316.6296 LP  0  0  0  0  0  0  0  0  0  0  0  0  # atno 13522 bound_to 8459
  115.6985  242.6522  316.9809 LP  0  0  0  0  0  0  0  0  0  0  0  0  # atno 13523 bound_to 8482
  114.8256  245.7002  317.7241 LP  0  0  0  0  0  0  0  0  0  0  0  0  # atno 13524 bound_to 8504
  116.3105  247.0068  315.6776 LP  0  0  0  0  0  0  0  0  0  0  0  0  # atno 13525 bound_to 8999
  116.9062  247.7195  317.1395 LP  0  0  0  0  0  0  0  0  0  0  0  0  # atno 13526 bound_to 8999
  120.2726  244.6269  317.4279 LP  0  0  0  0  0  0  0  0  0  0  0  0  # atno 13527 bound_to 9051
  121.6876  242.8897  316.0951 LP  0  0  0  0  0  0  0  0  0  0  0  0  # atno 13528 bound_to 9054
  122.8479  241.7738  316.7343 LP  0  0  0  0  0  0  0  0  0  0  0  0  # atno 13529 bound_to 9054
  123.3395  243.3102  318.0626 LP  0  0  0  0  0  0  0  0  0  0  0  0  # atno 13530 bound_to 9075
  122.3852  242.2235  322.4473 LP  0  0  0  0  0  0  0  0  0  0  0  0  # atno 13531 bound_to 9078
  122.6135  243.2799  321.0938 LP  0  0  0  0  0  0  0  0  0  0  0  0  # atno 13532 bound_to 9078
  122.7927  239.4255  320.6525 LP  0  0  0  0  0  0  0  0  0  0  0  0  # atno 13533 bound_to 9121
  124.4013  239.6935  324.0305 LP  0  0  0  0  0  0  0  0  0  0  0  0  # atno 13534 bound_to 9124
  123.8061  238.5309  322.8929 LP  0  0  0  0  0  0  0  0  0  0  0  0  # atno 13535 bound_to 9124
  114.9170  238.2322  321.0484 LP  0  0  0  0  0  0  0  0  0  0  0  0  # atno 13536 bound_to 9132
  115.1481  239.7602  320.5208 LP  0  0  0  0  0  0  0  0  0  0  0  0  # atno 13537 bound_to 9132
  121.1057  240.6707  324.6688 LP  0  0  0  0  0  0  0  0  0  0  0  0  # atno 13538 bound_to 9159
  119.9267  238.0148  326.8348 LP  0  0  0  0  0  0  0  0  0  0  0  0  # atno 13539 bound_to 9162
  120.0333  239.5095  325.9662 LP  0  0  0  0  0  0  0  0  0  0  0  0  # atno 13540 bound_to 9162
  118.9772  238.2970  327.8556 LP  0  0  0  0  0  0  0  0  0  0  0  0  # atno 13541 bound_to 9236
  122.1477  249.5409  328.2960 LP  0  0  0  0  0  0  0  0  0  0  0  0  # atno 13550 bound_to 3616
  123.7921  248.1665  325.9611 LP  0  0  0  0  0  0  0  0  0  0  0  0  # atno 13551 bound_to 3645
  118.2925  247.8096  314.8373 LP  0  0  0  0  0  0  0  0  0  0  0  0  # atno 13552 bound_to 9031
  121.6880  246.9474  314.7209 LP  0  0  0  0  0  0  0  0  0  0  0  0  # atno 13553 bound_to 9034
  122.2881  247.3604  316.2923 LP  0  0  0  0  0  0  0  0  0  0  0  0  # atno 13554 bound_to 9034
  120.0730  238.7348  317.7646 LP  0  0  0  0  0  0  0  0  0  0  0  0  # atno 13555 bound_to 8404
  121.1792  237.4412  317.4434 LP  0  0  0  0  0  0  0  0  0  0  0  0  # atno 13556 bound_to 8404
  122.3648  237.9595  325.9789 LP  0  0  0  0  0  0  0  0  0  0  0  0  # atno 13557 bound_to 9189
  126.6398  246.5147  316.4773 LP  0  0  0  0  0  0  0  0  0  0  0  0  # atno 13558 bound_to 4938
  125.0874  246.3318  316.9498 LP  0  0  0  0  0  0  0  0  0  0  0  0  # atno 13559 bound_to 4938
  120.5044  246.0785  313.7415 LP  0  0  0  0  0  0  0  0  0  0  0  0  # atno 13560 bound_to 9036
  119.4962  245.1723  312.8311 LP  0  0  0  0  0  0  0  0  0  0  0  0  # atno 13561 bound_to 9036
  113.2030  244.2379  316.2437 LP  0  0  0  0  0  0  0  0  0  0  0  0  # atno 13562 bound_to 8485
  112.7815  245.9036  316.0249 LP  0  0  0  0  0  0  0  0  0  0  0  0  # atno 13563 bound_to 8485
  114.6739  249.4998  316.4444 LP  0  0  0  0  0  0  0  0  0  0  0  0  # atno 13564 bound_to 8507
  113.7514  249.0929  315.0360 LP  0  0  0  0  0  0  0  0  0  0  0  0  # atno 13565 bound_to 8507
  115.8876  249.2347  313.6121 LP  0  0  0  0  0  0  0  0  0  0  0  0  # atno 13566 bound_to 8996
  112.7698  248.5071  316.7980 LP  0  0  0  0  0  0  0  0  0  0  0  0  # atno 13567 bound_to 8535
  123.9969  247.4632  313.1633 LP  0  0  0  0  0  0  0  0  0  0  0  0  # atno 13570 bound_to 4954
  120.6228  249.4235  314.1560 LP  0  0  0  0  0  0  0  0  0  0  0  0  # atno 13571 bound_to 4957
  119.8933  248.2499  313.1118 LP  0  0  0  0  0  0  0  0  0  0  0  0  # atno 13572 bound_to 4957
  110.7607  246.6231  318.3587 LP  0  0  0  0  0  0  0  0  0  0  0  0  # atno 13573 bound_to 5599
  109.7231  247.9552  317.9729 LP  0  0  0  0  0  0  0  0  0  0  0  0  # atno 13574 bound_to 5599
  112.7753  239.1834  320.6072 LP  0  0  0  0  0  0  0  0  0  0  0  0  # atno 13575 bound_to 8378
  111.5538  238.1048  320.7123 LP  0  0  0  0  0  0  0  0  0  0  0  0  # atno 13576 bound_to 8378
  108.4454  244.3128  317.4078 LP  0  0  0  0  0  0  0  0  0  0  0  0  # atno 13581 bound_to 5624
  111.5808  240.6199  317.2409 LP  0  0  0  0  0  0  0  0  0  0  0  0  # atno 13582 bound_to 5698
  111.7517  238.9572  317.6949 LP  0  0  0  0  0  0  0  0  0  0  0  0  # atno 13583 bound_to 5698
  114.5136  238.8482  327.9774 LP  0  0  0  0  0  0  0  0  0  0  0  0  # atno 13584 bound_to 9239
  114.3101  237.4988  326.9108 LP  0  0  0  0  0  0  0  0  0  0  0  0  # atno 13585 bound_to 9239
  107.3065  244.5263  320.2808 LP  0  0  0  0  0  0  0  0  0  0  0  0  # atno 13586 bound_to 5601
  107.0343  244.4009  318.6756 LP  0  0  0  0  0  0  0  0  0  0  0  0  # atno 13587 bound_to 5601
  108.6442  243.7930  314.8517 LP  0  0  0  0  0  0  0  0  0  0  0  0  # atno 13588 bound_to 5627
  109.2314  242.2807  315.4584 LP  0  0  0  0  0  0  0  0  0  0  0  0  # atno 13589 bound_to 5627
  112.3671  243.7577  315.3048 LP  0  0  0  0  0  0  0  0  0  0  0  0  # atno 13590 bound_to 5657
  111.4328  241.6742  315.2220 LP  0  0  0  0  0  0  0  0  0  0  0  0  # atno 13591 bound_to 5695
  109.5029  238.2226  315.1511 LP  0  0  0  0  0  0  0  0  0  0  0  0  # atno 13592 bound_to 5736
  107.8683  237.0172  317.3073 LP  0  0  0  0  0  0  0  0  0  0  0  0  # atno 13593 bound_to 5785
  117.3300  236.5068  318.7351 LP  0  0  0  0  0  0  0  0  0  0  0  0  # atno 13596 bound_to 8370
  117.2122  234.9107  319.3974 LP  0  0  0  0  0  0  0  0  0  0  0  0  # atno 13597 bound_to 8370
  112.3258  236.6626  329.1877 LP  0  0  0  0  0  0  0  0  0  0  0  0  # atno 13598 bound_to 9397
  109.9699  237.6218  330.0288 LP  0  0  0  0  0  0  0  0  0  0  0  0  # atno 13601 bound_to 9355
  110.4747  235.9651  330.0464 LP  0  0  0  0  0  0  0  0  0  0  0  0  # atno 13602 bound_to 9355
  109.4211  233.6318  327.8490 LP  0  0  0  0  0  0  0  0  0  0  0  0  # atno 13603 bound_to 9400
  109.0407  235.2043  327.2307 LP  0  0  0  0  0  0  0  0  0  0  0  0  # atno 13604 bound_to 9400
  114.5488  236.9156  330.0528 LP  0  0  0  0  0  0  0  0  0  0  0  0  # atno 13608 bound_to 9352

> <Gold.Score>
     Fitness  S(hb_ext) S(vdw_ext)  S(hb_int)    S(int)      intcor
     36.04       0.36      26.52       0.00      -0.79      -0.77

> <Gold.Goldscore.Fitness>
36.0373

> <Gold.Goldscore.Internal.Vdw>
-1.1606

> <Gold.Goldscore.Internal.Torsion>
-0.3945

> <Gold.Goldscore.External.Vdw>
26.5203

> <Gold.Goldscore.Internal.HBond>
0.0000

> <Gold.Goldscore.External.HBond>
0.3583

> <Gold.Goldscore.Internal.Correction>
-0.7686

> <Gold.Goldscore.Hbonds>
donor molecule, donor type, donor heavy atom, donor atom, acceptor molecule, acceptor atom, score
      P1  H  9132  9141       L1    11  0.14
      L1  H    10    23       P1  9404  0.01

> <Gold.Goldscore.Internal.Vdw.Weighted>
-1.1606

> <Gold.Goldscore.Internal.Torsion.Weighted>
-0.3945

> <Gold.Goldscore.External.Vdw.Weighted>
36.4655

> <Gold.Goldscore.Internal.HBond.Weighted>
0.0000

> <Gold.Goldscore.External.HBond.Weighted>
0.3583

> <Gold.Goldscore.Internal.Correction.Weighted>
-0.7686

> <Gold.Rescore>
     Score     S(PLP)   S(hbond)     S(cho)   S(metal)  DE(clash)   DE(tors)     intcor
     31.68     -28.63       1.03       0.00       0.00       0.00       0.02       ----

> <Gold.PLP.Fitness>
31.6815

> <Gold.PLP.PLP>
-28.6281

> <Gold.PLP.part.hbond>
-6.8619

> <Gold.PLP.part.metal>
0.0000

> <Gold.PLP.part.buried>
2.5927

> <Gold.PLP.part.nonpolar>
-26.3599

> <Gold.PLP.part.repulsive>
0.8870

> <Gold.PLP.ligand.clash>
0.0000

> <Gold.PLP.ligand.torsion>
0.0234

> <Gold.PLP.Chemscore.Hbond>
1.0334

> <Gold.PLP.Chemscore.CHOScore>
0.0000

> <Gold.PLP.Chemscore.Metal>
0.0000

> <Gold.Chemscore.Hbonds>
donor molecule, donor type, donor heavy atom, donor atom, acceptor molecule, acceptor atom, score
      L1  H    10    23       P1  9404  0.12
      P1  H  9132  9141       L1    11  0.45

> <Gold.PLP.Chemscore.Internal.Correction>
   9.000000E+99

