#       Name:                CT1002167954
#       Creating user name   hitesit
#       Creation time:       Sun Apr 16 22:52:07 2023


#       File generated by GOLD software.
#

@<TRIPOS>MOLECULE
CT1002167954|ligand_prepared|mol2|1|dock7
    29    30     1
SMALL
NO_CHARGES


@<TRIPOS>ATOM
      1 C1         117.6582 245.3705 321.9084 C.3            1 RES1               0.0000
      2 C2         116.2796 245.7479 322.4879 C.ar           1 RES1               0.0000
      3 C3         117.4145 244.9511 320.4616 C.2            1 RES1               0.0000
      4 C4         118.5369 246.6074 322.0580 C.2            1 RES1               0.0000
      5 C5         118.3485 244.2015 322.6490 C.3            1 RES1               0.0000
      6 C6         115.3437 244.7628 322.7889 C.ar           1 RES1               0.0000
      7 C7         115.9309 247.0741 322.7290 C.ar           1 RES1               0.0000
      8 N8         117.7997 245.8156 319.4798 N.am           1 RES1               0.0000
      9 O9         116.8570 243.8955 320.1876 O.2            1 RES1               0.0000
     10 N10        118.9644 247.2332 320.9163 N.am           1 RES1               0.0000
     11 O11        118.8493 247.0555 323.1543 O.2            1 RES1               0.0000
     12 C12        119.7797 243.9513 322.2003 C.3            1 RES1               0.0000
     13 C13        114.1052 245.0914 323.3147 C.ar           1 RES1               0.0000
     14 C14        114.6917 247.4005 323.2546 C.ar           1 RES1               0.0000
     15 C15        118.6104 246.9114 319.6344 C.2            1 RES1               0.0000
     16 C16        113.7785 246.4102 323.5483 C.ar           1 RES1               0.0000
     17 O17        118.9923 247.5555 318.6616 O.2            1 RES1               0.0000
     18 H18        118.3482 244.4159 323.7248 H              1 RES1               0.0000
     19 H19        117.7634 243.2875 322.4890 H              1 RES1               0.0000
     20 H20        115.5820 243.7197 322.6095 H              1 RES1               0.0000
     21 H21        116.6330 247.8698 322.5046 H              1 RES1               0.0000
     22 H22        117.4529 245.6304 318.5440 H              1 RES1               0.0000
     23 H23        119.6062 248.0110 321.0329 H              1 RES1               0.0000
     24 H24        120.2171 243.1213 322.7511 H              1 RES1               0.0000
     25 H25        119.8149 243.7102 321.1398 H              1 RES1               0.0000
     26 H26        120.3961 244.8319 322.3683 H              1 RES1               0.0000
     27 H27        113.3895 244.3084 323.5428 H              1 RES1               0.0000
     28 H28        114.4386 248.4398 323.4363 H              1 RES1               0.0000
     29 H29        112.8084 246.6674 323.9605 H              1 RES1               0.0000
@<TRIPOS>BOND
    1    1    2 1     
    2    1    3 1     
    3    1    4 1     
    4    1    5 1     
    5    2    6 ar    
    6    2    7 ar    
    7    3    8 1     
    8    3    9 2     
    9    4   10 1     
   10    4   11 2     
   11    5   12 1     
   12    5   18 1     
   13    5   19 1     
   14    6   13 ar    
   15    6   20 1     
   16    7   14 ar    
   17    7   21 1     
   18    8   15 1     
   19    8   22 1     
   20   10   15 1     
   21   10   23 1     
   22   12   24 1     
   23   12   25 1     
   24   12   26 1     
   25   13   16 ar    
   26   13   27 1     
   27   14   16 ar    
   28   14   28 1     
   29   15   17 2     
   30   16   29 1     
@<TRIPOS>SUBSTRUCTURE
      1 RES1           1
@<TRIPOS>SET
DONOR_HYDROGENS      STATIC     ATOMS    <user>   **** ""
2 22 23
ATOM$RED        STATIC     ATOMS    COLORGROUP SYSTEM
2 22 23
@<TRIPOS>COMMENT
> <Gold.Version>
2022.3.0

> <Gold.Id.Protein>
unknown|4uh5_clean|pdb

> <Gold.Protein.RotatedTorsions>
[ 8487 8482 8483 8484 ] final  158.99 input   34.95 | X-H torsion
[ 8511 8504 8505 8506 ] final    0.88 input  102.00 | X-H torsion
[ 9055 9051 9052 9053 ] final  123.15 input   39.76 | X-H torsion
[ 9089 9075 9076 9077 ] final  -29.72 input   37.88 | X-H torsion
[ 9133 9121 9122 9123 ] final  154.94 input   94.46 | X-H torsion
[ 9141 9132 9131 9129 ] final -140.68 input   60.01 | X-H torsion
[ 9170 9159 9160 9161 ] final  -74.59 input   86.63 | X-H torsion
[ 9251 9236 9237 9238 ] final  -40.22 input  127.08 | X-H torsion
[ 3623 3616 3617 3618 ] final   57.46 input   94.27 | X-H torsion
[ 3649 3645 3646 3647 ] final -136.99 input   86.49 | X-H torsion
[ 9037 9031 9032 9033 ] final -169.21 input   26.45 | X-H torsion
[ 9196 9189 9190 9191 ] final  167.25 input  130.40 | X-H torsion
[ 4943 4938 4937 4934 ] final   54.21 input   60.00 | X-H torsion
[ 9041 9036 9035 9032 ] final  -24.13 input   59.99 | X-H torsion
[ 9007 8996 8997 8998 ] final   93.28 input   49.09 | X-H torsion
[ 8541 8535 8536 8537 ] final  -80.22 input   50.11 | X-H torsion
[ 4959 4954 4955 4956 ] final -123.99 input   27.83 | X-H torsion
[ 8387 8378 8377 8375 ] final   32.94 input   59.99 | X-H torsion
[ 5633 5624 5625 5626 ] final  -44.66 input   44.71 | X-H torsion
[ 5606 5601 5600 5597 ] final -121.71 input   59.98 | X-H torsion
[ 5665 5657 5658 5659 ] final   27.48 input  114.33 | X-H torsion
[ 5703 5695 5696 5697 ] final -148.42 input   57.04 | X-H torsion
[ 5747 5736 5737 5738 ] final -144.88 input   30.88 | X-H torsion
[ 5797 5785 5786 5787 ] final   82.23 input   92.04 | X-H torsion
[ 9409 9397 9398 9399 ] final  108.36 input  123.68 | X-H torsion
[ 9376 9352 9353 9354 ] final  -70.70 input  105.06 | X-H torsion
[ 11109 11102 11103 11104 ] final   28.52 input   57.11 | X-H torsion
[ 8379 8367 8368 8369 ] final  -24.76 input   85.33 | X-H torsion
[ 5602 5596 5597 5598 ] final -161.45 input  106.64 | X-H torsion
[ 13518 8422 8421 8420 ] final   43.25 input    0.00 | X-H torsion
[ 13521 8459 8458 8457 ] final   91.13 input   -0.00 | X-H torsion
[ 13525 8999 8998 8997 ] final -108.74 input   -0.00 | X-H torsion
[ 13528 9054 9053 9052 ] final -102.12 input   -0.00 | X-H torsion
[ 13531 9078 9077 9076 ] final  -91.93 input    0.00 | X-H torsion
[ 13534 9124 9123 9122 ] final -179.77 input   -0.00 | X-H torsion
[ 13539 9162 9161 9160 ] final   47.05 input   -0.00 | X-H torsion
[ 13553 9034 9033 9032 ] final -118.49 input    0.00 | X-H torsion
[ 13555 8404 8403 8402 ] final   -9.70 input    0.00 | X-H torsion
[ 13562 8485 8484 8483 ] final  115.94 input    0.00 | X-H torsion
[ 13564 8507 8506 8505 ] final  -39.64 input   -0.00 | X-H torsion
[ 13571 4957 4956 4955 ] final   47.68 input   -0.00 | X-H torsion
[ 13573 5599 5598 5597 ] final  100.50 input   -0.00 | X-H torsion
[ 13582 5698 5697 5696 ] final  -13.03 input   -0.00 | X-H torsion
[ 13584 9239 9238 9237 ] final -155.19 input    0.00 | X-H torsion
[ 13588 5627 5626 5625 ] final  131.63 input    0.00 | X-H torsion
[ 13596 8370 8369 8368 ] final  157.13 input   -0.00 | X-H torsion
[ 13601 9355 9354 9353 ] final  141.45 input   -0.00 | X-H torsion
[ 13603 9400 9399 9398 ] final  -58.34 input   -0.00 | X-H torsion

> <Gold.Protein.ActiveResidues>
 MET341  TRP414  CYS420  VAL421  GLY422  LEU429  LEU460  SER462  ALA463  ILE464 
 SER482  GLN483  LEU484  ILE485  ARG486  TYR487  ASP500  ALA502  ASN503  TRP566 
 TYR567  GLY568  LEU569  PRO570  ALA571  VAL572  SER573  ASN574  PRO588  PHE589 
 SER590  GLY591  TRP592  TYR593  MET594  GLY595  GLU597  ILE598  ARG601  ASP602 
 ASP605  ARG608  ILE653  VAL654  TRP683  PRO687  PHE696  HIS697  TYR711  HEM750 
 H4B760 

> <Gold.Protein.RotatedAtoms>
  122.4083  248.5289  327.0643 H   0  0  0  0  0  0  0  0  0  0  0  0  # atno 3623 bound_to 3616
  124.7246  247.8160  326.9118 H   0  0  0  0  0  0  0  0  0  0  0  0  # atno 3649 bound_to 3645
  126.4343  246.2969  316.4096 H   0  0  0  0  0  0  0  0  0  0  0  0  # atno 4943 bound_to 4938
  124.0205  248.0105  313.5043 H   0  0  0  0  0  0  0  0  0  0  0  0  # atno 4959 bound_to 4954
  105.7565  246.2951  316.7323 H   0  0  0  0  0  0  0  0  0  0  0  0  # atno 5602 bound_to 5596
  105.8213  244.7306  319.7716 H   0  0  0  0  0  0  0  0  0  0  0  0  # atno 5606 bound_to 5601
  108.6110  245.4077  316.6092 H   0  0  0  0  0  0  0  0  0  0  0  0  # atno 5633 bound_to 5624
  111.7893  243.1829  315.5860 H   0  0  0  0  0  0  0  0  0  0  0  0  # atno 5665 bound_to 5657
  111.5930  241.4624  313.5613 H   0  0  0  0  0  0  0  0  0  0  0  0  # atno 5703 bound_to 5695
  110.5960  239.1040  316.1036 H   0  0  0  0  0  0  0  0  0  0  0  0  # atno 5747 bound_to 5736
  108.2019  236.4887  318.8833 H   0  0  0  0  0  0  0  0  0  0  0  0  # atno 5797 bound_to 5785
  115.7738  233.4997  319.0509 H   0  0  0  0  0  0  0  0  0  0  0  0  # atno 8379 bound_to 8367
  111.6410  238.1068  320.7706 H   0  0  0  0  0  0  0  0  0  0  0  0  # atno 8387 bound_to 8378
  116.4719  242.7771  317.0283 H   0  0  0  0  0  0  0  0  0  0  0  0  # atno 8487 bound_to 8482
  115.0763  246.7137  316.4614 H   0  0  0  0  0  0  0  0  0  0  0  0  # atno 8511 bound_to 8504
  112.4816  248.8068  317.1323 H   0  0  0  0  0  0  0  0  0  0  0  0  # atno 8541 bound_to 8535
  115.6212  250.0820  315.1171 H   0  0  0  0  0  0  0  0  0  0  0  0  # atno 9007 bound_to 8996
  118.1427  247.9381  315.2617 H   0  0  0  0  0  0  0  0  0  0  0  0  # atno 9037 bound_to 9031
  120.4365  246.1104  313.6813 H   0  0  0  0  0  0  0  0  0  0  0  0  # atno 9041 bound_to 9036
  120.4529  245.7970  317.6845 H   0  0  0  0  0  0  0  0  0  0  0  0  # atno 9055 bound_to 9051
  122.3035  243.5667  319.4093 H   0  0  0  0  0  0  0  0  0  0  0  0  # atno 9089 bound_to 9075
  121.8495  239.8645  320.2429 H   0  0  0  0  0  0  0  0  0  0  0  0  # atno 9133 bound_to 9121
  114.9482  238.2736  320.9156 H   0  0  0  0  0  0  0  0  0  0  0  0  # atno 9141 bound_to 9132
  122.2079  239.6995  323.9107 H   0  0  0  0  0  0  0  0  0  0  0  0  # atno 9170 bound_to 9159
  123.2796  237.5773  326.4822 H   0  0  0  0  0  0  0  0  0  0  0  0  # atno 9196 bound_to 9189
  118.1048  237.9819  329.0409 H   0  0  0  0  0  0  0  0  0  0  0  0  # atno 9251 bound_to 9236
  113.9304  236.5086  331.3853 H   0  0  0  0  0  0  0  0  0  0  0  0  # atno 9376 bound_to 9352
  113.2285  237.0736  328.0628 H   0  0  0  0  0  0  0  0  0  0  0  0  # atno 9409 bound_to 9397
  125.2962  238.0390  324.3215 H   0  0  0  0  0  0  0  0  0  0  0  0  # atno 11109 bound_to 11102
  115.8877  239.1236  316.2285 LP  0  0  0  0  0  0  0  0  0  0  0  0  # atno 13518 bound_to 8422
  115.7419  240.8407  316.4024 LP  0  0  0  0  0  0  0  0  0  0  0  0  # atno 13519 bound_to 8422
  118.6609  243.7419  316.6980 LP  0  0  0  0  0  0  0  0  0  0  0  0  # atno 13521 bound_to 8459
  118.4248  244.4546  318.2588 LP  0  0  0  0  0  0  0  0  0  0  0  0  # atno 13522 bound_to 8459
  115.4448  243.5760  318.1932 LP  0  0  0  0  0  0  0  0  0  0  0  0  # atno 13523 bound_to 8482
  115.2055  246.0216  318.0611 LP  0  0  0  0  0  0  0  0  0  0  0  0  # atno 13524 bound_to 8504
  117.0123  247.5562  317.1499 LP  0  0  0  0  0  0  0  0  0  0  0  0  # atno 13525 bound_to 8999
  116.2044  247.1701  315.6672 LP  0  0  0  0  0  0  0  0  0  0  0  0  # atno 13526 bound_to 8999
  120.7116  244.7888  316.2768 LP  0  0  0  0  0  0  0  0  0  0  0  0  # atno 13527 bound_to 9051
  121.5037  242.1160  316.7606 LP  0  0  0  0  0  0  0  0  0  0  0  0  # atno 13528 bound_to 9054
  123.0319  242.5475  316.0688 LP  0  0  0  0  0  0  0  0  0  0  0  0  # atno 13529 bound_to 9054
  123.5954  243.3609  318.2488 LP  0  0  0  0  0  0  0  0  0  0  0  0  # atno 13530 bound_to 9075
  123.3156  242.6104  322.0229 LP  0  0  0  0  0  0  0  0  0  0  0  0  # atno 13531 bound_to 9078
  121.6831  242.8931  321.5181 LP  0  0  0  0  0  0  0  0  0  0  0  0  # atno 13532 bound_to 9078
  123.1757  240.6115  321.1048 LP  0  0  0  0  0  0  0  0  0  0  0  0  # atno 13533 bound_to 9121
  124.2322  239.2503  324.3069 LP  0  0  0  0  0  0  0  0  0  0  0  0  # atno 13534 bound_to 9124
  123.9751  238.9741  322.6165 LP  0  0  0  0  0  0  0  0  0  0  0  0  # atno 13535 bound_to 9124
  115.1385  239.8621  320.6204 LP  0  0  0  0  0  0  0  0  0  0  0  0  # atno 13536 bound_to 9132
  114.8124  239.3430  322.1340 LP  0  0  0  0  0  0  0  0  0  0  0  0  # atno 13537 bound_to 9132
  121.4681  241.0990  324.6523 LP  0  0  0  0  0  0  0  0  0  0  0  0  # atno 13538 bound_to 9159
  120.0291  239.0695  325.5923 LP  0  0  0  0  0  0  0  0  0  0  0  0  # atno 13539 bound_to 9162
  119.9309  238.4547  327.2087 LP  0  0  0  0  0  0  0  0  0  0  0  0  # atno 13540 bound_to 9162
  119.1217  239.1045  328.1676 LP  0  0  0  0  0  0  0  0  0  0  0  0  # atno 13541 bound_to 9236
  122.4824  250.0173  327.9810 LP  0  0  0  0  0  0  0  0  0  0  0  0  # atno 13550 bound_to 3616
  124.1923  249.1510  325.9217 LP  0  0  0  0  0  0  0  0  0  0  0  0  # atno 13551 bound_to 3645
  119.8610  248.2344  315.2226 LP  0  0  0  0  0  0  0  0  0  0  0  0  # atno 13552 bound_to 9031
  122.3775  246.4567  315.1716 LP  0  0  0  0  0  0  0  0  0  0  0  0  # atno 13553 bound_to 9034
  121.5986  247.8511  315.8415 LP  0  0  0  0  0  0  0  0  0  0  0  0  # atno 13554 bound_to 9034
  120.8415  237.3589  318.0187 LP  0  0  0  0  0  0  0  0  0  0  0  0  # atno 13555 bound_to 8404
  120.4107  238.8171  317.1893 LP  0  0  0  0  0  0  0  0  0  0  0  0  # atno 13556 bound_to 8404
  121.9297  238.4950  327.1149 LP  0  0  0  0  0  0  0  0  0  0  0  0  # atno 13557 bound_to 9189
  125.0025  246.5632  317.1351 LP  0  0  0  0  0  0  0  0  0  0  0  0  # atno 13558 bound_to 4938
  126.2384  247.6081  317.3528 LP  0  0  0  0  0  0  0  0  0  0  0  0  # atno 13559 bound_to 4938
  119.5037  245.0765  312.8394 LP  0  0  0  0  0  0  0  0  0  0  0  0  # atno 13560 bound_to 9036
  120.6273  244.5064  313.8782 LP  0  0  0  0  0  0  0  0  0  0  0  0  # atno 13561 bound_to 9036
  112.7182  244.9561  316.9477 LP  0  0  0  0  0  0  0  0  0  0  0  0  # atno 13562 bound_to 8485
  113.2663  245.1854  315.3208 LP  0  0  0  0  0  0  0  0  0  0  0  0  # atno 13563 bound_to 8485
  114.6697  249.5056  316.4454 LP  0  0  0  0  0  0  0  0  0  0  0  0  # atno 13564 bound_to 8507
  113.7556  249.0871  315.0350 LP  0  0  0  0  0  0  0  0  0  0  0  0  # atno 13565 bound_to 8507
  115.8847  249.2220  313.6187 LP  0  0  0  0  0  0  0  0  0  0  0  0  # atno 13566 bound_to 8996
  111.5666  247.3798  316.7198 LP  0  0  0  0  0  0  0  0  0  0  0  0  # atno 13567 bound_to 8535
  122.4878  247.1857  313.6425 LP  0  0  0  0  0  0  0  0  0  0  0  0  # atno 13570 bound_to 4954
  120.9412  248.7677  314.1618 LP  0  0  0  0  0  0  0  0  0  0  0  0  # atno 13571 bound_to 4957
  119.5750  248.9058  313.1060 LP  0  0  0  0  0  0  0  0  0  0  0  0  # atno 13572 bound_to 4957
  110.3610  246.8902  318.9252 LP  0  0  0  0  0  0  0  0  0  0  0  0  # atno 13573 bound_to 5599
  110.1228  247.6880  317.4064 LP  0  0  0  0  0  0  0  0  0  0  0  0  # atno 13574 bound_to 5599
  111.4292  239.2146  319.5975 LP  0  0  0  0  0  0  0  0  0  0  0  0  # atno 13575 bound_to 8378
  112.7670  239.2573  320.5330 LP  0  0  0  0  0  0  0  0  0  0  0  0  # atno 13576 bound_to 8378
  108.8592  244.8464  318.2481 LP  0  0  0  0  0  0  0  0  0  0  0  0  # atno 13581 bound_to 5624
  112.3834  239.9526  317.0109 LP  0  0  0  0  0  0  0  0  0  0  0  0  # atno 13582 bound_to 5698
  110.9491  239.6245  317.9249 LP  0  0  0  0  0  0  0  0  0  0  0  0  # atno 13583 bound_to 5698
  114.3589  237.3117  327.5116 LP  0  0  0  0  0  0  0  0  0  0  0  0  # atno 13584 bound_to 9239
  114.4647  239.0352  327.3766 LP  0  0  0  0  0  0  0  0  0  0  0  0  # atno 13585 bound_to 9239
  107.3682  244.5096  320.2253 LP  0  0  0  0  0  0  0  0  0  0  0  0  # atno 13586 bound_to 5601
  106.9548  244.4118  318.6485 LP  0  0  0  0  0  0  0  0  0  0  0  0  # atno 13587 bound_to 5601
  108.9794  243.4162  314.3776 LP  0  0  0  0  0  0  0  0  0  0  0  0  # atno 13588 bound_to 5627
  108.8962  242.6575  315.9324 LP  0  0  0  0  0  0  0  0  0  0  0  0  # atno 13589 bound_to 5627
  111.2695  244.7335  314.9756 LP  0  0  0  0  0  0  0  0  0  0  0  0  # atno 13590 bound_to 5657
  111.8951  241.6101  315.2763 LP  0  0  0  0  0  0  0  0  0  0  0  0  # atno 13591 bound_to 5695
  109.2550  238.5703  315.1100 LP  0  0  0  0  0  0  0  0  0  0  0  0  # atno 13592 bound_to 5736
  108.1784  236.7929  317.1658 LP  0  0  0  0  0  0  0  0  0  0  0  0  # atno 13593 bound_to 5785
  118.1314  235.6802  318.9711 LP  0  0  0  0  0  0  0  0  0  0  0  0  # atno 13596 bound_to 8370
  116.4108  235.7373  319.1615 LP  0  0  0  0  0  0  0  0  0  0  0  0  # atno 13597 bound_to 8370
  111.8433  237.3967  329.0748 LP  0  0  0  0  0  0  0  0  0  0  0  0  # atno 13598 bound_to 9397
  109.8926  236.9779  329.2583 LP  0  0  0  0  0  0  0  0  0  0  0  0  # atno 13601 bound_to 9355
  110.5519  236.6089  330.8169 LP  0  0  0  0  0  0  0  0  0  0  0  0  # atno 13602 bound_to 9355
  108.9459  235.1214  327.9570 LP  0  0  0  0  0  0  0  0  0  0  0  0  # atno 13603 bound_to 9400
  109.5159  233.7147  327.1227 LP  0  0  0  0  0  0  0  0  0  0  0  0  # atno 13604 bound_to 9400
  114.8617  237.6164  330.4058 LP  0  0  0  0  0  0  0  0  0  0  0  0  # atno 13608 bound_to 9352

> <Gold.Score>
     Fitness  S(hb_ext) S(vdw_ext)  S(hb_int)    S(int)      intcor
     38.14       0.26      28.57       0.00      -1.41      -0.76

> <Gold.Goldscore.Fitness>
38.1361

> <Gold.Goldscore.Internal.Vdw>
-1.7128

> <Gold.Goldscore.Internal.Torsion>
-0.4580

> <Gold.Goldscore.External.Vdw>
28.5664

> <Gold.Goldscore.Internal.HBond>
0.0000

> <Gold.Goldscore.External.HBond>
0.2632

> <Gold.Goldscore.Internal.Correction>
-0.7650

> <Gold.Goldscore.Hbonds>
donor molecule, donor type, donor heavy atom, donor atom, acceptor molecule, acceptor atom, score
      P1  H  9051  9055       L1    17  0.13

> <Gold.Goldscore.Internal.Vdw.Weighted>
-1.7128

> <Gold.Goldscore.Internal.Torsion.Weighted>
-0.4580

> <Gold.Goldscore.External.Vdw.Weighted>
39.2788

> <Gold.Goldscore.Internal.HBond.Weighted>
0.0000

> <Gold.Goldscore.External.HBond.Weighted>
0.2632

> <Gold.Goldscore.Internal.Correction.Weighted>
-0.7650

> <Gold.Rescore>
     Score     S(PLP)   S(hbond)     S(cho)   S(metal)  DE(clash)   DE(tors)     intcor
     30.27     -23.68       0.82       0.00       1.00       1.39       0.24       ----

> <Gold.PLP.Fitness>
30.2739

> <Gold.PLP.PLP>
-23.6777

> <Gold.PLP.part.hbond>
-3.7932

> <Gold.PLP.part.metal>
-1.0000

> <Gold.PLP.part.buried>
25.8808

> <Gold.PLP.part.nonpolar>
-50.3875

> <Gold.PLP.part.repulsive>
3.0655

> <Gold.PLP.ligand.clash>
1.3911

> <Gold.PLP.ligand.torsion>
0.2372

> <Gold.PLP.Chemscore.Hbond>
0.8206

> <Gold.PLP.Chemscore.CHOScore>
0.0000

> <Gold.PLP.Chemscore.Metal>
1.0000

> <Gold.Chemscore.Hbonds>
donor molecule, donor type, donor heavy atom, donor atom, acceptor molecule, acceptor atom, score
      L1  H     8    22       P1  8459  0.27
      P1  H  9051  9055       L1    17  0.03
      P1  M 13385 13385       L1    11  0.94

> <Gold.PLP.Chemscore.Internal.Correction>
   9.000000E+99

