#       Name:                CT1002167954
#       Creating user name   hitesit
#       Creation time:       Sun Apr 16 22:52:05 2023


#       File generated by GOLD software.
#

@<TRIPOS>MOLECULE
CT1002167954|ligand_prepared|mol2|1|dock5
    29    30     1
SMALL
NO_CHARGES


@<TRIPOS>ATOM
      1 C1         113.4043 242.1004 324.0922 C.3            1 RES1               0.0000
      2 C2         114.1975 242.8422 322.9970 C.ar           1 RES1               0.0000
      3 C3         112.0423 242.7837 324.1719 C.2            1 RES1               0.0000
      4 C4         113.3431 240.6397 323.6594 C.2            1 RES1               0.0000
      5 C5         114.0650 242.1574 325.4893 C.3            1 RES1               0.0000
      6 C6         113.9848 242.5567 321.6517 C.ar           1 RES1               0.0000
      7 C7         115.1417 243.8145 323.3159 C.ar           1 RES1               0.0000
      8 N8         110.9707 242.1193 323.6522 N.am           1 RES1               0.0000
      9 O9         111.9170 243.9054 324.6478 O.2            1 RES1               0.0000
     10 N10        112.1176 240.1147 323.3427 N.am           1 RES1               0.0000
     11 O11        114.3472 239.9435 323.5736 O.2            1 RES1               0.0000
     12 C12        113.4391 241.2120 326.5025 C.3            1 RES1               0.0000
     13 C13        114.6883 243.2213 320.6608 C.ar           1 RES1               0.0000
     14 C14        115.8443 244.4778 322.3235 C.ar           1 RES1               0.0000
     15 C15        110.9327 240.7968 323.2900 C.2            1 RES1               0.0000
     16 C16        115.6180 244.1825 320.9959 C.ar           1 RES1               0.0000
     17 O17        109.8804 240.2680 322.9432 O.2            1 RES1               0.0000
     18 H18        115.1291 241.9114 325.3870 H              1 RES1               0.0000
     19 H19        113.9933 243.1830 325.8722 H              1 RES1               0.0000
     20 H20        113.2589 241.8017 321.3689 H              1 RES1               0.0000
     21 H21        115.3370 244.0625 324.3537 H              1 RES1               0.0000
     22 H22        110.1189 242.6554 323.5207 H              1 RES1               0.0000
     23 H23        112.0858 239.1234 323.1265 H              1 RES1               0.0000
     24 H24        113.9398 241.2919 327.4651 H              1 RES1               0.0000
     25 H25        112.3862 241.4443 326.6478 H              1 RES1               0.0000
     26 H26        113.5152 240.1802 326.1655 H              1 RES1               0.0000
     27 H27        114.5075 242.9843 319.6176 H              1 RES1               0.0000
     28 H28        116.5756 245.2330 322.5918 H              1 RES1               0.0000
     29 H29        116.1687 244.7032 320.2195 H              1 RES1               0.0000
@<TRIPOS>BOND
    1    1    2 1     
    2    1    3 1     
    3    1    4 1     
    4    1    5 1     
    5    2    6 ar    
    6    2    7 ar    
    7    3    8 1     
    8    3    9 2     
    9    4   10 1     
   10    4   11 2     
   11    5   12 1     
   12    5   18 1     
   13    5   19 1     
   14    6   13 ar    
   15    6   20 1     
   16    7   14 ar    
   17    7   21 1     
   18    8   15 1     
   19    8   22 1     
   20   10   15 1     
   21   10   23 1     
   22   12   24 1     
   23   12   25 1     
   24   12   26 1     
   25   13   16 ar    
   26   13   27 1     
   27   14   16 ar    
   28   14   28 1     
   29   15   17 2     
   30   16   29 1     
@<TRIPOS>SUBSTRUCTURE
      1 RES1           1
@<TRIPOS>SET
DONOR_HYDROGENS      STATIC     ATOMS    <user>   **** ""
2 22 23
ATOM$RED        STATIC     ATOMS    COLORGROUP SYSTEM
2 22 23
@<TRIPOS>COMMENT
> <Gold.Version>
2022.3.0

> <Gold.Id.Protein>
unknown|4uh5_clean|pdb

> <Gold.Protein.RotatedTorsions>
[ 8487 8482 8483 8484 ] final  -93.69 input   34.95 | X-H torsion
[ 8511 8504 8505 8506 ] final   67.60 input  102.00 | X-H torsion
[ 9055 9051 9052 9053 ] final -101.16 input   39.76 | X-H torsion
[ 9089 9075 9076 9077 ] final  -99.31 input   37.88 | X-H torsion
[ 9133 9121 9122 9123 ] final  -90.96 input   94.46 | X-H torsion
[ 9141 9132 9131 9129 ] final    3.55 input   60.01 | X-H torsion
[ 9170 9159 9160 9161 ] final -130.04 input   86.63 | X-H torsion
[ 9251 9236 9237 9238 ] final -168.01 input  127.08 | X-H torsion
[ 3623 3616 3617 3618 ] final   77.26 input   94.27 | X-H torsion
[ 3649 3645 3646 3647 ] final -159.40 input   86.49 | X-H torsion
[ 9037 9031 9032 9033 ] final -124.03 input   26.45 | X-H torsion
[ 9196 9189 9190 9191 ] final    1.82 input  130.40 | X-H torsion
[ 4943 4938 4937 4934 ] final -172.35 input   60.00 | X-H torsion
[ 9041 9036 9035 9032 ] final  114.27 input   59.99 | X-H torsion
[ 9007 8996 8997 8998 ] final    6.17 input   49.09 | X-H torsion
[ 8541 8535 8536 8537 ] final  -27.25 input   50.11 | X-H torsion
[ 4959 4954 4955 4956 ] final -128.43 input   27.83 | X-H torsion
[ 8387 8378 8377 8375 ] final  175.13 input   59.99 | X-H torsion
[ 5633 5624 5625 5626 ] final  -29.53 input   44.71 | X-H torsion
[ 5606 5601 5600 5597 ] final  -81.18 input   59.98 | X-H torsion
[ 5665 5657 5658 5659 ] final  -36.06 input  114.33 | X-H torsion
[ 5703 5695 5696 5697 ] final   35.87 input   57.04 | X-H torsion
[ 5747 5736 5737 5738 ] final  116.28 input   30.88 | X-H torsion
[ 5797 5785 5786 5787 ] final -126.43 input   92.04 | X-H torsion
[ 9409 9397 9398 9399 ] final -172.09 input  123.68 | X-H torsion
[ 9376 9352 9353 9354 ] final   -9.57 input  105.06 | X-H torsion
[ 11109 11102 11103 11104 ] final -158.64 input   57.11 | X-H torsion
[ 8379 8367 8368 8369 ] final   64.88 input   85.33 | X-H torsion
[ 5602 5596 5597 5598 ] final   49.35 input  106.64 | X-H torsion
[ 13518 8422 8421 8420 ] final   -6.70 input    0.00 | X-H torsion
[ 13521 8459 8458 8457 ] final    8.05 input   -0.00 | X-H torsion
[ 13525 8999 8998 8997 ] final  -24.93 input   -0.00 | X-H torsion
[ 13528 9054 9053 9052 ] final   42.79 input   -0.00 | X-H torsion
[ 13531 9078 9077 9076 ] final  175.50 input    0.00 | X-H torsion
[ 13534 9124 9123 9122 ] final  156.54 input   -0.00 | X-H torsion
[ 13539 9162 9161 9160 ] final  -41.41 input   -0.00 | X-H torsion
[ 13553 9034 9033 9032 ] final   59.44 input    0.00 | X-H torsion
[ 13555 8404 8403 8402 ] final   64.72 input    0.00 | X-H torsion
[ 13562 8485 8484 8483 ] final   -9.91 input    0.00 | X-H torsion
[ 13564 8507 8506 8505 ] final  173.34 input   -0.00 | X-H torsion
[ 13571 4957 4956 4955 ] final   -6.04 input   -0.00 | X-H torsion
[ 13573 5599 5598 5597 ] final -135.06 input   -0.00 | X-H torsion
[ 13582 5698 5697 5696 ] final -114.80 input   -0.00 | X-H torsion
[ 13584 9239 9238 9237 ] final   70.06 input    0.00 | X-H torsion
[ 13588 5627 5626 5625 ] final  112.49 input    0.00 | X-H torsion
[ 13596 8370 8369 8368 ] final  -88.13 input   -0.00 | X-H torsion
[ 13601 9355 9354 9353 ] final   41.64 input   -0.00 | X-H torsion
[ 13603 9400 9399 9398 ] final  -26.10 input   -0.00 | X-H torsion

> <Gold.Protein.ActiveResidues>
 MET341  TRP414  CYS420  VAL421  GLY422  LEU429  LEU460  SER462  ALA463  ILE464 
 SER482  GLN483  LEU484  ILE485  ARG486  TYR487  ASP500  ALA502  ASN503  TRP566 
 TYR567  GLY568  LEU569  PRO570  ALA571  VAL572  SER573  ASN574  PRO588  PHE589 
 SER590  GLY591  TRP592  TYR593  MET594  GLY595  GLU597  ILE598  ARG601  ASP602 
 ASP605  ARG608  ILE653  VAL654  TRP683  PRO687  PHE696  HIS697  TYR711  HEM750 
 H4B760 

> <Gold.Protein.RotatedAtoms>
  122.2525  248.4451  327.3132 H   0  0  0  0  0  0  0  0  0  0  0  0  # atno 3623 bound_to 3616
  124.4643  247.6733  326.7423 H   0  0  0  0  0  0  0  0  0  0  0  0  # atno 3649 bound_to 3645
  126.0346  247.6179  317.4348 H   0  0  0  0  0  0  0  0  0  0  0  0  # atno 4943 bound_to 4938
  124.0409  247.9600  313.4633 H   0  0  0  0  0  0  0  0  0  0  0  0  # atno 4959 bound_to 4954
  106.7740  244.9257  316.7905 H   0  0  0  0  0  0  0  0  0  0  0  0  # atno 5602 bound_to 5596
  105.8812  244.6514  319.1308 H   0  0  0  0  0  0  0  0  0  0  0  0  # atno 5606 bound_to 5601
  108.5295  245.1904  316.5800 H   0  0  0  0  0  0  0  0  0  0  0  0  # atno 5633 bound_to 5624
  110.8935  243.4174  315.5494 H   0  0  0  0  0  0  0  0  0  0  0  0  # atno 5665 bound_to 5657
  111.9618  241.5956  315.2842 H   0  0  0  0  0  0  0  0  0  0  0  0  # atno 5703 bound_to 5695
  109.4477  239.5947  315.5726 H   0  0  0  0  0  0  0  0  0  0  0  0  # atno 5747 bound_to 5736
  108.5170  236.5286  317.2129 H   0  0  0  0  0  0  0  0  0  0  0  0  # atno 5797 bound_to 5785
  114.8446  234.3238  319.0003 H   0  0  0  0  0  0  0  0  0  0  0  0  # atno 8379 bound_to 8367
  112.6566  239.4645  320.2580 H   0  0  0  0  0  0  0  0  0  0  0  0  # atno 8387 bound_to 8378
  116.4757  243.6552  318.1447 H   0  0  0  0  0  0  0  0  0  0  0  0  # atno 8487 bound_to 8482
  115.6407  247.0858  317.1615 H   0  0  0  0  0  0  0  0  0  0  0  0  # atno 8511 bound_to 8504
  111.7674  248.7469  317.4473 H   0  0  0  0  0  0  0  0  0  0  0  0  # atno 8541 bound_to 8535
  115.5745  248.9052  314.8051 H   0  0  0  0  0  0  0  0  0  0  0  0  # atno 9007 bound_to 8996
  118.3770  248.1805  315.8453 H   0  0  0  0  0  0  0  0  0  0  0  0  # atno 9037 bound_to 9031
  120.4315  244.3604  313.7035 H   0  0  0  0  0  0  0  0  0  0  0  0  # atno 9041 bound_to 9036
  120.9104  245.4062  316.1492 H   0  0  0  0  0  0  0  0  0  0  0  0  # atno 9055 bound_to 9051
  122.1711  243.3424  318.4320 H   0  0  0  0  0  0  0  0  0  0  0  0  # atno 9089 bound_to 9075
  122.4229  241.1151  320.8125 H   0  0  0  0  0  0  0  0  0  0  0  0  # atno 9133 bound_to 9121
  114.8753  239.7003  321.9793 H   0  0  0  0  0  0  0  0  0  0  0  0  # atno 9141 bound_to 9132
  122.6498  240.3936  323.9449 H   0  0  0  0  0  0  0  0  0  0  0  0  # atno 9170 bound_to 9159
  122.0145  238.4783  327.3229 H   0  0  0  0  0  0  0  0  0  0  0  0  # atno 9196 bound_to 9189
  118.8234  239.3845  328.8195 H   0  0  0  0  0  0  0  0  0  0  0  0  # atno 9251 bound_to 9236
  114.0747  236.3385  330.5146 H   0  0  0  0  0  0  0  0  0  0  0  0  # atno 9376 bound_to 9352
  112.5173  237.9469  328.0534 H   0  0  0  0  0  0  0  0  0  0  0  0  # atno 9409 bound_to 9397
  126.7135  237.9198  323.2839 H   0  0  0  0  0  0  0  0  0  0  0  0  # atno 11109 bound_to 11102
  115.9724  239.5049  315.6102 LP  0  0  0  0  0  0  0  0  0  0  0  0  # atno 13518 bound_to 8422
  115.6572  240.4595  317.0207 LP  0  0  0  0  0  0  0  0  0  0  0  0  # atno 13519 bound_to 8422
  119.0225  243.4269  317.7417 LP  0  0  0  0  0  0  0  0  0  0  0  0  # atno 13521 bound_to 8459
  118.0632  244.7696  317.2152 LP  0  0  0  0  0  0  0  0  0  0  0  0  # atno 13522 bound_to 8459
  115.4411  242.7147  317.0982 LP  0  0  0  0  0  0  0  0  0  0  0  0  # atno 13523 bound_to 8482
  114.6551  245.6588  317.3785 LP  0  0  0  0  0  0  0  0  0  0  0  0  # atno 13524 bound_to 8504
  116.2260  248.1313  316.5260 LP  0  0  0  0  0  0  0  0  0  0  0  0  # atno 13525 bound_to 8999
  116.9907  246.5950  316.2911 LP  0  0  0  0  0  0  0  0  0  0  0  0  # atno 13526 bound_to 8999
  120.2694  245.1665  317.7606 LP  0  0  0  0  0  0  0  0  0  0  0  0  # atno 13527 bound_to 9051
  122.6750  242.8793  315.8814 LP  0  0  0  0  0  0  0  0  0  0  0  0  # atno 13528 bound_to 9054
  121.8606  241.7842  316.9480 LP  0  0  0  0  0  0  0  0  0  0  0  0  # atno 13529 bound_to 9054
  123.7243  243.5792  319.2001 LP  0  0  0  0  0  0  0  0  0  0  0  0  # atno 13530 bound_to 9075
  122.1772  242.2485  322.3974 LP  0  0  0  0  0  0  0  0  0  0  0  0  # atno 13531 bound_to 9078
  122.8215  243.2550  321.1437 LP  0  0  0  0  0  0  0  0  0  0  0  0  # atno 13532 bound_to 9078
  122.6187  239.3966  320.5514 LP  0  0  0  0  0  0  0  0  0  0  0  0  # atno 13533 bound_to 9121
  124.3516  239.5533  324.1645 LP  0  0  0  0  0  0  0  0  0  0  0  0  # atno 13534 bound_to 9124
  123.8557  238.6710  322.7589 LP  0  0  0  0  0  0  0  0  0  0  0  0  # atno 13535 bound_to 9124
  114.8697  238.2227  321.2987 LP  0  0  0  0  0  0  0  0  0  0  0  0  # atno 13536 bound_to 9132
  115.1547  239.5452  320.3841 LP  0  0  0  0  0  0  0  0  0  0  0  0  # atno 13537 bound_to 9132
  121.0372  240.4223  324.6190 LP  0  0  0  0  0  0  0  0  0  0  0  0  # atno 13538 bound_to 9159
  120.0055  239.5787  326.6878 LP  0  0  0  0  0  0  0  0  0  0  0  0  # atno 13539 bound_to 9162
  119.9545  237.9455  326.1132 LP  0  0  0  0  0  0  0  0  0  0  0  0  # atno 13540 bound_to 9162
  118.4224  237.7396  328.3830 LP  0  0  0  0  0  0  0  0  0  0  0  0  # atno 13541 bound_to 9236
  122.6335  250.0986  327.7395 LP  0  0  0  0  0  0  0  0  0  0  0  0  # atno 13550 bound_to 3616
  124.4484  249.2913  326.0884 LP  0  0  0  0  0  0  0  0  0  0  0  0  # atno 13551 bound_to 3645
  119.6295  247.9948  314.6460 LP  0  0  0  0  0  0  0  0  0  0  0  0  # atno 13552 bound_to 9031
  121.5812  247.8532  315.8156 LP  0  0  0  0  0  0  0  0  0  0  0  0  # atno 13553 bound_to 9034
  122.3950  246.4547  315.1976 LP  0  0  0  0  0  0  0  0  0  0  0  0  # atno 13554 bound_to 9034
  121.2261  237.7073  317.1089 LP  0  0  0  0  0  0  0  0  0  0  0  0  # atno 13555 bound_to 8404
  120.0262  238.4687  318.0991 LP  0  0  0  0  0  0  0  0  0  0  0  0  # atno 13556 bound_to 8404
  123.1521  237.6244  326.3026 LP  0  0  0  0  0  0  0  0  0  0  0  0  # atno 13557 bound_to 9189
  126.5897  246.4466  316.4514 LP  0  0  0  0  0  0  0  0  0  0  0  0  # atno 13558 bound_to 4938
  125.0538  246.3935  317.0034 LP  0  0  0  0  0  0  0  0  0  0  0  0  # atno 13559 bound_to 4938
  120.6315  245.9677  313.8597 LP  0  0  0  0  0  0  0  0  0  0  0  0  # atno 13560 bound_to 9036
  119.5046  245.3780  312.8356 LP  0  0  0  0  0  0  0  0  0  0  0  0  # atno 13561 bound_to 9036
  113.3642  244.4690  315.6348 LP  0  0  0  0  0  0  0  0  0  0  0  0  # atno 13562 bound_to 8485
  112.6203  245.6725  316.6338 LP  0  0  0  0  0  0  0  0  0  0  0  0  # atno 13563 bound_to 8485
  113.5552  249.4987  315.2141 LP  0  0  0  0  0  0  0  0  0  0  0  0  # atno 13564 bound_to 8507
  114.8701  249.0939  316.2663 LP  0  0  0  0  0  0  0  0  0  0  0  0  # atno 13565 bound_to 8507
  115.9304  250.3716  313.9235 LP  0  0  0  0  0  0  0  0  0  0  0  0  # atno 13566 bound_to 8996
  112.2719  247.4390  316.4087 LP  0  0  0  0  0  0  0  0  0  0  0  0  # atno 13567 bound_to 8535
  122.4677  247.2352  313.6828 LP  0  0  0  0  0  0  0  0  0  0  0  0  # atno 13570 bound_to 4954
  120.7428  248.1293  313.7549 LP  0  0  0  0  0  0  0  0  0  0  0  0  # atno 13571 bound_to 4957
  119.7734  249.5441  313.5130 LP  0  0  0  0  0  0  0  0  0  0  0  0  # atno 13572 bound_to 4957
  110.6465  247.0742  317.4309 LP  0  0  0  0  0  0  0  0  0  0  0  0  # atno 13573 bound_to 5599
  109.8373  247.5041  318.9007 LP  0  0  0  0  0  0  0  0  0  0  0  0  # atno 13574 bound_to 5599
  111.9521  238.1681  320.9442 LP  0  0  0  0  0  0  0  0  0  0  0  0  # atno 13575 bound_to 8378
  111.2211  238.9365  319.7025 LP  0  0  0  0  0  0  0  0  0  0  0  0  # atno 13576 bound_to 8378
  108.9383  245.0571  318.2764 LP  0  0  0  0  0  0  0  0  0  0  0  0  # atno 13581 bound_to 5624
  111.7786  238.9564  317.6800 LP  0  0  0  0  0  0  0  0  0  0  0  0  # atno 13582 bound_to 5698
  111.5539  240.6206  317.2558 LP  0  0  0  0  0  0  0  0  0  0  0  0  # atno 13583 bound_to 5698
  114.3832  238.7364  326.7866 LP  0  0  0  0  0  0  0  0  0  0  0  0  # atno 13584 bound_to 9239
  114.4404  237.6105  328.1016 LP  0  0  0  0  0  0  0  0  0  0  0  0  # atno 13585 bound_to 9239
  106.7831  244.6388  320.4851 LP  0  0  0  0  0  0  0  0  0  0  0  0  # atno 13586 bound_to 5601
  107.4796  244.3624  319.0342 LP  0  0  0  0  0  0  0  0  0  0  0  0  # atno 13587 bound_to 5601
  108.8329  243.6182  314.5217 LP  0  0  0  0  0  0  0  0  0  0  0  0  # atno 13588 bound_to 5627
  109.0427  242.4555  315.7883 LP  0  0  0  0  0  0  0  0  0  0  0  0  # atno 13589 bound_to 5627
  112.1504  244.5029  315.0116 LP  0  0  0  0  0  0  0  0  0  0  0  0  # atno 13590 bound_to 5657
  111.5348  241.4799  313.5934 LP  0  0  0  0  0  0  0  0  0  0  0  0  # atno 13591 bound_to 5695
  110.3587  238.0986  315.6204 LP  0  0  0  0  0  0  0  0  0  0  0  0  # atno 13592 bound_to 5736
  107.8671  236.7536  318.8161 LP  0  0  0  0  0  0  0  0  0  0  0  0  # atno 13593 bound_to 5785
  116.9025  236.4498  318.8113 LP  0  0  0  0  0  0  0  0  0  0  0  0  # atno 13596 bound_to 8370
  117.6397  234.9677  319.3212 LP  0  0  0  0  0  0  0  0  0  0  0  0  # atno 13597 bound_to 8370
  112.5424  236.5382  329.0840 LP  0  0  0  0  0  0  0  0  0  0  0  0  # atno 13598 bound_to 9397
  110.1267  237.5625  330.4241 LP  0  0  0  0  0  0  0  0  0  0  0  0  # atno 13601 bound_to 9355
  110.3178  236.0244  329.6511 LP  0  0  0  0  0  0  0  0  0  0  0  0  # atno 13602 bound_to 9355
  108.9840  235.2469  327.4943 LP  0  0  0  0  0  0  0  0  0  0  0  0  # atno 13603 bound_to 9400
  109.4778  233.5892  327.5854 LP  0  0  0  0  0  0  0  0  0  0  0  0  # atno 13604 bound_to 9400
  114.7208  237.7826  331.2568 LP  0  0  0  0  0  0  0  0  0  0  0  0  # atno 13608 bound_to 9352

> <Gold.Score>
     Fitness  S(hb_ext) S(vdw_ext)  S(hb_int)    S(int)      intcor
     39.40       0.68      28.25       0.00      -0.12      -0.77

> <Gold.Goldscore.Fitness>
39.4026

> <Gold.Goldscore.Internal.Vdw>
-0.3237

> <Gold.Goldscore.Internal.Torsion>
-0.5631

> <Gold.Goldscore.External.Vdw>
28.2511

> <Gold.Goldscore.Internal.HBond>
0.0000

> <Gold.Goldscore.External.HBond>
0.6755

> <Gold.Goldscore.Internal.Correction>
-0.7686

> <Gold.Goldscore.Hbonds>
donor molecule, donor type, donor heavy atom, donor atom, acceptor molecule, acceptor atom, score
      P1  H  9132  9141       L1    11  0.34

> <Gold.Goldscore.Internal.Vdw.Weighted>
-0.3237

> <Gold.Goldscore.Internal.Torsion.Weighted>
-0.5631

> <Gold.Goldscore.External.Vdw.Weighted>
38.8453

> <Gold.Goldscore.Internal.HBond.Weighted>
0.0000

> <Gold.Goldscore.External.HBond.Weighted>
0.6755

> <Gold.Goldscore.Internal.Correction.Weighted>
-0.7686

> <Gold.Rescore>
     Score     S(PLP)   S(hbond)     S(cho)   S(metal)  DE(clash)   DE(tors)     intcor
     31.60     -29.91       1.25       0.00       0.00       0.00       1.03       ----

> <Gold.PLP.Fitness>
31.6027

> <Gold.PLP.PLP>
-29.9097

> <Gold.PLP.part.hbond>
-5.2496

> <Gold.PLP.part.metal>
0.0000

> <Gold.PLP.part.buried>
0.4877

> <Gold.PLP.part.nonpolar>
-26.4971

> <Gold.PLP.part.repulsive>
1.3668

> <Gold.PLP.ligand.clash>
0.0000

> <Gold.PLP.ligand.torsion>
1.0326

> <Gold.PLP.Chemscore.Hbond>
1.2527

> <Gold.PLP.Chemscore.CHOScore>
0.0000

> <Gold.PLP.Chemscore.Metal>
0.0000

> <Gold.Chemscore.Hbonds>
donor molecule, donor type, donor heavy atom, donor atom, acceptor molecule, acceptor atom, score
      P1  H  9132  9141       L1    11  1.00

> <Gold.PLP.Chemscore.Internal.Correction>
   9.000000E+99

