#       Name:                CT1002167954
#       Creating user name   hitesit
#       Creation time:       Sun Apr 16 22:52:02 2023


#       File generated by GOLD software.
#

@<TRIPOS>MOLECULE
CT1002167954|ligand_prepared|mol2|1|dock2
    29    30     1
SMALL
NO_CHARGES


@<TRIPOS>ATOM
      1 C1         113.1626 242.3392 323.5168 C.3            1 RES1               0.0000
      2 C2         114.2467 243.1658 322.7955 C.ar           1 RES1               0.0000
      3 C3         113.7075 240.9179 323.6230 C.2            1 RES1               0.0000
      4 C4         112.9321 243.0192 324.8619 C.2            1 RES1               0.0000
      5 C5         111.8107 242.2923 322.7673 C.3            1 RES1               0.0000
      6 C6         115.1182 243.9754 323.5179 C.ar           1 RES1               0.0000
      7 C7         114.3889 243.1272 321.4110 C.ar           1 RES1               0.0000
      8 N8         114.1320 240.4938 324.8476 N.am           1 RES1               0.0000
      9 O9         113.8000 240.1939 322.6393 O.2            1 RES1               0.0000
     10 N10        113.2753 242.3313 325.9963 N.am           1 RES1               0.0000
     11 O11        112.4719 244.1510 324.9489 O.2            1 RES1               0.0000
     12 C12        110.6939 241.6296 323.5582 C.3            1 RES1               0.0000
     13 C13        116.0984 244.7171 322.8797 C.ar           1 RES1               0.0000
     14 C14        115.3697 243.8700 320.7747 C.ar           1 RES1               0.0000
     15 C15        113.8933 241.1117 326.0489 C.2            1 RES1               0.0000
     16 C16        116.2251 244.6647 321.5079 C.ar           1 RES1               0.0000
     17 O17        114.2201 240.5814 327.1067 O.2            1 RES1               0.0000
     18 H18        111.5082 243.3174 322.5202 H              1 RES1               0.0000
     19 H19        111.9479 241.7470 321.8254 H              1 RES1               0.0000
     20 H20        115.0321 244.0313 324.5979 H              1 RES1               0.0000
     21 H21        113.7264 242.5099 320.8138 H              1 RES1               0.0000
     22 H22        114.6775 239.6381 324.8726 H              1 RES1               0.0000
     23 H23        113.0490 242.7690 326.8837 H              1 RES1               0.0000
     24 H24        109.7680 241.6231 322.9869 H              1 RES1               0.0000
     25 H25        110.9504 240.6001 323.7995 H              1 RES1               0.0000
     26 H26        110.5133 242.1612 324.4902 H              1 RES1               0.0000
     27 H27        116.7682 245.3420 323.4611 H              1 RES1               0.0000
     28 H28        115.4653 243.8261 319.6948 H              1 RES1               0.0000
     29 H29        116.9932 245.2456 321.0082 H              1 RES1               0.0000
@<TRIPOS>BOND
    1    1    2 1     
    2    1    3 1     
    3    1    4 1     
    4    1    5 1     
    5    2    6 ar    
    6    2    7 ar    
    7    3    8 1     
    8    3    9 2     
    9    4   10 1     
   10    4   11 2     
   11    5   12 1     
   12    5   18 1     
   13    5   19 1     
   14    6   13 ar    
   15    6   20 1     
   16    7   14 ar    
   17    7   21 1     
   18    8   15 1     
   19    8   22 1     
   20   10   15 1     
   21   10   23 1     
   22   12   24 1     
   23   12   25 1     
   24   12   26 1     
   25   13   16 ar    
   26   13   27 1     
   27   14   16 ar    
   28   14   28 1     
   29   15   17 2     
   30   16   29 1     
@<TRIPOS>SUBSTRUCTURE
      1 RES1           1
@<TRIPOS>SET
DONOR_HYDROGENS      STATIC     ATOMS    <user>   **** ""
2 22 23
ATOM$RED        STATIC     ATOMS    COLORGROUP SYSTEM
2 22 23
@<TRIPOS>COMMENT
> <Gold.Version>
2022.3.0

> <Gold.Id.Protein>
unknown|4uh5_clean|pdb

> <Gold.Protein.RotatedTorsions>
[ 8487 8482 8483 8484 ] final  170.12 input   34.95 | X-H torsion
[ 8511 8504 8505 8506 ] final -134.39 input  102.00 | X-H torsion
[ 9055 9051 9052 9053 ] final -114.54 input   39.76 | X-H torsion
[ 9089 9075 9076 9077 ] final  -53.00 input   37.88 | X-H torsion
[ 9133 9121 9122 9123 ] final  147.04 input   94.46 | X-H torsion
[ 9141 9132 9131 9129 ] final  120.72 input   60.01 | X-H torsion
[ 9170 9159 9160 9161 ] final   57.60 input   86.63 | X-H torsion
[ 9251 9236 9237 9238 ] final  -24.28 input  127.08 | X-H torsion
[ 3623 3616 3617 3618 ] final  -78.23 input   94.27 | X-H torsion
[ 3649 3645 3646 3647 ] final   14.68 input   86.49 | X-H torsion
[ 9037 9031 9032 9033 ] final   74.75 input   26.45 | X-H torsion
[ 9196 9189 9190 9191 ] final   69.08 input  130.40 | X-H torsion
[ 4943 4938 4937 4934 ] final  -81.28 input   60.00 | X-H torsion
[ 9041 9036 9035 9032 ] final   18.53 input   59.99 | X-H torsion
[ 9007 8996 8997 8998 ] final  156.64 input   49.09 | X-H torsion
[ 8541 8535 8536 8537 ] final   53.77 input   50.11 | X-H torsion
[ 4959 4954 4955 4956 ] final   -2.49 input   27.83 | X-H torsion
[ 8387 8378 8377 8375 ] final  161.13 input   59.99 | X-H torsion
[ 5633 5624 5625 5626 ] final   -5.87 input   44.71 | X-H torsion
[ 5606 5601 5600 5597 ] final -136.39 input   59.98 | X-H torsion
[ 5665 5657 5658 5659 ] final   88.17 input  114.33 | X-H torsion
[ 5703 5695 5696 5697 ] final  142.09 input   57.04 | X-H torsion
[ 5747 5736 5737 5738 ] final  -31.92 input   30.88 | X-H torsion
[ 5797 5785 5786 5787 ] final -122.62 input   92.04 | X-H torsion
[ 9409 9397 9398 9399 ] final -114.31 input  123.68 | X-H torsion
[ 9376 9352 9353 9354 ] final  -24.94 input  105.06 | X-H torsion
[ 11109 11102 11103 11104 ] final  -68.25 input   57.11 | X-H torsion
[ 8379 8367 8368 8369 ] final  171.25 input   85.33 | X-H torsion
[ 5602 5596 5597 5598 ] final   94.34 input  106.64 | X-H torsion
[ 13518 8422 8421 8420 ] final   40.26 input    0.00 | X-H torsion
[ 13521 8459 8458 8457 ] final -131.80 input   -0.00 | X-H torsion
[ 13525 8999 8998 8997 ] final -170.53 input   -0.00 | X-H torsion
[ 13528 9054 9053 9052 ] final  -20.98 input   -0.00 | X-H torsion
[ 13531 9078 9077 9076 ] final   20.20 input    0.00 | X-H torsion
[ 13534 9124 9123 9122 ] final  121.42 input   -0.00 | X-H torsion
[ 13539 9162 9161 9160 ] final  178.45 input   -0.00 | X-H torsion
[ 13553 9034 9033 9032 ] final  174.68 input    0.00 | X-H torsion
[ 13555 8404 8403 8402 ] final   -2.85 input    0.00 | X-H torsion
[ 13562 8485 8484 8483 ] final  153.31 input    0.00 | X-H torsion
[ 13564 8507 8506 8505 ] final -177.78 input   -0.00 | X-H torsion
[ 13571 4957 4956 4955 ] final -145.09 input   -0.00 | X-H torsion
[ 13573 5599 5598 5597 ] final   55.90 input   -0.00 | X-H torsion
[ 13582 5698 5697 5696 ] final   43.14 input   -0.00 | X-H torsion
[ 13584 9239 9238 9237 ] final  -36.50 input    0.00 | X-H torsion
[ 13588 5627 5626 5625 ] final   13.21 input    0.00 | X-H torsion
[ 13596 8370 8369 8368 ] final   77.75 input   -0.00 | X-H torsion
[ 13601 9355 9354 9353 ] final -133.14 input   -0.00 | X-H torsion
[ 13603 9400 9399 9398 ] final  -85.40 input   -0.00 | X-H torsion

> <Gold.Protein.ActiveResidues>
 MET341  TRP414  CYS420  VAL421  GLY422  LEU429  LEU460  SER462  ALA463  ILE464 
 SER482  GLN483  LEU484  ILE485  ARG486  TYR487  ASP500  ALA502  ASN503  TRP566 
 TYR567  GLY568  LEU569  PRO570  ALA571  VAL572  SER573  ASN574  PRO588  PHE589 
 SER590  GLY591  TRP592  TYR593  MET594  GLY595  GLU597  ILE598  ARG601  ASP602 
 ASP605  ARG608  ILE653  VAL654  TRP683  PRO687  PHE696  HIS697  TYR711  HEM750 
 H4B760 

> <Gold.Protein.RotatedAtoms>
  122.8118  250.0853  327.4126 H   0  0  0  0  0  0  0  0  0  0  0  0  # atno 3623 bound_to 3616
  124.5163  249.3234  326.1404 H   0  0  0  0  0  0  0  0  0  0  0  0  # atno 3649 bound_to 3645
  125.0099  246.7766  317.2709 H   0  0  0  0  0  0  0  0  0  0  0  0  # atno 4943 bound_to 4938
  122.5925  247.9186  314.0666 H   0  0  0  0  0  0  0  0  0  0  0  0  # atno 4959 bound_to 4954
  106.2209  245.0491  317.1615 H   0  0  0  0  0  0  0  0  0  0  0  0  # atno 5602 bound_to 5596
  105.9104  244.7390  319.9933 H   0  0  0  0  0  0  0  0  0  0  0  0  # atno 5606 bound_to 5601
  108.4337  244.8467  316.6531 H   0  0  0  0  0  0  0  0  0  0  0  0  # atno 5633 bound_to 5624
  112.3868  243.7766  315.3006 H   0  0  0  0  0  0  0  0  0  0  0  0  # atno 5665 bound_to 5657
  112.4983  241.3726  313.9949 H   0  0  0  0  0  0  0  0  0  0  0  0  # atno 5703 bound_to 5695
  109.9613  237.9660  315.3818 H   0  0  0  0  0  0  0  0  0  0  0  0  # atno 5747 bound_to 5736
  108.4759  236.5650  317.1932 H   0  0  0  0  0  0  0  0  0  0  0  0  # atno 5797 bound_to 5785
  114.2639  233.3229  318.1913 H   0  0  0  0  0  0  0  0  0  0  0  0  # atno 8379 bound_to 8367
  112.7369  239.3399  320.4315 H   0  0  0  0  0  0  0  0  0  0  0  0  # atno 8387 bound_to 8378
  116.5989  242.8565  317.1107 H   0  0  0  0  0  0  0  0  0  0  0  0  # atno 8487 bound_to 8482
  114.7783  245.6728  317.6889 H   0  0  0  0  0  0  0  0  0  0  0  0  # atno 8511 bound_to 8504
  111.2259  247.7898  317.1452 H   0  0  0  0  0  0  0  0  0  0  0  0  # atno 8541 bound_to 8535
  115.8535  250.5251  314.3350 H   0  0  0  0  0  0  0  0  0  0  0  0  # atno 9007 bound_to 8996
  119.4110  247.9107  314.4836 H   0  0  0  0  0  0  0  0  0  0  0  0  # atno 9037 bound_to 9031
  120.8075  245.6568  314.0284 H   0  0  0  0  0  0  0  0  0  0  0  0  # atno 9041 bound_to 9036
  120.9297  245.6028  316.2124 H   0  0  0  0  0  0  0  0  0  0  0  0  # atno 9055 bound_to 9051
  122.1211  243.4932  319.1105 H   0  0  0  0  0  0  0  0  0  0  0  0  # atno 9089 bound_to 9075
  121.9114  239.7600  320.2554 H   0  0  0  0  0  0  0  0  0  0  0  0  # atno 9133 bound_to 9121
  115.1560  239.5835  320.4113 H   0  0  0  0  0  0  0  0  0  0  0  0  # atno 9141 bound_to 9132
  121.0417  240.5331  324.6618 H   0  0  0  0  0  0  0  0  0  0  0  0  # atno 9170 bound_to 9159
  122.8685  238.1079  327.6482 H   0  0  0  0  0  0  0  0  0  0  0  0  # atno 9196 bound_to 9189
  118.1607  237.8365  328.8509 H   0  0  0  0  0  0  0  0  0  0  0  0  # atno 9251 bound_to 9236
  113.9918  236.3017  330.7328 H   0  0  0  0  0  0  0  0  0  0  0  0  # atno 9376 bound_to 9352
  111.9217  237.8675  328.6554 H   0  0  0  0  0  0  0  0  0  0  0  0  # atno 9409 bound_to 9397
  126.1590  237.0842  324.0328 H   0  0  0  0  0  0  0  0  0  0  0  0  # atno 11109 bound_to 11102
  115.8951  239.1299  316.1844 LP  0  0  0  0  0  0  0  0  0  0  0  0  # atno 13518 bound_to 8422
  115.7345  240.8344  316.4465 LP  0  0  0  0  0  0  0  0  0  0  0  0  # atno 13519 bound_to 8422
  118.1371  244.7903  317.8047 LP  0  0  0  0  0  0  0  0  0  0  0  0  # atno 13521 bound_to 8459
  118.9486  243.4062  317.1522 LP  0  0  0  0  0  0  0  0  0  0  0  0  # atno 13522 bound_to 8459
  115.3202  243.4981  318.1124 LP  0  0  0  0  0  0  0  0  0  0  0  0  # atno 13523 bound_to 8482
  115.4961  247.0365  316.8642 LP  0  0  0  0  0  0  0  0  0  0  0  0  # atno 13524 bound_to 8504
  117.1768  246.7920  316.7258 LP  0  0  0  0  0  0  0  0  0  0  0  0  # atno 13525 bound_to 8999
  116.0399  247.9343  316.0913 LP  0  0  0  0  0  0  0  0  0  0  0  0  # atno 13526 bound_to 8999
  120.2508  244.9765  317.6996 LP  0  0  0  0  0  0  0  0  0  0  0  0  # atno 13527 bound_to 9051
  121.7754  242.9363  316.0377 LP  0  0  0  0  0  0  0  0  0  0  0  0  # atno 13528 bound_to 9054
  122.7601  241.7272  316.7917 LP  0  0  0  0  0  0  0  0  0  0  0  0  # atno 13529 bound_to 9054
  123.7730  243.4324  318.5396 LP  0  0  0  0  0  0  0  0  0  0  0  0  # atno 13530 bound_to 9075
  122.4567  243.2775  321.0837 LP  0  0  0  0  0  0  0  0  0  0  0  0  # atno 13531 bound_to 9078
  122.5420  242.2259  322.4574 LP  0  0  0  0  0  0  0  0  0  0  0  0  # atno 13532 bound_to 9078
  123.1155  240.7131  321.0927 LP  0  0  0  0  0  0  0  0  0  0  0  0  # atno 13533 bound_to 9121
  124.4475  239.8537  323.7478 LP  0  0  0  0  0  0  0  0  0  0  0  0  # atno 13534 bound_to 9124
  123.7598  238.3706  323.1756 LP  0  0  0  0  0  0  0  0  0  0  0  0  # atno 13535 bound_to 9124
  114.8637  239.6663  322.0095 LP  0  0  0  0  0  0  0  0  0  0  0  0  # atno 13536 bound_to 9132
  114.8779  238.2193  321.2529 LP  0  0  0  0  0  0  0  0  0  0  0  0  # atno 13537 bound_to 9132
  122.6052  240.2862  323.9201 LP  0  0  0  0  0  0  0  0  0  0  0  0  # atno 13538 bound_to 9159
  119.9294  237.9523  326.7031 LP  0  0  0  0  0  0  0  0  0  0  0  0  # atno 13539 bound_to 9162
  120.0306  239.5720  326.0979 LP  0  0  0  0  0  0  0  0  0  0  0  0  # atno 13540 bound_to 9162
  119.0673  239.2460  328.3525 LP  0  0  0  0  0  0  0  0  0  0  0  0  # atno 13541 bound_to 9236
  122.0910  248.5078  327.6431 LP  0  0  0  0  0  0  0  0  0  0  0  0  # atno 13550 bound_to 3616
  124.3972  247.6681  326.6804 LP  0  0  0  0  0  0  0  0  0  0  0  0  # atno 13551 bound_to 3645
  118.6078  248.2614  315.9915 LP  0  0  0  0  0  0  0  0  0  0  0  0  # atno 13552 bound_to 9031
  122.5908  246.8164  316.0289 LP  0  0  0  0  0  0  0  0  0  0  0  0  # atno 13553 bound_to 9034
  121.3853  247.4914  314.9843 LP  0  0  0  0  0  0  0  0  0  0  0  0  # atno 13554 bound_to 9034
  120.9071  237.3412  317.9406 LP  0  0  0  0  0  0  0  0  0  0  0  0  # atno 13555 bound_to 8404
  120.3451  238.8348  317.2674 LP  0  0  0  0  0  0  0  0  0  0  0  0  # atno 13556 bound_to 8404
  122.3269  237.9823  325.9882 LP  0  0  0  0  0  0  0  0  0  0  0  0  # atno 13557 bound_to 9189
  126.4473  247.5377  317.2264 LP  0  0  0  0  0  0  0  0  0  0  0  0  # atno 13558 bound_to 4938
  126.2286  246.1501  316.3936 LP  0  0  0  0  0  0  0  0  0  0  0  0  # atno 13559 bound_to 4938
  119.6119  245.7480  312.9283 LP  0  0  0  0  0  0  0  0  0  0  0  0  # atno 13560 bound_to 9036
  120.1454  244.2918  313.4397 LP  0  0  0  0  0  0  0  0  0  0  0  0  # atno 13561 bound_to 9036
  112.6161  245.4806  316.7980 LP  0  0  0  0  0  0  0  0  0  0  0  0  # atno 13562 bound_to 8485
  113.3684  244.6609  315.4705 LP  0  0  0  0  0  0  0  0  0  0  0  0  # atno 13563 bound_to 8485
  113.5363  249.6038  315.2952 LP  0  0  0  0  0  0  0  0  0  0  0  0  # atno 13564 bound_to 8507
  114.8890  248.9888  316.1852 LP  0  0  0  0  0  0  0  0  0  0  0  0  # atno 13565 bound_to 8507
  115.6578  248.7892  314.3827 LP  0  0  0  0  0  0  0  0  0  0  0  0  # atno 13566 bound_to 8996
  112.8066  248.3840  316.7070 LP  0  0  0  0  0  0  0  0  0  0  0  0  # atno 13567 bound_to 8535
  123.8897  247.2759  313.0905 LP  0  0  0  0  0  0  0  0  0  0  0  0  # atno 13570 bound_to 4954
  119.5698  249.0869  313.1716 LP  0  0  0  0  0  0  0  0  0  0  0  0  # atno 13571 bound_to 4957
  120.9463  248.5866  314.0962 LP  0  0  0  0  0  0  0  0  0  0  0  0  # atno 13572 bound_to 4957
  109.9248  247.3803  318.9665 LP  0  0  0  0  0  0  0  0  0  0  0  0  # atno 13573 bound_to 5599
  110.5590  247.1980  317.3651 LP  0  0  0  0  0  0  0  0  0  0  0  0  # atno 13574 bound_to 5599
  111.7508  238.1140  320.8474 LP  0  0  0  0  0  0  0  0  0  0  0  0  # atno 13575 bound_to 8378
  111.3416  239.1161  319.6246 LP  0  0  0  0  0  0  0  0  0  0  0  0  # atno 13576 bound_to 8378
  109.0311  245.3904  318.2055 LP  0  0  0  0  0  0  0  0  0  0  0  0  # atno 13581 bound_to 5624
  111.8461  240.5576  317.1126 LP  0  0  0  0  0  0  0  0  0  0  0  0  # atno 13582 bound_to 5698
  111.4864  239.0195  317.8232 LP  0  0  0  0  0  0  0  0  0  0  0  0  # atno 13583 bound_to 5698
  114.5185  238.6412  328.1651 LP  0  0  0  0  0  0  0  0  0  0  0  0  # atno 13584 bound_to 9239
  114.3051  237.7057  326.7231 LP  0  0  0  0  0  0  0  0  0  0  0  0  # atno 13585 bound_to 9239
  107.5136  244.4644  320.0387 LP  0  0  0  0  0  0  0  0  0  0  0  0  # atno 13586 bound_to 5601
  106.7197  244.4485  318.6118 LP  0  0  0  0  0  0  0  0  0  0  0  0  # atno 13587 bound_to 5601
  108.5316  243.4540  315.7961 LP  0  0  0  0  0  0  0  0  0  0  0  0  # atno 13588 bound_to 5627
  109.3440  242.6196  314.5140 LP  0  0  0  0  0  0  0  0  0  0  0  0  # atno 13589 bound_to 5627
  110.6820  244.1497  315.2562 LP  0  0  0  0  0  0  0  0  0  0  0  0  # atno 13590 bound_to 5657
  111.0108  241.6977  314.8527 LP  0  0  0  0  0  0  0  0  0  0  0  0  # atno 13591 bound_to 5695
  109.8651  239.6640  315.8037 LP  0  0  0  0  0  0  0  0  0  0  0  0  # atno 13592 bound_to 5736
  107.9078  236.7175  318.8355 LP  0  0  0  0  0  0  0  0  0  0  0  0  # atno 13593 bound_to 5785
  117.4388  234.9145  319.3678 LP  0  0  0  0  0  0  0  0  0  0  0  0  # atno 13596 bound_to 8370
  117.1035  236.5031  318.7647 LP  0  0  0  0  0  0  0  0  0  0  0  0  # atno 13597 bound_to 8370
  113.1280  236.6163  328.4922 LP  0  0  0  0  0  0  0  0  0  0  0  0  # atno 13598 bound_to 9397
  110.3493  235.9984  329.7185 LP  0  0  0  0  0  0  0  0  0  0  0  0  # atno 13601 bound_to 9355
  110.0952  237.5884  330.3567 LP  0  0  0  0  0  0  0  0  0  0  0  0  # atno 13602 bound_to 9355
  108.9821  234.8450  328.2511 LP  0  0  0  0  0  0  0  0  0  0  0  0  # atno 13603 bound_to 9400
  109.4797  233.9911  326.8286 LP  0  0  0  0  0  0  0  0  0  0  0  0  # atno 13604 bound_to 9400
  114.8018  237.8186  331.0434 LP  0  0  0  0  0  0  0  0  0  0  0  0  # atno 13608 bound_to 9352

> <Gold.Score>
     Fitness  S(hb_ext) S(vdw_ext)  S(hb_int)    S(int)      intcor
     35.41       0.09      26.51       0.00      -1.14      -0.77

> <Gold.Goldscore.Fitness>
35.4113

> <Gold.Goldscore.Internal.Vdw>
-1.4568

> <Gold.Goldscore.Internal.Torsion>
-0.4515

> <Gold.Goldscore.External.Vdw>
26.5145

> <Gold.Goldscore.Internal.HBond>
0.0000

> <Gold.Goldscore.External.HBond>
0.0935

> <Gold.Goldscore.Internal.Correction>
-0.7686

> <Gold.Goldscore.Hbonds>
donor molecule, donor type, donor heavy atom, donor atom, acceptor molecule, acceptor atom, score
      P1  H  8378  8387       L1     9  0.05

> <Gold.Goldscore.Internal.Vdw.Weighted>
-1.4568

> <Gold.Goldscore.Internal.Torsion.Weighted>
-0.4515

> <Gold.Goldscore.External.Vdw.Weighted>
36.4574

> <Gold.Goldscore.Internal.HBond.Weighted>
0.0000

> <Gold.Goldscore.External.HBond.Weighted>
0.0935

> <Gold.Goldscore.Internal.Correction.Weighted>
-0.7686

> <Gold.Rescore>
     Score     S(PLP)   S(hbond)     S(cho)   S(metal)  DE(clash)   DE(tors)     intcor
     33.25     -35.85       0.00       0.00       0.00       0.00       1.30       ----

> <Gold.PLP.Fitness>
33.2535

> <Gold.PLP.PLP>
-35.8473

> <Gold.PLP.part.hbond>
-2.0000

> <Gold.PLP.part.metal>
0.0000

> <Gold.PLP.part.buried>
-8.4398

> <Gold.PLP.part.nonpolar>
-26.9209

> <Gold.PLP.part.repulsive>
1.2625

> <Gold.PLP.ligand.clash>
0.0000

> <Gold.PLP.ligand.torsion>
1.2969

> <Gold.PLP.Chemscore.Hbond>
0.0000

> <Gold.PLP.Chemscore.CHOScore>
0.0000

> <Gold.PLP.Chemscore.Metal>
0.0000

> <Gold.Chemscore.Hbonds>
donor molecule, donor type, donor heavy atom, donor atom, acceptor molecule, acceptor atom, score
      L1  H     8    22       P1  9404  0.11

> <Gold.PLP.Chemscore.Internal.Correction>
   9.000000E+99

