#       Name:                CT1002167954
#       Creating user name   hitesit
#       Creation time:       Sun Apr 16 22:52:04 2023


#       File generated by GOLD software.
#

@<TRIPOS>MOLECULE
CT1002167954|ligand_prepared|mol2|1|dock4
    29    30     1
SMALL
NO_CHARGES


@<TRIPOS>ATOM
      1 C1         112.5533 242.3538 324.5955 C.3            1 RES1               0.0000
      2 C2         112.0272 242.2854 326.0437 C.ar           1 RES1               0.0000
      3 C3         112.2045 243.7464 324.0783 C.2            1 RES1               0.0000
      4 C4         114.0504 242.0754 324.6718 C.2            1 RES1               0.0000
      5 C5         111.9201 241.3061 323.6505 C.3            1 RES1               0.0000
      6 C6         112.8270 242.6907 327.1080 C.ar           1 RES1               0.0000
      7 C7         110.7457 241.8226 326.3303 C.ar           1 RES1               0.0000
      8 N8         113.2207 244.6476 323.9557 N.am           1 RES1               0.0000
      9 O9         111.0495 244.0612 323.8195 O.2            1 RES1               0.0000
     10 N10        114.9098 243.0869 324.3311 N.am           1 RES1               0.0000
     11 O11        114.4937 240.9945 325.0399 O.2            1 RES1               0.0000
     12 C12        112.6131 241.1991 322.3013 C.3            1 RES1               0.0000
     13 C13        112.3615 242.6381 328.4114 C.ar           1 RES1               0.0000
     14 C14        110.2822 241.7707 327.6346 C.ar           1 RES1               0.0000
     15 C15        114.5631 244.3700 324.0060 C.2            1 RES1               0.0000
     16 C16        111.0889 242.1786 328.6756 C.ar           1 RES1               0.0000
     17 O17        115.3963 245.2388 323.7647 O.2            1 RES1               0.0000
     18 H18        111.9486 240.3253 324.1410 H              1 RES1               0.0000
     19 H19        110.8676 241.5686 323.4869 H              1 RES1               0.0000
     20 H20        113.8322 243.0529 326.9198 H              1 RES1               0.0000
     21 H21        110.0939 241.4956 325.5273 H              1 RES1               0.0000
     22 H22        112.9582 245.6178 323.8137 H              1 RES1               0.0000
     23 H23        115.8996 242.8624 324.3184 H              1 RES1               0.0000
     24 H24        112.1294 240.4503 321.6776 H              1 RES1               0.0000
     25 H25        112.5814 242.1506 321.7748 H              1 RES1               0.0000
     26 H26        113.6561 240.9147 322.4250 H              1 RES1               0.0000
     27 H27        113.0008 242.9590 329.2273 H              1 RES1               0.0000
     28 H28        109.2802 241.4077 327.8378 H              1 RES1               0.0000
     29 H29        110.7244 242.1378 329.6967 H              1 RES1               0.0000
@<TRIPOS>BOND
    1    1    2 1     
    2    1    3 1     
    3    1    4 1     
    4    1    5 1     
    5    2    6 ar    
    6    2    7 ar    
    7    3    8 1     
    8    3    9 2     
    9    4   10 1     
   10    4   11 2     
   11    5   12 1     
   12    5   18 1     
   13    5   19 1     
   14    6   13 ar    
   15    6   20 1     
   16    7   14 ar    
   17    7   21 1     
   18    8   15 1     
   19    8   22 1     
   20   10   15 1     
   21   10   23 1     
   22   12   24 1     
   23   12   25 1     
   24   12   26 1     
   25   13   16 ar    
   26   13   27 1     
   27   14   16 ar    
   28   14   28 1     
   29   15   17 2     
   30   16   29 1     
@<TRIPOS>SUBSTRUCTURE
      1 RES1           1
@<TRIPOS>SET
DONOR_HYDROGENS      STATIC     ATOMS    <user>   **** ""
2 22 23
ATOM$RED        STATIC     ATOMS    COLORGROUP SYSTEM
2 22 23
@<TRIPOS>COMMENT
> <Gold.Version>
2022.3.0

> <Gold.Id.Protein>
unknown|4uh5_clean|pdb

> <Gold.Protein.RotatedTorsions>
[ 8487 8482 8483 8484 ] final  140.12 input   34.95 | X-H torsion
[ 8511 8504 8505 8506 ] final   97.18 input  102.00 | X-H torsion
[ 9055 9051 9052 9053 ] final  -72.88 input   39.76 | X-H torsion
[ 9089 9075 9076 9077 ] final  176.36 input   37.88 | X-H torsion
[ 9133 9121 9122 9123 ] final  -45.60 input   94.46 | X-H torsion
[ 9141 9132 9131 9129 ] final   83.16 input   60.01 | X-H torsion
[ 9170 9159 9160 9161 ] final   95.23 input   86.63 | X-H torsion
[ 9251 9236 9237 9238 ] final  -15.72 input  127.08 | X-H torsion
[ 3623 3616 3617 3618 ] final -134.59 input   94.27 | X-H torsion
[ 3649 3645 3646 3647 ] final   98.00 input   86.49 | X-H torsion
[ 9037 9031 9032 9033 ] final  119.69 input   26.45 | X-H torsion
[ 9196 9189 9190 9191 ] final  144.81 input  130.40 | X-H torsion
[ 4943 4938 4937 4934 ] final -133.78 input   60.00 | X-H torsion
[ 9041 9036 9035 9032 ] final -145.10 input   59.99 | X-H torsion
[ 9007 8996 8997 8998 ] final   62.58 input   49.09 | X-H torsion
[ 8541 8535 8536 8537 ] final  -27.09 input   50.11 | X-H torsion
[ 4959 4954 4955 4956 ] final   85.59 input   27.83 | X-H torsion
[ 8387 8378 8377 8375 ] final  -86.25 input   59.99 | X-H torsion
[ 5633 5624 5625 5626 ] final  -69.15 input   44.71 | X-H torsion
[ 5606 5601 5600 5597 ] final  104.91 input   59.98 | X-H torsion
[ 5665 5657 5658 5659 ] final  -65.74 input  114.33 | X-H torsion
[ 5703 5695 5696 5697 ] final  -40.17 input   57.04 | X-H torsion
[ 5747 5736 5737 5738 ] final -100.07 input   30.88 | X-H torsion
[ 5797 5785 5786 5787 ] final  133.97 input   92.04 | X-H torsion
[ 9409 9397 9398 9399 ] final   82.61 input  123.68 | X-H torsion
[ 9376 9352 9353 9354 ] final  165.24 input  105.06 | X-H torsion
[ 11109 11102 11103 11104 ] final -101.19 input   57.11 | X-H torsion
[ 8379 8367 8368 8369 ] final    7.63 input   85.33 | X-H torsion
[ 5602 5596 5597 5598 ] final   44.36 input  106.64 | X-H torsion
[ 13518 8422 8421 8420 ] final  -87.49 input    0.00 | X-H torsion
[ 13521 8459 8458 8457 ] final  151.38 input   -0.00 | X-H torsion
[ 13525 8999 8998 8997 ] final  135.03 input   -0.00 | X-H torsion
[ 13528 9054 9053 9052 ] final   80.07 input   -0.00 | X-H torsion
[ 13531 9078 9077 9076 ] final   86.58 input    0.00 | X-H torsion
[ 13534 9124 9123 9122 ] final  138.60 input   -0.00 | X-H torsion
[ 13539 9162 9161 9160 ] final   61.37 input   -0.00 | X-H torsion
[ 13553 9034 9033 9032 ] final -114.34 input    0.00 | X-H torsion
[ 13555 8404 8403 8402 ] final   47.50 input    0.00 | X-H torsion
[ 13562 8485 8484 8483 ] final   38.90 input    0.00 | X-H torsion
[ 13564 8507 8506 8505 ] final  -32.81 input   -0.00 | X-H torsion
[ 13571 4957 4956 4955 ] final -109.97 input   -0.00 | X-H torsion
[ 13573 5599 5598 5597 ] final   17.90 input   -0.00 | X-H torsion
[ 13582 5698 5697 5696 ] final -170.84 input   -0.00 | X-H torsion
[ 13584 9239 9238 9237 ] final    9.40 input    0.00 | X-H torsion
[ 13588 5627 5626 5625 ] final   93.41 input    0.00 | X-H torsion
[ 13596 8370 8369 8368 ] final   73.79 input   -0.00 | X-H torsion
[ 13601 9355 9354 9353 ] final    8.80 input   -0.00 | X-H torsion
[ 13603 9400 9399 9398 ] final   48.06 input   -0.00 | X-H torsion

> <Gold.Protein.ActiveResidues>
 MET341  TRP414  CYS420  VAL421  GLY422  LEU429  LEU460  SER462  ALA463  ILE464 
 SER482  GLN483  LEU484  ILE485  ARG486  TYR487  ASP500  ALA502  ASN503  TRP566 
 TYR567  GLY568  LEU569  PRO570  ALA571  VAL572  SER573  ASN574  PRO588  PHE589 
 SER590  GLY591  TRP592  TYR593  MET594  GLY595  GLU597  ILE598  ARG601  ASP602 
 ASP605  ARG608  ILE653  VAL654  TRP683  PRO687  PHE696  HIS697  TYR711  HEM750 
 H4B760 

> <Gold.Protein.RotatedAtoms>
  122.3992  249.9391  328.1281 H   0  0  0  0  0  0  0  0  0  0  0  0  # atno 3623 bound_to 3616
  123.7845  248.4601  325.8453 H   0  0  0  0  0  0  0  0  0  0  0  0  # atno 3649 bound_to 3645
  125.4547  247.4253  317.5292 H   0  0  0  0  0  0  0  0  0  0  0  0  # atno 4943 bound_to 4938
  122.7205  246.9172  313.3727 H   0  0  0  0  0  0  0  0  0  0  0  0  # atno 4959 bound_to 4954
  106.8272  244.9415  316.7370 H   0  0  0  0  0  0  0  0  0  0  0  0  # atno 5602 bound_to 5596
  107.4974  244.4708  320.0529 H   0  0  0  0  0  0  0  0  0  0  0  0  # atno 5606 bound_to 5601
  108.7598  245.7111  316.7759 H   0  0  0  0  0  0  0  0  0  0  0  0  # atno 5633 bound_to 5624
  110.6754  243.7873  315.4113 H   0  0  0  0  0  0  0  0  0  0  0  0  # atno 5665 bound_to 5657
  110.9756  241.6957  314.8329 H   0  0  0  0  0  0  0  0  0  0  0  0  # atno 5703 bound_to 5695
  110.6451  238.4466  315.9329 H   0  0  0  0  0  0  0  0  0  0  0  0  # atno 5747 bound_to 5736
  108.7392  236.1291  318.4730 H   0  0  0  0  0  0  0  0  0  0  0  0  # atno 5797 bound_to 5785
  115.5737  233.9326  319.1710 H   0  0  0  0  0  0  0  0  0  0  0  0  # atno 8379 bound_to 8367
  111.4248  239.2014  319.6031 H   0  0  0  0  0  0  0  0  0  0  0  0  # atno 8387 bound_to 8378
  116.2148  242.6784  316.9404 H   0  0  0  0  0  0  0  0  0  0  0  0  # atno 8487 bound_to 8482
  115.7152  246.9580  317.5884 H   0  0  0  0  0  0  0  0  0  0  0  0  # atno 8511 bound_to 8504
  111.7652  248.7457  317.4477 H   0  0  0  0  0  0  0  0  0  0  0  0  # atno 8541 bound_to 8535
  115.5504  249.6307  315.2191 H   0  0  0  0  0  0  0  0  0  0  0  0  # atno 9007 bound_to 8996
  118.7537  247.7798  314.4604 H   0  0  0  0  0  0  0  0  0  0  0  0  # atno 9037 bound_to 9031
  119.5093  245.0621  312.8472 H   0  0  0  0  0  0  0  0  0  0  0  0  # atno 9041 bound_to 9036
  120.8158  244.9820  316.1639 H   0  0  0  0  0  0  0  0  0  0  0  0  # atno 9055 bound_to 9051
  123.2844  243.2873  318.0161 H   0  0  0  0  0  0  0  0  0  0  0  0  # atno 9089 bound_to 9075
  123.0037  240.8720  321.0803 H   0  0  0  0  0  0  0  0  0  0  0  0  # atno 9133 bound_to 9121
  115.1121  240.0006  320.8438 H   0  0  0  0  0  0  0  0  0  0  0  0  # atno 9141 bound_to 9132
  121.3384  241.0199  324.6913 H   0  0  0  0  0  0  0  0  0  0  0  0  # atno 9170 bound_to 9159
  123.3734  237.6153  326.8135 H   0  0  0  0  0  0  0  0  0  0  0  0  # atno 9196 bound_to 9189
  118.2055  237.7806  328.7397 H   0  0  0  0  0  0  0  0  0  0  0  0  # atno 9251 bound_to 9236
  114.7553  237.8200  331.1928 H   0  0  0  0  0  0  0  0  0  0  0  0  # atno 9376 bound_to 9352
  113.2212  236.7633  328.3028 H   0  0  0  0  0  0  0  0  0  0  0  0  # atno 9409 bound_to 9397
  126.5176  237.2127  323.7086 H   0  0  0  0  0  0  0  0  0  0  0  0  # atno 11109 bound_to 11102
  115.8768  240.6169  315.7295 LP  0  0  0  0  0  0  0  0  0  0  0  0  # atno 13518 bound_to 8422
  115.7528  239.3475  316.9014 LP  0  0  0  0  0  0  0  0  0  0  0  0  # atno 13519 bound_to 8422
  118.1944  244.4710  316.7787 LP  0  0  0  0  0  0  0  0  0  0  0  0  # atno 13521 bound_to 8459
  118.8913  243.7255  318.1781 LP  0  0  0  0  0  0  0  0  0  0  0  0  # atno 13522 bound_to 8459
  115.6970  243.6728  318.2795 LP  0  0  0  0  0  0  0  0  0  0  0  0  # atno 13523 bound_to 8482
  114.5825  245.7834  316.9622 LP  0  0  0  0  0  0  0  0  0  0  0  0  # atno 13524 bound_to 8504
  116.8141  246.6035  316.0471 LP  0  0  0  0  0  0  0  0  0  0  0  0  # atno 13525 bound_to 8999
  116.4026  248.1228  316.7700 LP  0  0  0  0  0  0  0  0  0  0  0  0  # atno 13526 bound_to 8999
  120.3608  245.5765  317.7464 LP  0  0  0  0  0  0  0  0  0  0  0  0  # atno 13527 bound_to 9051
  123.0458  242.5226  316.0857 LP  0  0  0  0  0  0  0  0  0  0  0  0  # atno 13528 bound_to 9054
  121.4897  242.1409  316.7437 LP  0  0  0  0  0  0  0  0  0  0  0  0  # atno 13529 bound_to 9054
  122.6405  243.6328  319.6049 LP  0  0  0  0  0  0  0  0  0  0  0  0  # atno 13530 bound_to 9075
  121.6908  242.9063  321.5016 LP  0  0  0  0  0  0  0  0  0  0  0  0  # atno 13531 bound_to 9078
  123.3079  242.5972  322.0395 LP  0  0  0  0  0  0  0  0  0  0  0  0  # atno 13532 bound_to 9078
  122.0544  239.6328  320.2912 LP  0  0  0  0  0  0  0  0  0  0  0  0  # atno 13533 bound_to 9121
  124.4151  239.7357  323.9758 LP  0  0  0  0  0  0  0  0  0  0  0  0  # atno 13534 bound_to 9124
  123.7923  238.4887  322.9476 LP  0  0  0  0  0  0  0  0  0  0  0  0  # atno 13535 bound_to 9124
  114.7874  239.0796  322.1449 LP  0  0  0  0  0  0  0  0  0  0  0  0  # atno 13536 bound_to 9132
  114.9984  238.3858  320.6818 LP  0  0  0  0  0  0  0  0  0  0  0  0  # atno 13537 bound_to 9132
  122.3159  239.8116  323.8912 LP  0  0  0  0  0  0  0  0  0  0  0  0  # atno 13538 bound_to 9159
  120.0216  238.8600  325.5410 LP  0  0  0  0  0  0  0  0  0  0  0  0  # atno 13539 bound_to 9162
  119.9384  238.6643  327.2600 LP  0  0  0  0  0  0  0  0  0  0  0  0  # atno 13540 bound_to 9162
  119.0236  239.3004  328.4607 LP  0  0  0  0  0  0  0  0  0  0  0  0  # atno 13541 bound_to 9236
  122.4912  248.6496  326.9492 LP  0  0  0  0  0  0  0  0  0  0  0  0  # atno 13550 bound_to 3616
  125.1171  248.5173  326.9708 LP  0  0  0  0  0  0  0  0  0  0  0  0  # atno 13551 bound_to 3645
  119.2573  248.3907  316.0144 LP  0  0  0  0  0  0  0  0  0  0  0  0  # atno 13552 bound_to 9031
  122.3412  246.4635  315.1211 LP  0  0  0  0  0  0  0  0  0  0  0  0  # atno 13553 bound_to 9034
  121.6350  247.8444  315.8921 LP  0  0  0  0  0  0  0  0  0  0  0  0  # atno 13554 bound_to 9034
  121.2158  237.5317  317.2994 LP  0  0  0  0  0  0  0  0  0  0  0  0  # atno 13555 bound_to 8404
  120.0364  238.6443  317.9086 LP  0  0  0  0  0  0  0  0  0  0  0  0  # atno 13556 bound_to 8404
  121.8391  238.4582  326.7948 LP  0  0  0  0  0  0  0  0  0  0  0  0  # atno 13557 bound_to 9189
  126.7915  246.9709  316.7205 LP  0  0  0  0  0  0  0  0  0  0  0  0  # atno 13558 bound_to 4938
  125.4363  246.0634  316.6392 LP  0  0  0  0  0  0  0  0  0  0  0  0  # atno 13559 bound_to 4938
  120.6364  244.5168  313.8865 LP  0  0  0  0  0  0  0  0  0  0  0  0  # atno 13560 bound_to 9036
  120.4286  246.1221  313.6714 LP  0  0  0  0  0  0  0  0  0  0  0  0  # atno 13561 bound_to 9036
  113.1850  244.2407  316.2889 LP  0  0  0  0  0  0  0  0  0  0  0  0  # atno 13562 bound_to 8485
  112.7995  245.9007  315.9796 LP  0  0  0  0  0  0  0  0  0  0  0  0  # atno 13563 bound_to 8485
  114.7263  249.4215  316.4261 LP  0  0  0  0  0  0  0  0  0  0  0  0  # atno 13564 bound_to 8507
  113.6990  249.1711  315.0543 LP  0  0  0  0  0  0  0  0  0  0  0  0  # atno 13565 bound_to 8507
  115.9539  249.6629  313.5191 LP  0  0  0  0  0  0  0  0  0  0  0  0  # atno 13566 bound_to 8996
  112.2740  247.4401  316.4083 LP  0  0  0  0  0  0  0  0  0  0  0  0  # atno 13567 bound_to 8535
  123.7641  248.2590  313.7717 LP  0  0  0  0  0  0  0  0  0  0  0  0  # atno 13570 bound_to 4954
  119.6643  248.5863  313.0554 LP  0  0  0  0  0  0  0  0  0  0  0  0  # atno 13571 bound_to 4957
  120.8519  249.0872  314.2124 LP  0  0  0  0  0  0  0  0  0  0  0  0  # atno 13572 bound_to 4957
  109.6897  247.7675  318.6308 LP  0  0  0  0  0  0  0  0  0  0  0  0  # atno 13573 bound_to 5599
  110.7941  246.8107  317.7008 LP  0  0  0  0  0  0  0  0  0  0  0  0  # atno 13574 bound_to 5599
  112.7652  239.2663  320.5234 LP  0  0  0  0  0  0  0  0  0  0  0  0  # atno 13575 bound_to 8378
  111.6487  238.1032  320.7829 LP  0  0  0  0  0  0  0  0  0  0  0  0  # atno 13576 bound_to 8378
  108.7149  244.5522  318.0864 LP  0  0  0  0  0  0  0  0  0  0  0  0  # atno 13581 bound_to 5624
  111.1020  239.3285  317.9369 LP  0  0  0  0  0  0  0  0  0  0  0  0  # atno 13582 bound_to 5698
  112.2305  240.2486  316.9989 LP  0  0  0  0  0  0  0  0  0  0  0  0  # atno 13583 bound_to 5698
  114.4874  239.0206  327.6072 LP  0  0  0  0  0  0  0  0  0  0  0  0  # atno 13584 bound_to 9239
  114.3362  237.3263  327.2810 LP  0  0  0  0  0  0  0  0  0  0  0  0  # atno 13585 bound_to 9239
  106.7406  244.4450  318.6126 LP  0  0  0  0  0  0  0  0  0  0  0  0  # atno 13586 bound_to 5601
  105.8941  244.7381  319.9779 LP  0  0  0  0  0  0  0  0  0  0  0  0  # atno 13587 bound_to 5601
  108.6986  243.7554  314.7350 LP  0  0  0  0  0  0  0  0  0  0  0  0  # atno 13588 bound_to 5627
  109.1770  242.3182  315.5751 LP  0  0  0  0  0  0  0  0  0  0  0  0  # atno 13589 bound_to 5627
  112.3648  244.1392  315.1474 LP  0  0  0  0  0  0  0  0  0  0  0  0  # atno 13590 bound_to 5657
  112.4982  241.3822  314.0342 LP  0  0  0  0  0  0  0  0  0  0  0  0  # atno 13591 bound_to 5695
  109.2079  239.2021  315.2741 LP  0  0  0  0  0  0  0  0  0  0  0  0  # atno 13592 bound_to 5736
  107.6477  237.1482  317.5712 LP  0  0  0  0  0  0  0  0  0  0  0  0  # atno 13593 bound_to 5785
  117.3802  234.9081  319.3777 LP  0  0  0  0  0  0  0  0  0  0  0  0  # atno 13596 bound_to 8370
  117.1620  236.5095  318.7549 LP  0  0  0  0  0  0  0  0  0  0  0  0  # atno 13597 bound_to 8370
  111.8504  237.7018  328.8388 LP  0  0  0  0  0  0  0  0  0  0  0  0  # atno 13598 bound_to 9397
  110.3324  237.2659  330.7550 LP  0  0  0  0  0  0  0  0  0  0  0  0  # atno 13601 bound_to 9355
  110.1121  236.3209  329.3202 LP  0  0  0  0  0  0  0  0  0  0  0  0  # atno 13602 bound_to 9355
  109.3008  234.6400  326.7057 LP  0  0  0  0  0  0  0  0  0  0  0  0  # atno 13603 bound_to 9400
  109.1610  234.1961  328.3740 LP  0  0  0  0  0  0  0  0  0  0  0  0  # atno 13604 bound_to 9400
  114.0557  236.3348  330.5939 LP  0  0  0  0  0  0  0  0  0  0  0  0  # atno 13608 bound_to 9352

> <Gold.Score>
     Fitness  S(hb_ext) S(vdw_ext)  S(hb_int)    S(int)      intcor
     34.04       5.06      21.35       0.00      -0.38      -0.77

> <Gold.Goldscore.Fitness>
34.0371

> <Gold.Goldscore.Internal.Vdw>
-0.6036

> <Gold.Goldscore.Internal.Torsion>
-0.5435

> <Gold.Goldscore.External.Vdw>
21.3516

> <Gold.Goldscore.Internal.HBond>
0.0000

> <Gold.Goldscore.External.HBond>
5.0571

> <Gold.Goldscore.Internal.Correction>
-0.7686

> <Gold.Goldscore.Hbonds>
donor molecule, donor type, donor heavy atom, donor atom, acceptor molecule, acceptor atom, score
      L1  H    10    23       P1  9243  0.84

> <Gold.Goldscore.Internal.Vdw.Weighted>
-0.6036

> <Gold.Goldscore.Internal.Torsion.Weighted>
-0.5435

> <Gold.Goldscore.External.Vdw.Weighted>
29.3585

> <Gold.Goldscore.Internal.HBond.Weighted>
0.0000

> <Gold.Goldscore.External.HBond.Weighted>
5.0571

> <Gold.Goldscore.Internal.Correction.Weighted>
-0.7686

> <Gold.Rescore>
     Score     S(PLP)   S(hbond)     S(cho)   S(metal)  DE(clash)   DE(tors)     intcor
     28.37     -28.52       0.72       0.00       0.00       0.64       0.84       ----

> <Gold.PLP.Fitness>
28.3722

> <Gold.PLP.PLP>
-28.5238

> <Gold.PLP.part.hbond>
-2.6818

> <Gold.PLP.part.metal>
0.0000

> <Gold.PLP.part.buried>
-6.3105

> <Gold.PLP.part.nonpolar>
-19.9855

> <Gold.PLP.part.repulsive>
0.5549

> <Gold.PLP.ligand.clash>
0.6405

> <Gold.PLP.ligand.torsion>
0.8355

> <Gold.PLP.Chemscore.Hbond>
0.7200

> <Gold.PLP.Chemscore.CHOScore>
0.0000

> <Gold.PLP.Chemscore.Metal>
0.0000

> <Gold.Chemscore.Hbonds>
donor molecule, donor type, donor heavy atom, donor atom, acceptor molecule, acceptor atom, score
      L1  H    10    23       P1  9243  1.00

> <Gold.PLP.Chemscore.Internal.Correction>
   9.000000E+99

