#       Name:                CT1002167954
#       Creating user name   hitesit
#       Creation time:       Sun Apr 16 23:06:30 2023


#       File generated by GOLD software.
#

@<TRIPOS>MOLECULE
CT1002167954|ligand_prepared|mol2|1|dock2
    29    30     1
SMALL
NO_CHARGES


@<TRIPOS>ATOM
      1 C1         137.6514 142.7866 165.7025 C.3            1 RES1               0.0000
      2 C2         136.8737 141.6541 165.0016 C.ar           1 RES1               0.0000
      3 C3         136.7887 144.0391 165.5789 C.2            1 RES1               0.0000
      4 C4         137.8759 142.3249 167.1382 C.2            1 RES1               0.0000
      5 C5         139.0335 143.0781 165.0728 C.3            1 RES1               0.0000
      6 C6         135.7367 141.1067 165.5883 C.ar           1 RES1               0.0000
      7 C7         137.2788 141.1491 163.7689 C.ar           1 RES1               0.0000
      8 N8         136.1419 144.4737 166.6981 N.am           1 RES1               0.0000
      9 O9         136.6464 144.6138 164.5067 O.2            1 RES1               0.0000
     10 N10        137.2579 143.0243 168.1416 N.am           1 RES1               0.0000
     11 O11        138.5688 141.3517 167.4084 O.2            1 RES1               0.0000
     12 C12        139.8932 144.0268 165.8932 C.3            1 RES1               0.0000
     13 C13        135.0285 140.0932 164.9641 C.ar           1 RES1               0.0000
     14 C14        136.5692 140.1354 163.1464 C.ar           1 RES1               0.0000
     15 C15        136.3765 144.0590 167.9845 C.2            1 RES1               0.0000
     16 C16        135.4440 139.6072 163.7427 C.ar           1 RES1               0.0000
     17 O17        135.8191 144.6023 168.9338 O.2            1 RES1               0.0000
     18 H18        139.5723 142.1306 164.9495 H              1 RES1               0.0000
     19 H19        138.8832 143.5106 164.0759 H              1 RES1               0.0000
     20 H20        135.3961 141.4747 166.5504 H              1 RES1               0.0000
     21 H21        138.1617 141.5487 163.2816 H              1 RES1               0.0000
     22 H22        135.4167 145.1716 166.5665 H              1 RES1               0.0000
     23 H23        137.4753 142.7481 169.0938 H              1 RES1               0.0000
     24 H24        140.8514 144.1974 165.4068 H              1 RES1               0.0000
     25 H25        139.3988 144.9884 166.0144 H              1 RES1               0.0000
     26 H26        140.0838 143.6166 166.8828 H              1 RES1               0.0000
     27 H27        134.1444 139.6800 165.4382 H              1 RES1               0.0000
     28 H28        136.9002 139.7555 162.1855 H              1 RES1               0.0000
     29 H29        134.8888 138.8135 163.2538 H              1 RES1               0.0000
@<TRIPOS>BOND
    1    1    2 1     
    2    1    3 1     
    3    1    4 1     
    4    1    5 1     
    5    2    6 ar    
    6    2    7 ar    
    7    3    8 1     
    8    3    9 2     
    9    4   10 1     
   10    4   11 2     
   11    5   12 1     
   12    5   18 1     
   13    5   19 1     
   14    6   13 ar    
   15    6   20 1     
   16    7   14 ar    
   17    7   21 1     
   18    8   15 1     
   19    8   22 1     
   20   10   15 1     
   21   10   23 1     
   22   12   24 1     
   23   12   25 1     
   24   12   26 1     
   25   13   16 ar    
   26   13   27 1     
   27   14   16 ar    
   28   14   28 1     
   29   15   17 2     
   30   16   29 1     
@<TRIPOS>SUBSTRUCTURE
      1 RES1           1
@<TRIPOS>SET
DONOR_HYDROGENS      STATIC     ATOMS    <user>   **** ""
2 22 23
ATOM$RED        STATIC     ATOMS    COLORGROUP SYSTEM
2 22 23
@<TRIPOS>COMMENT
> <Gold.Version>
2022.3.0

> <Gold.Id.Protein>
unknown|7rmi_cavity_clean|pdb

> <Gold.Protein.RotatedTorsions>
[ 5081 5072 5071 5069 ] final   74.09 input   59.98 | X-H torsion
[ 5041 5025 5024 5021 ] final  -22.66 input   60.00 | X-H torsion
[ 5032 5026 5027 5028 ] final  -75.25 input  106.27 | X-H torsion
[ 5036 5031 5030 5027 ] final   68.96 input   60.01 | X-H torsion
[ 4987 4979 4980 4981 ] final  153.48 input  111.67 | X-H torsion
[ 5133 5126 5127 5128 ] final  -16.79 input   60.01 | X-H torsion
[ 14333 5029 5028 5027 ] final   -4.77 input    0.00 | X-H torsion
[ 14340 4982 4981 4980 ] final    1.18 input    0.00 | X-H torsion

> <Gold.Protein.ActiveResidues>
 TRP99   VAL100  MET101  CYS103  ALA104  ASP118  ASN119  ILE120  SER122  TYR124 
 LEU126  VAL133  LEU139  HIS142 

> <Gold.Protein.RotatedAtoms>
  134.4569  135.5631  115.8280 H   0  0  0  0  0  0  0  0  0  0  0  0  # atno 4987 bound_to 4979
  138.1290  135.1895  119.9234 H   0  0  0  0  0  0  0  0  0  0  0  0  # atno 5032 bound_to 5026
  134.0833  135.2514  121.2820 H   0  0  0  0  0  0  0  0  0  0  0  0  # atno 5036 bound_to 5031
  155.9888  141.6951  166.2443 H   0  0  0  0  0  0  0  0  0  0  0  0  # atno 5041 bound_to 5025
  156.8294  143.3712  160.8004 H   0  0  0  0  0  0  0  0  0  0  0  0  # atno 5081 bound_to 5072
  160.8630  150.8965  155.9515 H   0  0  0  0  0  0  0  0  0  0  0  0  # atno 5133 bound_to 5126
  159.4189  151.3620  155.2839 H   0  0  0  0  0  0  0  0  0  0  0  0  # atno 5134 bound_to 5126
  156.4717  143.9257  159.3132 LP  0  0  0  0  0  0  0  0  0  0  0  0  # atno 14312 bound_to 5072
  155.3006  143.2809  160.2511 LP  0  0  0  0  0  0  0  0  0  0  0  0  # atno 14313 bound_to 5072
  156.1380  141.7170  164.6234 LP  0  0  0  0  0  0  0  0  0  0  0  0  # atno 14330 bound_to 5025
  154.7950  141.0955  165.3140 LP  0  0  0  0  0  0  0  0  0  0  0  0  # atno 14331 bound_to 5025
  136.6341  135.9800  119.4932 LP  0  0  0  0  0  0  0  0  0  0  0  0  # atno 14332 bound_to 5026
  136.9527  134.1043  123.7079 LP  0  0  0  0  0  0  0  0  0  0  0  0  # atno 14333 bound_to 5029
  136.1343  132.6454  123.2585 LP  0  0  0  0  0  0  0  0  0  0  0  0  # atno 14334 bound_to 5029
  134.7900  136.0366  120.0446 LP  0  0  0  0  0  0  0  0  0  0  0  0  # atno 14335 bound_to 5031
  133.8160  136.8433  121.0776 LP  0  0  0  0  0  0  0  0  0  0  0  0  # atno 14336 bound_to 5031
  135.1015  135.7350  117.4398 LP  0  0  0  0  0  0  0  0  0  0  0  0  # atno 14339 bound_to 4979
  136.7263  132.0778  117.9093 LP  0  0  0  0  0  0  0  0  0  0  0  0  # atno 14340 bound_to 4982
  138.0904  132.9088  118.5791 LP  0  0  0  0  0  0  0  0  0  0  0  0  # atno 14341 bound_to 4982
  160.3037  152.4283  156.1703 LP  0  0  0  0  0  0  0  0  0  0  0  0  # atno 14344 bound_to 5126

> <Gold.Score>
     Fitness  S(hb_ext) S(vdw_ext)  S(hb_int)    S(int)      intcor
     37.08       0.00      27.06       0.00      -0.13      -0.76

> <Gold.Goldscore.Fitness>
37.0767

> <Gold.Goldscore.Internal.Vdw>
-0.3764

> <Gold.Goldscore.Internal.Torsion>
-0.5079

> <Gold.Goldscore.External.Vdw>
27.0577

> <Gold.Goldscore.Internal.HBond>
0.0000

> <Gold.Goldscore.External.HBond>
0.0000

> <Gold.Goldscore.Internal.Correction>
-0.7567

> <Gold.Goldscore.Internal.Vdw.Weighted>
-0.3764

> <Gold.Goldscore.Internal.Torsion.Weighted>
-0.5079

> <Gold.Goldscore.External.Vdw.Weighted>
37.2044

> <Gold.Goldscore.Internal.HBond.Weighted>
0.0000

> <Gold.Goldscore.External.HBond.Weighted>
0.0000

> <Gold.Goldscore.Internal.Correction.Weighted>
-0.7567

> <Gold.Rescore>
     Score     S(PLP)   S(hbond)     S(cho)   S(metal)  DE(clash)   DE(tors)     intcor
     29.06     -31.31       0.00       0.00       0.00       0.00       1.13       ----

> <Gold.PLP.Fitness>
29.0624

> <Gold.PLP.PLP>
-31.3131

> <Gold.PLP.part.hbond>
-2.7181

> <Gold.PLP.part.metal>
0.0000

> <Gold.PLP.part.buried>
-1.8823

> <Gold.PLP.part.nonpolar>
-31.3244

> <Gold.PLP.part.repulsive>
3.5460

> <Gold.PLP.ligand.clash>
0.0000

> <Gold.PLP.ligand.torsion>
1.1253

> <Gold.PLP.Chemscore.Hbond>
0.0000

> <Gold.PLP.Chemscore.CHOScore>
0.0000

> <Gold.PLP.Chemscore.Metal>
0.0000

> <Gold.PLP.Chemscore.Internal.Correction>
   9.000000E+99

#       Name:                CT1002167954
#       Creating user name   hitesit
#       Creation time:       Sun Apr 16 23:06:34 2023


#       File generated by GOLD software.
#

@<TRIPOS>MOLECULE
CT1002167954|ligand_prepared|mol2|1|dock4
    29    30     1
SMALL
NO_CHARGES


@<TRIPOS>ATOM
      1 C1         137.8905 144.1554 166.5640 C.3            1 RES1               0.0000
      2 C2         137.3917 142.9599 165.7270 C.ar           1 RES1               0.0000
      3 C3         139.1794 143.6971 167.2400 C.2            1 RES1               0.0000
      4 C4         138.0770 145.3115 165.5877 C.2            1 RES1               0.0000
      5 C5         136.8968 144.6099 167.6584 C.3            1 RES1               0.0000
      6 C6         138.0906 142.5451 164.5973 C.ar           1 RES1               0.0000
      7 C7         136.2379 142.2614 166.0729 C.ar           1 RES1               0.0000
      8 N8         140.3557 144.1910 166.7580 N.am           1 RES1               0.0000
      9 O9         139.1665 142.8843 168.1561 O.2            1 RES1               0.0000
     10 N10        139.3490 145.7762 165.3783 N.am           1 RES1               0.0000
     11 O11        137.1360 145.8132 164.9852 O.2            1 RES1               0.0000
     12 C12        137.3360 145.8598 168.4046 C.3            1 RES1               0.0000
     13 C13        137.6536 141.4692 163.8424 C.ar           1 RES1               0.0000
     14 C14        135.8026 141.1860 165.3164 C.ar           1 RES1               0.0000
     15 C15        140.5003 145.2482 165.8959 C.2            1 RES1               0.0000
     16 C16        136.5097 140.7887 164.2016 C.ar           1 RES1               0.0000
     17 O17        141.6124 145.6876 165.6178 O.2            1 RES1               0.0000
     18 H18        135.9220 144.8008 167.1929 H              1 RES1               0.0000
     19 H19        136.7694 143.7940 168.3805 H              1 RES1               0.0000
     20 H20        138.9916 143.0700 164.2977 H              1 RES1               0.0000
     21 H21        135.6650 142.5569 166.9453 H              1 RES1               0.0000
     22 H22        141.2066 143.7318 167.0670 H              1 RES1               0.0000
     23 H23        139.4467 146.5914 164.7814 H              1 RES1               0.0000
     24 H24        136.6036 146.1351 169.1606 H              1 RES1               0.0000
     25 H25        138.2906 145.6973 168.9009 H              1 RES1               0.0000
     26 H26        137.4482 146.6982 167.7202 H              1 RES1               0.0000
     27 H27        138.2130 141.1615 162.9651 H              1 RES1               0.0000
     28 H28        134.9014 140.6537 165.6025 H              1 RES1               0.0000
     29 H29        136.1678 139.9457 163.6102 H              1 RES1               0.0000
@<TRIPOS>BOND
    1    1    2 1     
    2    1    3 1     
    3    1    4 1     
    4    1    5 1     
    5    2    6 ar    
    6    2    7 ar    
    7    3    8 1     
    8    3    9 2     
    9    4   10 1     
   10    4   11 2     
   11    5   12 1     
   12    5   18 1     
   13    5   19 1     
   14    6   13 ar    
   15    6   20 1     
   16    7   14 ar    
   17    7   21 1     
   18    8   15 1     
   19    8   22 1     
   20   10   15 1     
   21   10   23 1     
   22   12   24 1     
   23   12   25 1     
   24   12   26 1     
   25   13   16 ar    
   26   13   27 1     
   27   14   16 ar    
   28   14   28 1     
   29   15   17 2     
   30   16   29 1     
@<TRIPOS>SUBSTRUCTURE
      1 RES1           1
@<TRIPOS>SET
DONOR_HYDROGENS      STATIC     ATOMS    <user>   **** ""
2 22 23
ATOM$RED        STATIC     ATOMS    COLORGROUP SYSTEM
2 22 23
@<TRIPOS>COMMENT
> <Gold.Version>
2022.3.0

> <Gold.Id.Protein>
unknown|7rmi_cavity_clean|pdb

> <Gold.Protein.RotatedTorsions>
[ 5081 5072 5071 5069 ] final  125.90 input   59.98 | X-H torsion
[ 5041 5025 5024 5021 ] final -106.04 input   60.00 | X-H torsion
[ 5032 5026 5027 5028 ] final   65.35 input  106.27 | X-H torsion
[ 5036 5031 5030 5027 ] final -139.47 input   60.01 | X-H torsion
[ 4987 4979 4980 4981 ] final  -45.44 input  111.67 | X-H torsion
[ 5133 5126 5127 5128 ] final   74.11 input   60.01 | X-H torsion
[ 14333 5029 5028 5027 ] final -149.99 input    0.00 | X-H torsion
[ 14340 4982 4981 4980 ] final   91.61 input    0.00 | X-H torsion

> <Gold.Protein.ActiveResidues>
 TRP99   VAL100  MET101  CYS103  ALA104  ASP118  ASN119  ILE120  SER122  TYR124 
 LEU126  VAL133  LEU139  HIS142 

> <Gold.Protein.RotatedAtoms>
  134.8588  135.5999  117.5126 H   0  0  0  0  0  0  0  0  0  0  0  0  # atno 4987 bound_to 4979
  136.5703  135.4009  119.4103 H   0  0  0  0  0  0  0  0  0  0  0  0  # atno 5032 bound_to 5026
  134.0952  136.9581  120.6651 H   0  0  0  0  0  0  0  0  0  0  0  0  # atno 5036 bound_to 5031
  156.4462  141.8805  165.1000 H   0  0  0  0  0  0  0  0  0  0  0  0  # atno 5041 bound_to 5025
  156.0624  143.1403  160.9646 H   0  0  0  0  0  0  0  0  0  0  0  0  # atno 5081 bound_to 5072
  159.6727  150.9533  155.2871 H   0  0  0  0  0  0  0  0  0  0  0  0  # atno 5133 bound_to 5126
  159.8884  152.4625  155.9379 H   0  0  0  0  0  0  0  0  0  0  0  0  # atno 5134 bound_to 5126
  157.0649  143.8122  159.8734 LP  0  0  0  0  0  0  0  0  0  0  0  0  # atno 14312 bound_to 5072
  155.4802  143.6271  159.5255 LP  0  0  0  0  0  0  0  0  0  0  0  0  # atno 14313 bound_to 5072
  155.0125  141.1836  164.7700 LP  0  0  0  0  0  0  0  0  0  0  0  0  # atno 14330 bound_to 5025
  155.4602  141.4424  166.3190 LP  0  0  0  0  0  0  0  0  0  0  0  0  # atno 14331 bound_to 5025
  138.1707  135.7715  119.9990 LP  0  0  0  0  0  0  0  0  0  0  0  0  # atno 14332 bound_to 5026
  136.6379  132.5768  123.1605 LP  0  0  0  0  0  0  0  0  0  0  0  0  # atno 14333 bound_to 5029
  136.4491  134.1730  123.8059 LP  0  0  0  0  0  0  0  0  0  0  0  0  # atno 14334 bound_to 5029
  133.8073  135.6068  121.5245 LP  0  0  0  0  0  0  0  0  0  0  0  0  # atno 14335 bound_to 5031
  134.7867  135.5544  120.2189 LP  0  0  0  0  0  0  0  0  0  0  0  0  # atno 14336 bound_to 5031
  134.7050  135.6987  115.7778 LP  0  0  0  0  0  0  0  0  0  0  0  0  # atno 14339 bound_to 4979
  137.9033  132.2248  117.5862 LP  0  0  0  0  0  0  0  0  0  0  0  0  # atno 14340 bound_to 4982
  136.9134  132.7618  118.9022 LP  0  0  0  0  0  0  0  0  0  0  0  0  # atno 14341 bound_to 4982
  161.0136  151.2874  156.1802 LP  0  0  0  0  0  0  0  0  0  0  0  0  # atno 14344 bound_to 5126

> <Gold.Score>
     Fitness  S(hb_ext) S(vdw_ext)  S(hb_int)    S(int)      intcor
     36.71       1.74      25.43       0.00      -0.00      -0.76

> <Gold.Goldscore.Fitness>
36.7054

> <Gold.Goldscore.Internal.Vdw>
-0.3561

> <Gold.Goldscore.Internal.Torsion>
-0.4039

> <Gold.Goldscore.External.Vdw>
25.4287

> <Gold.Goldscore.Internal.HBond>
0.0000

> <Gold.Goldscore.External.HBond>
1.7443

> <Gold.Goldscore.Internal.Correction>
-0.7567

> <Gold.Goldscore.Hbonds>
donor molecule, donor type, donor heavy atom, donor atom, acceptor molecule, acceptor atom, score
      P1  H  4756  4762       L1    17  0.87

> <Gold.Goldscore.Internal.Vdw.Weighted>
-0.3561

> <Gold.Goldscore.Internal.Torsion.Weighted>
-0.4039

> <Gold.Goldscore.External.Vdw.Weighted>
34.9644

> <Gold.Goldscore.Internal.HBond.Weighted>
0.0000

> <Gold.Goldscore.External.HBond.Weighted>
1.7443

> <Gold.Goldscore.Internal.Correction.Weighted>
-0.7567

> <Gold.Rescore>
     Score     S(PLP)   S(hbond)     S(cho)   S(metal)  DE(clash)   DE(tors)     intcor
     26.85     -24.79       0.91       0.00       0.00       0.00       0.34       ----

> <Gold.PLP.Fitness>
26.8460

> <Gold.PLP.PLP>
-24.7898

> <Gold.PLP.part.hbond>
-2.5932

> <Gold.PLP.part.metal>
0.0000

> <Gold.PLP.part.buried>
-3.2762

> <Gold.PLP.part.nonpolar>
-19.8589

> <Gold.PLP.part.repulsive>
0.9372

> <Gold.PLP.ligand.clash>
0.0000

> <Gold.PLP.ligand.torsion>
0.3369

> <Gold.PLP.Chemscore.Hbond>
0.9100

> <Gold.PLP.Chemscore.CHOScore>
0.0000

> <Gold.PLP.Chemscore.Metal>
0.0000

> <Gold.Chemscore.Hbonds>
donor molecule, donor type, donor heavy atom, donor atom, acceptor molecule, acceptor atom, score
      P1  H  4756  4762       L1    17  0.55

> <Gold.PLP.Chemscore.Internal.Correction>
   9.000000E+99

#       Name:                CT1002167954
#       Creating user name   hitesit
#       Creation time:       Sun Apr 16 23:06:28 2023


#       File generated by GOLD software.
#

@<TRIPOS>MOLECULE
CT1002167954|ligand_prepared|mol2|1|dock1
    29    30     1
SMALL
NO_CHARGES


@<TRIPOS>ATOM
      1 C1         138.0711 144.8585 165.8057 C.3            1 RES1               0.0000
      2 C2         137.1593 145.6029 166.8023 C.ar           1 RES1               0.0000
      3 C3         138.6397 145.9208 164.8694 C.2            1 RES1               0.0000
      4 C4         139.1230 144.1406 166.6440 C.2            1 RES1               0.0000
      5 C5         137.3330 143.7986 164.9552 C.3            1 RES1               0.0000
      6 C6         137.6050 145.8960 168.0877 C.ar           1 RES1               0.0000
      7 C7         135.8734 146.0046 166.4506 C.ar           1 RES1               0.0000
      8 N8         139.9484 146.2693 165.0300 N.am           1 RES1               0.0000
      9 O9         137.9400 146.4727 164.0292 O.2            1 RES1               0.0000
     10 N10        140.4272 144.5421 166.5191 N.am           1 RES1               0.0000
     11 O11        138.8319 143.2422 167.4240 O.2            1 RES1               0.0000
     12 C12        138.2625 142.8870 164.1696 C.3            1 RES1               0.0000
     13 C13        136.7956 146.5688 168.9880 C.ar           1 RES1               0.0000
     14 C14        135.0656 146.6772 167.3526 C.ar           1 RES1               0.0000
     15 C15        140.8834 145.5944 165.7730 C.2            1 RES1               0.0000
     16 C16        135.5257 146.9603 168.6210 C.ar           1 RES1               0.0000
     17 O17        142.0646 145.9283 165.7541 O.2            1 RES1               0.0000
     18 H18        136.7126 143.1833 165.6185 H              1 RES1               0.0000
     19 H19        136.6652 144.3121 164.2525 H              1 RES1               0.0000
     20 H20        138.6005 145.5937 168.3953 H              1 RES1               0.0000
     21 H21        135.4900 145.7918 165.4585 H              1 RES1               0.0000
     22 H22        140.2607 147.1095 164.5537 H              1 RES1               0.0000
     23 H23        141.1224 144.0067 167.0294 H              1 RES1               0.0000
     24 H24        137.6937 142.1626 163.5906 H              1 RES1               0.0000
     25 H25        138.8771 143.4635 163.4813 H              1 RES1               0.0000
     26 H26        138.9242 142.3413 164.8391 H              1 RES1               0.0000
     27 H27        137.1619 146.7880 169.9855 H              1 RES1               0.0000
     28 H28        134.0666 146.9829 167.0596 H              1 RES1               0.0000
     29 H29        134.8920 147.4877 169.3263 H              1 RES1               0.0000
@<TRIPOS>BOND
    1    1    2 1     
    2    1    3 1     
    3    1    4 1     
    4    1    5 1     
    5    2    6 ar    
    6    2    7 ar    
    7    3    8 1     
    8    3    9 2     
    9    4   10 1     
   10    4   11 2     
   11    5   12 1     
   12    5   18 1     
   13    5   19 1     
   14    6   13 ar    
   15    6   20 1     
   16    7   14 ar    
   17    7   21 1     
   18    8   15 1     
   19    8   22 1     
   20   10   15 1     
   21   10   23 1     
   22   12   24 1     
   23   12   25 1     
   24   12   26 1     
   25   13   16 ar    
   26   13   27 1     
   27   14   16 ar    
   28   14   28 1     
   29   15   17 2     
   30   16   29 1     
@<TRIPOS>SUBSTRUCTURE
      1 RES1           1
@<TRIPOS>SET
DONOR_HYDROGENS      STATIC     ATOMS    <user>   **** ""
2 22 23
ATOM$RED        STATIC     ATOMS    COLORGROUP SYSTEM
2 22 23
@<TRIPOS>COMMENT
> <Gold.Version>
2022.3.0

> <Gold.Id.Protein>
unknown|7rmi_cavity_clean|pdb

> <Gold.Protein.RotatedTorsions>
[ 5081 5072 5071 5069 ] final   10.13 input   59.98 | X-H torsion
[ 5041 5025 5024 5021 ] final   43.11 input   60.00 | X-H torsion
[ 5032 5026 5027 5028 ] final   69.11 input  106.27 | X-H torsion
[ 5036 5031 5030 5027 ] final  -61.66 input   60.01 | X-H torsion
[ 4987 4979 4980 4981 ] final  147.03 input  111.67 | X-H torsion
[ 5133 5126 5127 5128 ] final  -39.29 input   60.01 | X-H torsion
[ 14333 5029 5028 5027 ] final   73.52 input    0.00 | X-H torsion
[ 14340 4982 4981 4980 ] final -175.70 input    0.00 | X-H torsion

> <Gold.Protein.ActiveResidues>
 TRP99   VAL100  MET101  CYS103  ALA104  ASP118  ASN119  ILE120  SER122  TYR124 
 LEU126  VAL133  LEU139  HIS142 

> <Gold.Protein.RotatedAtoms>
  134.5370  135.6119  115.7968 H   0  0  0  0  0  0  0  0  0  0  0  0  # atno 4987 bound_to 4979
  136.5589  135.4575  119.4115 H   0  0  0  0  0  0  0  0  0  0  0  0  # atno 5032 bound_to 5026
  134.7511  136.2063  120.0429 H   0  0  0  0  0  0  0  0  0  0  0  0  # atno 5036 bound_to 5031
  155.0810  141.2574  166.1052 H   0  0  0  0  0  0  0  0  0  0  0  0  # atno 5041 bound_to 5025
  157.0803  143.7906  159.9380 H   0  0  0  0  0  0  0  0  0  0  0  0  # atno 5081 bound_to 5072
  161.0087  151.1865  156.1364 H   0  0  0  0  0  0  0  0  0  0  0  0  # atno 5133 bound_to 5126
  159.6006  151.0361  155.2746 H   0  0  0  0  0  0  0  0  0  0  0  0  # atno 5134 bound_to 5126
  155.5248  143.6556  159.4804 LP  0  0  0  0  0  0  0  0  0  0  0  0  # atno 14312 bound_to 5072
  155.9947  143.1284  160.9528 LP  0  0  0  0  0  0  0  0  0  0  0  0  # atno 14313 bound_to 5072
  156.4755  141.9057  165.5714 LP  0  0  0  0  0  0  0  0  0  0  0  0  # atno 14330 bound_to 5025
  155.3711  141.3473  164.5060 LP  0  0  0  0  0  0  0  0  0  0  0  0  # atno 14331 bound_to 5025
  138.1820  135.7158  119.9979 LP  0  0  0  0  0  0  0  0  0  0  0  0  # atno 14332 bound_to 5026
  135.8875  133.8645  123.7659 LP  0  0  0  0  0  0  0  0  0  0  0  0  # atno 14333 bound_to 5029
  137.1995  132.8852  123.2004 LP  0  0  0  0  0  0  0  0  0  0  0  0  # atno 14334 bound_to 5029
  133.7475  136.7454  121.2046 LP  0  0  0  0  0  0  0  0  0  0  0  0  # atno 14335 bound_to 5031
  134.1860  135.1728  121.1653 LP  0  0  0  0  0  0  0  0  0  0  0  0  # atno 14336 bound_to 5031
  135.0225  135.6869  117.4706 LP  0  0  0  0  0  0  0  0  0  0  0  0  # atno 14339 bound_to 4979
  138.0628  132.9230  118.6145 LP  0  0  0  0  0  0  0  0  0  0  0  0  # atno 14340 bound_to 4982
  136.7539  132.0636  117.8739 LP  0  0  0  0  0  0  0  0  0  0  0  0  # atno 14341 bound_to 4982
  159.9810  152.4639  155.9972 LP  0  0  0  0  0  0  0  0  0  0  0  0  # atno 14344 bound_to 5126

> <Gold.Score>
     Fitness  S(hb_ext) S(vdw_ext)  S(hb_int)    S(int)      intcor
     35.75       1.55      25.74       0.00      -1.20      -0.78

> <Gold.Goldscore.Fitness>
35.7474

> <Gold.Goldscore.Internal.Vdw>
-1.4337

> <Gold.Goldscore.Internal.Torsion>
-0.5542

> <Gold.Goldscore.External.Vdw>
25.7438

> <Gold.Goldscore.Internal.HBond>
0.0000

> <Gold.Goldscore.External.HBond>
1.5538

> <Gold.Goldscore.Internal.Correction>
-0.7838

> <Gold.Goldscore.Hbonds>
donor molecule, donor type, donor heavy atom, donor atom, acceptor molecule, acceptor atom, score
      P1  H  4756  4762       L1    17  0.78

> <Gold.Goldscore.Internal.Vdw.Weighted>
-1.4337

> <Gold.Goldscore.Internal.Torsion.Weighted>
-0.5542

> <Gold.Goldscore.External.Vdw.Weighted>
35.3977

> <Gold.Goldscore.Internal.HBond.Weighted>
0.0000

> <Gold.Goldscore.External.HBond.Weighted>
1.5538

> <Gold.Goldscore.Internal.Correction.Weighted>
-0.7838

> <Gold.Rescore>
     Score     S(PLP)   S(hbond)     S(cho)   S(metal)  DE(clash)   DE(tors)     intcor
     33.45     -32.97       1.00       0.00       0.00       0.63       0.95       ----

> <Gold.PLP.Fitness>
33.4482

> <Gold.PLP.PLP>
-32.9733

> <Gold.PLP.part.hbond>
-2.2672

> <Gold.PLP.part.metal>
0.0000

> <Gold.PLP.part.buried>
-7.9881

> <Gold.PLP.part.nonpolar>
-25.2204

> <Gold.PLP.part.repulsive>
2.4084

> <Gold.PLP.ligand.clash>
0.6316

> <Gold.PLP.ligand.torsion>
0.9468

> <Gold.PLP.Chemscore.Hbond>
1.0000

> <Gold.PLP.Chemscore.CHOScore>
0.0000

> <Gold.PLP.Chemscore.Metal>
0.0000

> <Gold.Chemscore.Hbonds>
donor molecule, donor type, donor heavy atom, donor atom, acceptor molecule, acceptor atom, score
      P1  H  4756  4762       L1    17  1.00

> <Gold.PLP.Chemscore.Internal.Correction>
   9.000000E+99

#       Name:                CT1002167954
#       Creating user name   hitesit
#       Creation time:       Sun Apr 16 23:06:41 2023


#       File generated by GOLD software.
#

@<TRIPOS>MOLECULE
CT1002167954|ligand_prepared|mol2|1|dock7
    29    30     1
SMALL
NO_CHARGES


@<TRIPOS>ATOM
      1 C1         137.5741 143.4283 165.4466 C.3            1 RES1               0.0000
      2 C2         136.8272 142.1667 164.9677 C.ar           1 RES1               0.0000
      3 C3         136.5967 144.1942 166.3333 C.2            1 RES1               0.0000
      4 C4         138.8199 142.9358 166.1748 C.2            1 RES1               0.0000
      5 C5         138.0285 144.3590 164.2983 C.3            1 RES1               0.0000
      6 C6         135.7578 141.6565 165.6976 C.ar           1 RES1               0.0000
      7 C7         137.1936 141.5050 163.7988 C.ar           1 RES1               0.0000
      8 N8         136.8119 144.1690 167.6797 N.am           1 RES1               0.0000
      9 O9         135.6291 144.7786 165.8615 O.2            1 RES1               0.0000
     10 N10        138.9131 143.1741 167.5210 N.am           1 RES1               0.0000
     11 O11        139.7140 142.3291 165.5980 O.2            1 RES1               0.0000
     12 C12        138.4975 145.7274 164.7672 C.3            1 RES1               0.0000
     13 C13        135.0773 140.5274 165.2729 C.ar           1 RES1               0.0000
     14 C14        136.5119 140.3758 163.3759 C.ar           1 RES1               0.0000
     15 C15        137.9515 143.7412 168.3122 C.2            1 RES1               0.0000
     16 C16        135.4536 139.8866 164.1116 C.ar           1 RES1               0.0000
     17 O17        138.0865 143.8723 169.5254 O.2            1 RES1               0.0000
     18 H18        138.8469 143.8731 163.7527 H              1 RES1               0.0000
     19 H19        137.1929 144.4924 163.6001 H              1 RES1               0.0000
     20 H20        135.4489 142.1459 166.6153 H              1 RES1               0.0000
     21 H21        138.0238 141.8713 163.2045 H              1 RES1               0.0000
     22 H22        136.0556 144.4986 168.2711 H              1 RES1               0.0000
     23 H23        139.7795 142.9037 167.9754 H              1 RES1               0.0000
     24 H24        138.8048 146.3402 163.9224 H              1 RES1               0.0000
     25 H25        137.7002 146.2494 165.2922 H              1 RES1               0.0000
     26 H26        139.3444 145.6338 165.4439 H              1 RES1               0.0000
     27 H27        134.2460 140.1456 165.8562 H              1 RES1               0.0000
     28 H28        136.8119 139.8744 162.4617 H              1 RES1               0.0000
     29 H29        134.9201 139.0024 163.7789 H              1 RES1               0.0000
@<TRIPOS>BOND
    1    1    2 1     
    2    1    3 1     
    3    1    4 1     
    4    1    5 1     
    5    2    6 ar    
    6    2    7 ar    
    7    3    8 1     
    8    3    9 2     
    9    4   10 1     
   10    4   11 2     
   11    5   12 1     
   12    5   18 1     
   13    5   19 1     
   14    6   13 ar    
   15    6   20 1     
   16    7   14 ar    
   17    7   21 1     
   18    8   15 1     
   19    8   22 1     
   20   10   15 1     
   21   10   23 1     
   22   12   24 1     
   23   12   25 1     
   24   12   26 1     
   25   13   16 ar    
   26   13   27 1     
   27   14   16 ar    
   28   14   28 1     
   29   15   17 2     
   30   16   29 1     
@<TRIPOS>SUBSTRUCTURE
      1 RES1           1
@<TRIPOS>SET
DONOR_HYDROGENS      STATIC     ATOMS    <user>   **** ""
2 22 23
ATOM$RED        STATIC     ATOMS    COLORGROUP SYSTEM
2 22 23
@<TRIPOS>COMMENT
> <Gold.Version>
2022.3.0

> <Gold.Id.Protein>
unknown|7rmi_cavity_clean|pdb

> <Gold.Protein.RotatedTorsions>
[ 5081 5072 5071 5069 ] final  149.88 input   59.98 | X-H torsion
[ 5041 5025 5024 5021 ] final -120.30 input   60.00 | X-H torsion
[ 5032 5026 5027 5028 ] final  -44.99 input  106.27 | X-H torsion
[ 5036 5031 5030 5027 ] final -104.89 input   60.01 | X-H torsion
[ 4987 4979 4980 4981 ] final   65.30 input  111.67 | X-H torsion
[ 5133 5126 5127 5128 ] final  105.70 input   60.01 | X-H torsion
[ 14333 5029 5028 5027 ] final  -22.93 input    0.00 | X-H torsion
[ 14340 4982 4981 4980 ] final   56.63 input    0.00 | X-H torsion

> <Gold.Protein.ActiveResidues>
 TRP99   VAL100  MET101  CYS103  ALA104  ASP118  ASN119  ILE120  SER122  TYR124 
 LEU126  VAL133  LEU139  HIS142 

> <Gold.Protein.RotatedAtoms>
  135.4632  136.0792  116.2907 H   0  0  0  0  0  0  0  0  0  0  0  0  # atno 4987 bound_to 4979
  137.8467  134.8509  119.7968 H   0  0  0  0  0  0  0  0  0  0  0  0  # atno 5032 bound_to 5026
  134.4378  136.7792  120.2648 H   0  0  0  0  0  0  0  0  0  0  0  0  # atno 5036 bound_to 5031
  156.3581  141.8323  164.8903 H   0  0  0  0  0  0  0  0  0  0  0  0  # atno 5041 bound_to 5025
  155.7053  143.1306  160.8109 H   0  0  0  0  0  0  0  0  0  0  0  0  # atno 5081 bound_to 5072
  159.4054  151.4005  155.2895 H   0  0  0  0  0  0  0  0  0  0  0  0  # atno 5133 bound_to 5126
  160.3438  152.4298  156.1883 H   0  0  0  0  0  0  0  0  0  0  0  0  # atno 5134 bound_to 5126
  157.1269  143.6719  160.2340 LP  0  0  0  0  0  0  0  0  0  0  0  0  # atno 14312 bound_to 5072
  155.7780  143.7771  159.3197 LP  0  0  0  0  0  0  0  0  0  0  0  0  # atno 14313 bound_to 5072
  154.8908  141.1311  164.9628 LP  0  0  0  0  0  0  0  0  0  0  0  0  # atno 14330 bound_to 5025
  155.6705  141.5434  166.3372 LP  0  0  0  0  0  0  0  0  0  0  0  0  # atno 14331 bound_to 5025
  136.9124  136.3138  119.6181 LP  0  0  0  0  0  0  0  0  0  0  0  0  # atno 14332 bound_to 5026
  137.1676  133.9592  123.6212 LP  0  0  0  0  0  0  0  0  0  0  0  0  # atno 14333 bound_to 5029
  135.9194  132.7905  123.3452 LP  0  0  0  0  0  0  0  0  0  0  0  0  # atno 14334 bound_to 5029
  133.6540  136.1456  121.5421 LP  0  0  0  0  0  0  0  0  0  0  0  0  # atno 14335 bound_to 5031
  134.5949  135.1957  120.6044 LP  0  0  0  0  0  0  0  0  0  0  0  0  # atno 14336 bound_to 5031
  134.1087  135.2258  116.9833 LP  0  0  0  0  0  0  0  0  0  0  0  0  # atno 14339 bound_to 4979
  137.4249  132.0339  117.5102 LP  0  0  0  0  0  0  0  0  0  0  0  0  # atno 14340 bound_to 4982
  137.3918  132.9527  118.9781 LP  0  0  0  0  0  0  0  0  0  0  0  0  # atno 14341 bound_to 4982
  160.8280  150.8791  155.9310 LP  0  0  0  0  0  0  0  0  0  0  0  0  # atno 14344 bound_to 5126

> <Gold.Score>
     Fitness  S(hb_ext) S(vdw_ext)  S(hb_int)    S(int)      intcor
     35.52       0.00      26.55       0.00      -0.98      -0.76

> <Gold.Goldscore.Fitness>
35.5212

> <Gold.Goldscore.Internal.Vdw>
-1.1333

> <Gold.Goldscore.Internal.Torsion>
-0.6025

> <Gold.Goldscore.External.Vdw>
26.5457

> <Gold.Goldscore.Internal.HBond>
0.0000

> <Gold.Goldscore.External.HBond>
0.0000

> <Gold.Goldscore.Internal.Correction>
-0.7567

> <Gold.Goldscore.Internal.Vdw.Weighted>
-1.1333

> <Gold.Goldscore.Internal.Torsion.Weighted>
-0.6025

> <Gold.Goldscore.External.Vdw.Weighted>
36.5003

> <Gold.Goldscore.Internal.HBond.Weighted>
0.0000

> <Gold.Goldscore.External.HBond.Weighted>
0.0000

> <Gold.Goldscore.Internal.Correction.Weighted>
-0.7567

> <Gold.Rescore>
     Score     S(PLP)   S(hbond)     S(cho)   S(metal)  DE(clash)   DE(tors)     intcor
     22.38     -22.41       0.00       0.00       0.00       0.00       0.01       ----

> <Gold.PLP.Fitness>
22.3824

> <Gold.PLP.PLP>
-22.4068

> <Gold.PLP.part.hbond>
0.0940

> <Gold.PLP.part.metal>
0.0000

> <Gold.PLP.part.buried>
0.9081

> <Gold.PLP.part.nonpolar>
-25.4580

> <Gold.PLP.part.repulsive>
1.3416

> <Gold.PLP.ligand.clash>
0.0000

> <Gold.PLP.ligand.torsion>
0.0122

> <Gold.PLP.Chemscore.Hbond>
0.0000

> <Gold.PLP.Chemscore.CHOScore>
0.0000

> <Gold.PLP.Chemscore.Metal>
0.0000

> <Gold.PLP.Chemscore.Internal.Correction>
   9.000000E+99

#       Name:                CT1002167954
#       Creating user name   hitesit
#       Creation time:       Sun Apr 16 23:06:37 2023


#       File generated by GOLD software.
#

@<TRIPOS>MOLECULE
CT1002167954|ligand_prepared|mol2|1|dock5
    29    30     1
SMALL
NO_CHARGES


@<TRIPOS>ATOM
      1 C1         137.6992 143.6087 166.3840 C.3            1 RES1               0.0000
      2 C2         137.2872 142.3866 165.5380 C.ar           1 RES1               0.0000
      3 C3         139.0029 143.2283 167.0797 C.2            1 RES1               0.0000
      4 C4         137.8304 144.7758 165.4118 C.2            1 RES1               0.0000
      5 C5         136.6627 143.9998 167.4629 C.3            1 RES1               0.0000
      6 C6         137.9048 142.1287 164.3179 C.ar           1 RES1               0.0000
      7 C7         136.2949 141.5083 165.9651 C.ar           1 RES1               0.0000
      8 N8         140.1544 143.7936 166.6168 N.am           1 RES1               0.0000
      9 O9         139.0250 142.4144 167.9948 O.2            1 RES1               0.0000
     10 N10        139.0749 145.3174 165.2230 N.am           1 RES1               0.0000
     11 O11        136.8702 145.2206 164.7951 O.2            1 RES1               0.0000
     12 C12        136.9440 145.3387 168.1266 C.3            1 RES1               0.0000
     13 C13        137.5455 141.0309 163.5537 C.ar           1 RES1               0.0000
     14 C14        135.9369 140.4111 165.1992 C.ar           1 RES1               0.0000
     15 C15        140.2480 144.8593 165.7581 C.2            1 RES1               0.0000
     16 C16        136.5618 140.1712 163.9939 C.ar           1 RES1               0.0000
     17 O17        141.3355 145.3660 165.4980 O.2            1 RES1               0.0000
     18 H18        135.6686 144.0368 167.0006 H              1 RES1               0.0000
     19 H19        136.6448 143.2202 168.2345 H              1 RES1               0.0000
     20 H20        138.6794 142.7955 163.9540 H              1 RES1               0.0000
     21 H21        135.7889 141.6778 166.9095 H              1 RES1               0.0000
     22 H22        141.0266 143.3864 166.9387 H              1 RES1               0.0000
     23 H23        139.1322 146.1381 164.6285 H              1 RES1               0.0000
     24 H24        136.1873 145.5648 168.8749 H              1 RES1               0.0000
     25 H25        137.9145 145.3292 168.6182 H              1 RES1               0.0000
     26 H26        136.9441 146.1410 167.3916 H              1 RES1               0.0000
     27 H27        138.0394 140.8473 162.6052 H              1 RES1               0.0000
     28 H28        135.1617 139.7375 165.5493 H              1 RES1               0.0000
     29 H29        136.2808 139.3111 163.3952 H              1 RES1               0.0000
@<TRIPOS>BOND
    1    1    2 1     
    2    1    3 1     
    3    1    4 1     
    4    1    5 1     
    5    2    6 ar    
    6    2    7 ar    
    7    3    8 1     
    8    3    9 2     
    9    4   10 1     
   10    4   11 2     
   11    5   12 1     
   12    5   18 1     
   13    5   19 1     
   14    6   13 ar    
   15    6   20 1     
   16    7   14 ar    
   17    7   21 1     
   18    8   15 1     
   19    8   22 1     
   20   10   15 1     
   21   10   23 1     
   22   12   24 1     
   23   12   25 1     
   24   12   26 1     
   25   13   16 ar    
   26   13   27 1     
   27   14   16 ar    
   28   14   28 1     
   29   15   17 2     
   30   16   29 1     
@<TRIPOS>SUBSTRUCTURE
      1 RES1           1
@<TRIPOS>SET
DONOR_HYDROGENS      STATIC     ATOMS    <user>   **** ""
2 22 23
ATOM$RED        STATIC     ATOMS    COLORGROUP SYSTEM
2 22 23
@<TRIPOS>COMMENT
> <Gold.Version>
2022.3.0

> <Gold.Id.Protein>
unknown|7rmi_cavity_clean|pdb

> <Gold.Protein.RotatedTorsions>
[ 5081 5072 5071 5069 ] final  -74.32 input   59.98 | X-H torsion
[ 5041 5025 5024 5021 ] final  131.44 input   60.00 | X-H torsion
[ 5032 5026 5027 5028 ] final  -49.86 input  106.27 | X-H torsion
[ 5036 5031 5030 5027 ] final -164.29 input   60.01 | X-H torsion
[ 4987 4979 4980 4981 ] final  152.57 input  111.67 | X-H torsion
[ 5133 5126 5127 5128 ] final    3.76 input   60.01 | X-H torsion
[ 14333 5029 5028 5027 ] final -119.47 input    0.00 | X-H torsion
[ 14340 4982 4981 4980 ] final  -59.10 input    0.00 | X-H torsion

> <Gold.Protein.ActiveResidues>
 TRP99   VAL100  MET101  CYS103  ALA104  ASP118  ASN119  ILE120  SER122  TYR124 
 LEU126  VAL133  LEU139  HIS142 

> <Gold.Protein.RotatedAtoms>
  134.4680  135.5700  115.8230 H   0  0  0  0  0  0  0  0  0  0  0  0  # atno 4987 bound_to 4979
  137.9033  134.8936  119.8199 H   0  0  0  0  0  0  0  0  0  0  0  0  # atno 5032 bound_to 5026
  133.8721  136.8860  120.9921 H   0  0  0  0  0  0  0  0  0  0  0  0  # atno 5036 bound_to 5031
  154.9911  141.1768  164.8053 H   0  0  0  0  0  0  0  0  0  0  0  0  # atno 5041 bound_to 5025
  156.0188  143.8532  159.2661 H   0  0  0  0  0  0  0  0  0  0  0  0  # atno 5081 bound_to 5072
  160.6405  150.7200  155.7619 H   0  0  0  0  0  0  0  0  0  0  0  0  # atno 5133 bound_to 5126
  159.3559  151.6883  155.3616 H   0  0  0  0  0  0  0  0  0  0  0  0  # atno 5134 bound_to 5126
  155.5089  143.1570  160.6454 LP  0  0  0  0  0  0  0  0  0  0  0  0  # atno 14312 bound_to 5072
  157.0801  143.5640  160.4648 LP  0  0  0  0  0  0  0  0  0  0  0  0  # atno 14313 bound_to 5072
  155.4970  141.4602  166.3264 LP  0  0  0  0  0  0  0  0  0  0  0  0  # atno 14330 bound_to 5025
  156.4400  141.8739  165.0591 LP  0  0  0  0  0  0  0  0  0  0  0  0  # atno 14331 bound_to 5025
  136.8566  136.2716  119.5952 LP  0  0  0  0  0  0  0  0  0  0  0  0  # atno 14332 bound_to 5026
  137.0582  132.7531  123.1693 LP  0  0  0  0  0  0  0  0  0  0  0  0  # atno 14333 bound_to 5029
  136.0288  133.9966  123.7971 LP  0  0  0  0  0  0  0  0  0  0  0  0  # atno 14334 bound_to 5029
  134.0147  135.3053  121.3503 LP  0  0  0  0  0  0  0  0  0  0  0  0  # atno 14335 bound_to 5031
  134.8040  135.9284  120.0638 LP  0  0  0  0  0  0  0  0  0  0  0  0  # atno 14336 bound_to 5031
  135.0906  135.7282  117.4448 LP  0  0  0  0  0  0  0  0  0  0  0  0  # atno 14339 bound_to 4979
  136.6448  132.5232  118.6518 LP  0  0  0  0  0  0  0  0  0  0  0  0  # atno 14340 bound_to 4982
  138.1719  132.4634  117.8366 LP  0  0  0  0  0  0  0  0  0  0  0  0  # atno 14341 bound_to 4982
  160.5850  152.2805  156.2804 LP  0  0  0  0  0  0  0  0  0  0  0  0  # atno 14344 bound_to 5126

> <Gold.Score>
     Fitness  S(hb_ext) S(vdw_ext)  S(hb_int)    S(int)      intcor
     35.51       0.76      25.33       0.00      -0.09      -0.76

> <Gold.Goldscore.Fitness>
35.5067

> <Gold.Goldscore.Internal.Vdw>
-0.3112

> <Gold.Goldscore.Internal.Torsion>
-0.5318

> <Gold.Goldscore.External.Vdw>
25.3302

> <Gold.Goldscore.Internal.HBond>
0.0000

> <Gold.Goldscore.External.HBond>
0.7639

> <Gold.Goldscore.Internal.Correction>
-0.7567

> <Gold.Goldscore.Hbonds>
donor molecule, donor type, donor heavy atom, donor atom, acceptor molecule, acceptor atom, score
      P1  H  4756  4762       L1    17  0.38

> <Gold.Goldscore.Internal.Vdw.Weighted>
-0.3112

> <Gold.Goldscore.Internal.Torsion.Weighted>
-0.5318

> <Gold.Goldscore.External.Vdw.Weighted>
34.8291

> <Gold.Goldscore.Internal.HBond.Weighted>
0.0000

> <Gold.Goldscore.External.HBond.Weighted>
0.7639

> <Gold.Goldscore.Internal.Correction.Weighted>
-0.7567

> <Gold.Rescore>
     Score     S(PLP)   S(hbond)     S(cho)   S(metal)  DE(clash)   DE(tors)     intcor
     24.88     -26.98       0.00       0.00       0.00       0.00       1.05       ----

> <Gold.PLP.Fitness>
24.8805

> <Gold.PLP.PLP>
-26.9792

> <Gold.PLP.part.hbond>
-2.9908

> <Gold.PLP.part.metal>
0.0000

> <Gold.PLP.part.buried>
-5.4759

> <Gold.PLP.part.nonpolar>
-23.8355

> <Gold.PLP.part.repulsive>
4.3428

> <Gold.PLP.ligand.clash>
0.0000

> <Gold.PLP.ligand.torsion>
1.0493

> <Gold.PLP.Chemscore.Hbond>
0.0000

> <Gold.PLP.Chemscore.CHOScore>
0.0000

> <Gold.PLP.Chemscore.Metal>
0.0000

> <Gold.PLP.Chemscore.Internal.Correction>
   9.000000E+99

#       Name:                CT1002167954
#       Creating user name   hitesit
#       Creation time:       Sun Apr 16 23:06:47 2023


#       File generated by GOLD software.
#

@<TRIPOS>MOLECULE
CT1002167954|ligand_prepared|mol2|1|dock10
    29    30     1
SMALL
NO_CHARGES


@<TRIPOS>ATOM
      1 C1         137.6054 141.7992 166.6878 C.3            1 RES1               0.0000
      2 C2         136.8267 140.5821 166.1483 C.ar           1 RES1               0.0000
      3 C3         139.0499 141.6213 166.2293 C.2            1 RES1               0.0000
      4 C4         136.9183 143.0336 166.1143 C.2            1 RES1               0.0000
      5 C5         137.5905 141.9171 168.2297 C.3            1 RES1               0.0000
      6 C6         136.8078 140.3003 164.7856 C.ar           1 RES1               0.0000
      7 C7         136.1260 139.7321 166.9997 C.ar           1 RES1               0.0000
      8 N8         139.4948 142.4207 165.2179 N.am           1 RES1               0.0000
      9 O9         139.7754 140.7656 166.7207 O.2            1 RES1               0.0000
     10 N10        137.6229 143.8084 165.2305 N.am           1 RES1               0.0000
     11 O11        135.7673 143.3331 166.4071 O.2            1 RES1               0.0000
     12 C12        138.3927 143.0939 168.7624 C.3            1 RES1               0.0000
     13 C13        136.1160 139.2066 164.2922 C.ar           1 RES1               0.0000
     14 C14        135.4346 138.6390 166.5042 C.ar           1 RES1               0.0000
     15 C15        138.8690 143.5409 164.7328 C.2            1 RES1               0.0000
     16 C16        135.4293 138.3750 165.1510 C.ar           1 RES1               0.0000
     17 O17        139.4154 144.2571 163.8987 O.2            1 RES1               0.0000
     18 H18        136.5512 142.0171 168.5661 H              1 RES1               0.0000
     19 H19        137.9942 140.9916 168.6585 H              1 RES1               0.0000
     20 H20        137.3403 140.9449 164.0942 H              1 RES1               0.0000
     21 H21        136.1153 139.9208 168.0678 H              1 RES1               0.0000
     22 H22        140.3740 142.1616 164.7818 H              1 RES1               0.0000
     23 H23        137.1772 144.6638 164.9146 H              1 RES1               0.0000
     24 H24        138.3490 143.1302 169.8489 H              1 RES1               0.0000
     25 H25        139.4370 143.0138 168.4678 H              1 RES1               0.0000
     26 H26        138.0026 144.0332 168.3760 H              1 RES1               0.0000
     27 H27        136.1138 139.0040 163.2262 H              1 RES1               0.0000
     28 H28        134.8950 137.9875 167.1837 H              1 RES1               0.0000
     29 H29        134.8877 137.5181 164.7643 H              1 RES1               0.0000
@<TRIPOS>BOND
    1    1    2 1     
    2    1    3 1     
    3    1    4 1     
    4    1    5 1     
    5    2    6 ar    
    6    2    7 ar    
    7    3    8 1     
    8    3    9 2     
    9    4   10 1     
   10    4   11 2     
   11    5   12 1     
   12    5   18 1     
   13    5   19 1     
   14    6   13 ar    
   15    6   20 1     
   16    7   14 ar    
   17    7   21 1     
   18    8   15 1     
   19    8   22 1     
   20   10   15 1     
   21   10   23 1     
   22   12   24 1     
   23   12   25 1     
   24   12   26 1     
   25   13   16 ar    
   26   13   27 1     
   27   14   16 ar    
   28   14   28 1     
   29   15   17 2     
   30   16   29 1     
@<TRIPOS>SUBSTRUCTURE
      1 RES1           1
@<TRIPOS>SET
DONOR_HYDROGENS      STATIC     ATOMS    <user>   **** ""
2 22 23
ATOM$RED        STATIC     ATOMS    COLORGROUP SYSTEM
2 22 23
@<TRIPOS>COMMENT
> <Gold.Version>
2022.3.0

> <Gold.Id.Protein>
unknown|7rmi_cavity_clean|pdb

> <Gold.Protein.RotatedTorsions>
[ 5081 5072 5071 5069 ] final   27.16 input   59.98 | X-H torsion
[ 5041 5025 5024 5021 ] final  123.90 input   60.00 | X-H torsion
[ 5032 5026 5027 5028 ] final  -78.08 input  106.27 | X-H torsion
[ 5036 5031 5030 5027 ] final -130.59 input   60.01 | X-H torsion
[ 4987 4979 4980 4981 ] final   67.75 input  111.67 | X-H torsion
[ 5133 5126 5127 5128 ] final   29.65 input   60.01 | X-H torsion
[ 14333 5029 5028 5027 ] final   39.72 input    0.00 | X-H torsion
[ 14340 4982 4981 4980 ] final -102.16 input    0.00 | X-H torsion

> <Gold.Protein.ActiveResidues>
 TRP99   VAL100  MET101  CYS103  ALA104  ASP118  ASN119  ILE120  SER122  TYR124 
 LEU126  VAL133  LEU139  HIS142 

> <Gold.Protein.RotatedAtoms>
  135.4479  136.0744  116.2567 H   0  0  0  0  0  0  0  0  0  0  0  0  # atno 4987 bound_to 4979
  138.1457  135.2283  119.9326 H   0  0  0  0  0  0  0  0  0  0  0  0  # atno 5032 bound_to 5026
  134.1835  136.9424  120.5512 H   0  0  0  0  0  0  0  0  0  0  0  0  # atno 5036 bound_to 5031
  154.9257  141.1485  164.9058 H   0  0  0  0  0  0  0  0  0  0  0  0  # atno 5041 bound_to 5025
  157.1206  143.6905  160.1933 H   0  0  0  0  0  0  0  0  0  0  0  0  # atno 5081 bound_to 5072
  160.2838  150.6525  155.5334 H   0  0  0  0  0  0  0  0  0  0  0  0  # atno 5133 bound_to 5126
  159.4286  152.0725  155.5375 H   0  0  0  0  0  0  0  0  0  0  0  0  # atno 5134 bound_to 5126
  155.7394  143.7619  159.3366 LP  0  0  0  0  0  0  0  0  0  0  0  0  # atno 14312 bound_to 5072
  155.7395  143.1230  160.8394 LP  0  0  0  0  0  0  0  0  0  0  0  0  # atno 14313 bound_to 5072
  155.6082  141.5137  166.3379 LP  0  0  0  0  0  0  0  0  0  0  0  0  # atno 14330 bound_to 5025
  156.3946  141.8490  164.9465 LP  0  0  0  0  0  0  0  0  0  0  0  0  # atno 14331 bound_to 5025
  136.6176  135.9416  119.4841 LP  0  0  0  0  0  0  0  0  0  0  0  0  # atno 14332 bound_to 5026
  136.3065  134.1397  123.8132 LP  0  0  0  0  0  0  0  0  0  0  0  0  # atno 14333 bound_to 5029
  136.7805  132.6101  123.1532 LP  0  0  0  0  0  0  0  0  0  0  0  0  # atno 14334 bound_to 5029
  133.7504  135.7376  121.5554 LP  0  0  0  0  0  0  0  0  0  0  0  0  # atno 14335 bound_to 5031
  134.7546  135.4393  120.3027 LP  0  0  0  0  0  0  0  0  0  0  0  0  # atno 14336 bound_to 5031
  134.1238  135.2306  117.0168 LP  0  0  0  0  0  0  0  0  0  0  0  0  # atno 14339 bound_to 4979
  137.0892  132.8535  118.9642 LP  0  0  0  0  0  0  0  0  0  0  0  0  # atno 14340 bound_to 4982
  137.7275  132.1331  117.5242 LP  0  0  0  0  0  0  0  0  0  0  0  0  # atno 14341 bound_to 4982
  160.8648  151.9683  156.3323 LP  0  0  0  0  0  0  0  0  0  0  0  0  # atno 14344 bound_to 5126

> <Gold.Score>
     Fitness  S(hb_ext) S(vdw_ext)  S(hb_int)    S(int)      intcor
     34.33       1.10      24.21       0.00      -0.06      -0.76

> <Gold.Goldscore.Fitness>
34.3296

> <Gold.Goldscore.Internal.Vdw>
-0.4489

> <Gold.Goldscore.Internal.Torsion>
-0.3724

> <Gold.Goldscore.External.Vdw>
24.2116

> <Gold.Goldscore.Internal.HBond>
0.0000

> <Gold.Goldscore.External.HBond>
1.1033

> <Gold.Goldscore.Internal.Correction>
-0.7567

> <Gold.Goldscore.Hbonds>
donor molecule, donor type, donor heavy atom, donor atom, acceptor molecule, acceptor atom, score
      L1  H     8    22       P1  4728  0.55

> <Gold.Goldscore.Internal.Vdw.Weighted>
-0.4489

> <Gold.Goldscore.Internal.Torsion.Weighted>
-0.3724

> <Gold.Goldscore.External.Vdw.Weighted>
33.2909

> <Gold.Goldscore.Internal.HBond.Weighted>
0.0000

> <Gold.Goldscore.External.HBond.Weighted>
1.1033

> <Gold.Goldscore.Internal.Correction.Weighted>
-0.7567

> <Gold.Rescore>
     Score     S(PLP)   S(hbond)     S(cho)   S(metal)  DE(clash)   DE(tors)     intcor
     27.53     -24.54       1.00       0.00       0.00       0.00       0.00       ----

> <Gold.PLP.Fitness>
27.5348

> <Gold.PLP.PLP>
-24.5437

> <Gold.PLP.part.hbond>
-2.0000

> <Gold.PLP.part.metal>
0.0000

> <Gold.PLP.part.buried>
4.9137

> <Gold.PLP.part.nonpolar>
-32.2172

> <Gold.PLP.part.repulsive>
4.4656

> <Gold.PLP.ligand.clash>
0.0000

> <Gold.PLP.ligand.torsion>
0.0044

> <Gold.PLP.Chemscore.Hbond>
1.0000

> <Gold.PLP.Chemscore.CHOScore>
0.0000

> <Gold.PLP.Chemscore.Metal>
0.0000

> <Gold.Chemscore.Hbonds>
donor molecule, donor type, donor heavy atom, donor atom, acceptor molecule, acceptor atom, score
      L1  H     8    22       P1  4728  1.00

> <Gold.PLP.Chemscore.Internal.Correction>
   9.000000E+99

#       Name:                CT1002167954
#       Creating user name   hitesit
#       Creation time:       Sun Apr 16 23:06:32 2023


#       File generated by GOLD software.
#

@<TRIPOS>MOLECULE
CT1002167954|ligand_prepared|mol2|1|dock3
    29    30     1
SMALL
NO_CHARGES


@<TRIPOS>ATOM
      1 C1         138.1883 145.4674 165.6392 C.3            1 RES1               0.0000
      2 C2         137.2984 146.3843 166.5029 C.ar           1 RES1               0.0000
      3 C3         138.9587 146.3847 164.6941 C.2            1 RES1               0.0000
      4 C4         139.0713 144.6918 166.6106 C.2            1 RES1               0.0000
      5 C5         137.3956 144.4442 164.7929 C.3            1 RES1               0.0000
      6 C6         136.0013 146.6931 166.1040 C.ar           1 RES1               0.0000
      7 C7         137.7586 146.9258 167.7002 C.ar           1 RES1               0.0000
      8 N8         140.2832 146.5862 164.9492 N.am           1 RES1               0.0000
      9 O9         138.4036 146.9540 163.7625 O.2            1 RES1               0.0000
     10 N10        140.4211 144.9257 166.5782 N.am           1 RES1               0.0000
     11 O11        138.6084 143.8926 167.4151 O.2            1 RES1               0.0000
     12 C12        138.2543 143.3304 164.2148 C.3            1 RES1               0.0000
     13 C13        135.1927 147.5112 166.8755 C.ar           1 RES1               0.0000
     14 C14        136.9483 147.7438 168.4701 C.ar           1 RES1               0.0000
     15 C15        141.0637 145.8602 165.8127 C.2            1 RES1               0.0000
     16 C16        135.6654 148.0367 168.0591 C.ar           1 RES1               0.0000
     17 O17        142.2748 146.0494 165.8789 O.2            1 RES1               0.0000
     18 H18        136.6136 143.9980 165.4196 H              1 RES1               0.0000
     19 H19        136.9028 144.9742 163.9685 H              1 RES1               0.0000
     20 H20        135.6129 146.2908 165.1743 H              1 RES1               0.0000
     21 H21        138.7649 146.7099 168.0428 H              1 RES1               0.0000
     22 H22        140.7352 147.3470 164.4520 H              1 RES1               0.0000
     23 H23        141.0006 144.3497 167.1805 H              1 RES1               0.0000
     24 H24        137.6492 142.6407 163.6302 H              1 RES1               0.0000
     25 H25        139.0274 143.7367 163.5659 H              1 RES1               0.0000
     26 H26        138.7399 142.7663 165.0084 H              1 RES1               0.0000
     27 H27        134.1842 147.7397 166.5469 H              1 RES1               0.0000
     28 H28        137.3247 148.1557 169.4007 H              1 RES1               0.0000
     29 H29        135.0315 148.6771 168.6635 H              1 RES1               0.0000
@<TRIPOS>BOND
    1    1    2 1     
    2    1    3 1     
    3    1    4 1     
    4    1    5 1     
    5    2    6 ar    
    6    2    7 ar    
    7    3    8 1     
    8    3    9 2     
    9    4   10 1     
   10    4   11 2     
   11    5   12 1     
   12    5   18 1     
   13    5   19 1     
   14    6   13 ar    
   15    6   20 1     
   16    7   14 ar    
   17    7   21 1     
   18    8   15 1     
   19    8   22 1     
   20   10   15 1     
   21   10   23 1     
   22   12   24 1     
   23   12   25 1     
   24   12   26 1     
   25   13   16 ar    
   26   13   27 1     
   27   14   16 ar    
   28   14   28 1     
   29   15   17 2     
   30   16   29 1     
@<TRIPOS>SUBSTRUCTURE
      1 RES1           1
@<TRIPOS>SET
DONOR_HYDROGENS      STATIC     ATOMS    <user>   **** ""
2 22 23
ATOM$RED        STATIC     ATOMS    COLORGROUP SYSTEM
2 22 23
@<TRIPOS>COMMENT
> <Gold.Version>
2022.3.0

> <Gold.Id.Protein>
unknown|7rmi_cavity_clean|pdb

> <Gold.Protein.RotatedTorsions>
[ 5081 5072 5071 5069 ] final  159.03 input   59.98 | X-H torsion
[ 5041 5025 5024 5021 ] final  133.25 input   60.00 | X-H torsion
[ 5032 5026 5027 5028 ] final  -74.96 input  106.27 | X-H torsion
[ 5036 5031 5030 5027 ] final -153.79 input   60.01 | X-H torsion
[ 4987 4979 4980 4981 ] final -112.94 input  111.67 | X-H torsion
[ 5133 5126 5127 5128 ] final   15.66 input   60.01 | X-H torsion
[ 14333 5029 5028 5027 ] final  -96.85 input    0.00 | X-H torsion
[ 14340 4982 4981 4980 ] final   15.23 input    0.00 | X-H torsion

> <Gold.Protein.ActiveResidues>
 TRP99   VAL100  MET101  CYS103  ALA104  ASP118  ASN119  ILE120  SER122  TYR124 
 LEU126  VAL133  LEU139  HIS142 

> <Gold.Protein.RotatedAtoms>
  134.1061  135.2311  117.0133 H   0  0  0  0  0  0  0  0  0  0  0  0  # atno 4987 bound_to 4979
  138.1272  135.1855  119.9225 H   0  0  0  0  0  0  0  0  0  0  0  0  # atno 5032 bound_to 5026
  133.9606  136.9370  120.8545 H   0  0  0  0  0  0  0  0  0  0  0  0  # atno 5036 bound_to 5031
  155.0085  141.1845  164.7826 H   0  0  0  0  0  0  0  0  0  0  0  0  # atno 5041 bound_to 5025
  155.5888  143.1452  160.7189 H   0  0  0  0  0  0  0  0  0  0  0  0  # atno 5081 bound_to 5072
  160.4835  150.6662  155.6529 H   0  0  0  0  0  0  0  0  0  0  0  0  # atno 5133 bound_to 5126
  159.3685  151.8729  155.4332 H   0  0  0  0  0  0  0  0  0  0  0  0  # atno 5134 bound_to 5126
  157.1082  143.6103  160.3698 LP  0  0  0  0  0  0  0  0  0  0  0  0  # atno 14312 bound_to 5072
  155.9141  143.8241  159.2766 LP  0  0  0  0  0  0  0  0  0  0  0  0  # atno 14313 bound_to 5072
  155.4705  141.4474  166.3212 LP  0  0  0  0  0  0  0  0  0  0  0  0  # atno 14330 bound_to 5025
  156.4490  141.8790  165.0872 LP  0  0  0  0  0  0  0  0  0  0  0  0  # atno 14331 bound_to 5025
  136.6359  135.9838  119.4941 LP  0  0  0  0  0  0  0  0  0  0  0  0  # atno 14332 bound_to 5026
  137.2829  132.9998  123.2330 LP  0  0  0  0  0  0  0  0  0  0  0  0  # atno 14333 bound_to 5029
  135.8041  133.7500  123.7334 LP  0  0  0  0  0  0  0  0  0  0  0  0  # atno 14334 bound_to 5029
  133.9196  135.4190  121.4388 LP  0  0  0  0  0  0  0  0  0  0  0  0  # atno 14335 bound_to 5031
  134.8099  135.7633  120.1139 LP  0  0  0  0  0  0  0  0  0  0  0  0  # atno 14336 bound_to 5031
  135.4477  136.0625  116.2704 LP  0  0  0  0  0  0  0  0  0  0  0  0  # atno 14339 bound_to 4979
  136.8656  132.0243  117.7590 LP  0  0  0  0  0  0  0  0  0  0  0  0  # atno 14340 bound_to 4982
  137.9511  132.9623  118.7294 LP  0  0  0  0  0  0  0  0  0  0  0  0  # atno 14341 bound_to 4982
  160.7273  152.1516  156.3172 LP  0  0  0  0  0  0  0  0  0  0  0  0  # atno 14344 bound_to 5126

> <Gold.Score>
     Fitness  S(hb_ext) S(vdw_ext)  S(hb_int)    S(int)      intcor
     34.23       1.62      24.17       0.00      -0.62      -0.76

> <Gold.Goldscore.Fitness>
34.2347

> <Gold.Goldscore.Internal.Vdw>
-0.7004

> <Gold.Goldscore.Internal.Torsion>
-0.6734

> <Gold.Goldscore.External.Vdw>
24.1708

> <Gold.Goldscore.Internal.HBond>
0.0000

> <Gold.Goldscore.External.HBond>
1.6170

> <Gold.Goldscore.Internal.Correction>
-0.7567

> <Gold.Goldscore.Hbonds>
donor molecule, donor type, donor heavy atom, donor atom, acceptor molecule, acceptor atom, score
      P1  H  4756  4762       L1    17  0.81

> <Gold.Goldscore.Internal.Vdw.Weighted>
-0.7004

> <Gold.Goldscore.Internal.Torsion.Weighted>
-0.6734

> <Gold.Goldscore.External.Vdw.Weighted>
33.2348

> <Gold.Goldscore.Internal.HBond.Weighted>
0.0000

> <Gold.Goldscore.External.HBond.Weighted>
1.6170

> <Gold.Goldscore.Internal.Correction.Weighted>
-0.7567

> <Gold.Rescore>
     Score     S(PLP)   S(hbond)     S(cho)   S(metal)  DE(clash)   DE(tors)     intcor
     31.88     -31.29       1.00       0.00       0.00       0.00       1.21       ----

> <Gold.PLP.Fitness>
31.8757

> <Gold.PLP.PLP>
-31.2865

> <Gold.PLP.part.hbond>
-2.8491

> <Gold.PLP.part.metal>
0.0000

> <Gold.PLP.part.buried>
-8.5318

> <Gold.PLP.part.nonpolar>
-24.2635

> <Gold.PLP.part.repulsive>
3.7853

> <Gold.PLP.ligand.clash>
0.0000

> <Gold.PLP.ligand.torsion>
1.2054

> <Gold.PLP.Chemscore.Hbond>
1.0000

> <Gold.PLP.Chemscore.CHOScore>
0.0000

> <Gold.PLP.Chemscore.Metal>
0.0000

> <Gold.Chemscore.Hbonds>
donor molecule, donor type, donor heavy atom, donor atom, acceptor molecule, acceptor atom, score
      P1  H  4756  4762       L1    17  1.00

> <Gold.PLP.Chemscore.Internal.Correction>
   9.000000E+99

#       Name:                CT1002167954
#       Creating user name   hitesit
#       Creation time:       Sun Apr 16 23:06:39 2023


#       File generated by GOLD software.
#

@<TRIPOS>MOLECULE
CT1002167954|ligand_prepared|mol2|1|dock6
    29    30     1
SMALL
NO_CHARGES


@<TRIPOS>ATOM
      1 C1         137.1947 143.0059 167.3482 C.3            1 RES1               0.0000
      2 C2         136.5839 144.3558 167.7767 C.ar           1 RES1               0.0000
      3 C3         136.0936 142.2536 166.6067 C.2            1 RES1               0.0000
      4 C4         138.4078 143.3407 166.4875 C.2            1 RES1               0.0000
      5 C5         137.6745 142.1336 168.5315 C.3            1 RES1               0.0000
      6 C6         137.1743 145.1128 168.7841 C.ar           1 RES1               0.0000
      7 C7         135.4338 144.8574 167.1730 C.ar           1 RES1               0.0000
      8 N8         136.1971 142.1577 165.2502 N.am           1 RES1               0.0000
      9 O9         135.1290 141.7857 167.1989 O.2            1 RES1               0.0000
     10 N10        138.3708 142.9927 165.1626 N.am           1 RES1               0.0000
     11 O11        139.3886 143.9175 166.9408 O.2            1 RES1               0.0000
     12 C12        138.0629 140.7187 168.1323 C.3            1 RES1               0.0000
     13 C13        136.6364 146.3287 169.1721 C.ar           1 RES1               0.0000
     14 C14        134.8974 146.0735 167.5627 C.ar           1 RES1               0.0000
     15 C15        137.3080 142.4440 164.4981 C.2            1 RES1               0.0000
     16 C16        135.4980 146.8101 168.5614 C.ar           1 RES1               0.0000
     17 O17        137.3314 142.2094 163.2933 O.2            1 RES1               0.0000
     18 H18        138.5401 142.6185 168.9995 H              1 RES1               0.0000
     19 H19        136.8739 142.0821 169.2797 H              1 RES1               0.0000
     20 H20        138.0693 144.7491 169.2778 H              1 RES1               0.0000
     21 H21        134.9438 144.2946 166.3858 H              1 RES1               0.0000
     22 H22        135.3722 141.8444 164.7486 H              1 RES1               0.0000
     23 H23        139.2137 143.1578 164.6217 H              1 RES1               0.0000
     24 H24        138.3918 140.1497 168.9993 H              1 RES1               0.0000
     25 H25        137.2180 140.1982 167.6861 H              1 RES1               0.0000
     26 H26        138.8743 140.7314 167.4075 H              1 RES1               0.0000
     27 H27        137.1121 146.9039 169.9595 H              1 RES1               0.0000
     28 H28        134.0009 146.4482 167.0798 H              1 RES1               0.0000
     29 H29        135.0770 147.7628 168.8653 H              1 RES1               0.0000
@<TRIPOS>BOND
    1    1    2 1     
    2    1    3 1     
    3    1    4 1     
    4    1    5 1     
    5    2    6 ar    
    6    2    7 ar    
    7    3    8 1     
    8    3    9 2     
    9    4   10 1     
   10    4   11 2     
   11    5   12 1     
   12    5   18 1     
   13    5   19 1     
   14    6   13 ar    
   15    6   20 1     
   16    7   14 ar    
   17    7   21 1     
   18    8   15 1     
   19    8   22 1     
   20   10   15 1     
   21   10   23 1     
   22   12   24 1     
   23   12   25 1     
   24   12   26 1     
   25   13   16 ar    
   26   13   27 1     
   27   14   16 ar    
   28   14   28 1     
   29   15   17 2     
   30   16   29 1     
@<TRIPOS>SUBSTRUCTURE
      1 RES1           1
@<TRIPOS>SET
DONOR_HYDROGENS      STATIC     ATOMS    <user>   **** ""
2 22 23
ATOM$RED        STATIC     ATOMS    COLORGROUP SYSTEM
2 22 23
@<TRIPOS>COMMENT
> <Gold.Version>
2022.3.0

> <Gold.Id.Protein>
unknown|7rmi_cavity_clean|pdb

> <Gold.Protein.RotatedTorsions>
[ 5081 5072 5071 5069 ] final -111.82 input   59.98 | X-H torsion
[ 5041 5025 5024 5021 ] final  135.62 input   60.00 | X-H torsion
[ 5032 5026 5027 5028 ] final -158.21 input  106.27 | X-H torsion
[ 5036 5031 5030 5027 ] final   49.56 input   60.01 | X-H torsion
[ 4987 4979 4980 4981 ] final  172.68 input  111.67 | X-H torsion
[ 5133 5126 5127 5128 ] final   98.28 input   60.01 | X-H torsion
[ 14333 5029 5028 5027 ] final    3.22 input    0.00 | X-H torsion
[ 14340 4982 4981 4980 ] final  -41.69 input    0.00 | X-H torsion

> <Gold.Protein.ActiveResidues>
 TRP99   VAL100  MET101  CYS103  ALA104  ASP118  ASN119  ILE120  SER122  TYR124 
 LEU126  VAL133  LEU139  HIS142 

> <Gold.Protein.RotatedAtoms>
  134.2464  135.4271  115.9795 H   0  0  0  0  0  0  0  0  0  0  0  0  # atno 4987 bound_to 4979
  137.8241  136.3129  119.9199 H   0  0  0  0  0  0  0  0  0  0  0  0  # atno 5032 bound_to 5026
  134.2772  135.1426  121.0581 H   0  0  0  0  0  0  0  0  0  0  0  0  # atno 5036 bound_to 5031
  155.0322  141.1950  164.7539 H   0  0  0  0  0  0  0  0  0  0  0  0  # atno 5041 bound_to 5025
  155.5085  143.6438  159.5063 H   0  0  0  0  0  0  0  0  0  0  0  0  # atno 5081 bound_to 5072
  159.4491  151.2856  155.2745 H   0  0  0  0  0  0  0  0  0  0  0  0  # atno 5133 bound_to 5126
  160.2357  152.4622  156.1375 H   0  0  0  0  0  0  0  0  0  0  0  0  # atno 5134 bound_to 5126
  156.0256  143.1313  160.9613 LP  0  0  0  0  0  0  0  0  0  0  0  0  # atno 14312 bound_to 5072
  157.0776  143.8007  159.9068 LP  0  0  0  0  0  0  0  0  0  0  0  0  # atno 14313 bound_to 5072
  155.4363  141.4308  166.3131 LP  0  0  0  0  0  0  0  0  0  0  0  0  # atno 14330 bound_to 5025
  156.4593  141.8850  165.1242 LP  0  0  0  0  0  0  0  0  0  0  0  0  # atno 14331 bound_to 5025
  136.9347  134.8725  119.4966 LP  0  0  0  0  0  0  0  0  0  0  0  0  # atno 14332 bound_to 5026
  136.8439  134.1457  123.7394 LP  0  0  0  0  0  0  0  0  0  0  0  0  # atno 14333 bound_to 5029
  136.2432  132.6040  123.2270 LP  0  0  0  0  0  0  0  0  0  0  0  0  # atno 14334 bound_to 5029
  134.7076  136.3435  120.0481 LP  0  0  0  0  0  0  0  0  0  0  0  0  # atno 14335 bound_to 5031
  133.7031  136.6458  121.2996 LP  0  0  0  0  0  0  0  0  0  0  0  0  # atno 14336 bound_to 5031
  135.3092  135.8692  117.2903 LP  0  0  0  0  0  0  0  0  0  0  0  0  # atno 14339 bound_to 4979
  136.5753  132.3736  118.4482 LP  0  0  0  0  0  0  0  0  0  0  0  0  # atno 14340 bound_to 4982
  138.2414  132.6130  118.0402 LP  0  0  0  0  0  0  0  0  0  0  0  0  # atno 14341 bound_to 4982
  160.8916  150.9604  155.9959 LP  0  0  0  0  0  0  0  0  0  0  0  0  # atno 14344 bound_to 5126

> <Gold.Score>
     Fitness  S(hb_ext) S(vdw_ext)  S(hb_int)    S(int)      intcor
     33.21       0.00      24.95       0.00      -1.10      -0.76

> <Gold.Goldscore.Fitness>
33.2088

> <Gold.Goldscore.Internal.Vdw>
-1.3392

> <Gold.Goldscore.Internal.Torsion>
-0.5157

> <Gold.Goldscore.External.Vdw>
24.9506

> <Gold.Goldscore.Internal.HBond>
0.0000

> <Gold.Goldscore.External.HBond>
0.0000

> <Gold.Goldscore.Internal.Correction>
-0.7567

> <Gold.Goldscore.Internal.Vdw.Weighted>
-1.3392

> <Gold.Goldscore.Internal.Torsion.Weighted>
-0.5157

> <Gold.Goldscore.External.Vdw.Weighted>
34.3070

> <Gold.Goldscore.Internal.HBond.Weighted>
0.0000

> <Gold.Goldscore.External.HBond.Weighted>
0.0000

> <Gold.Goldscore.Internal.Correction.Weighted>
-0.7567

> <Gold.Rescore>
     Score     S(PLP)   S(hbond)     S(cho)   S(metal)  DE(clash)   DE(tors)     intcor
     11.29     -13.38       0.00       0.00       0.00       0.53       0.78       ----

> <Gold.PLP.Fitness>
11.2879

> <Gold.PLP.PLP>
-13.3753

> <Gold.PLP.part.hbond>
-1.0000

> <Gold.PLP.part.metal>
0.0000

> <Gold.PLP.part.buried>
1.0802

> <Gold.PLP.part.nonpolar>
-27.6412

> <Gold.PLP.part.repulsive>
12.7044

> <Gold.PLP.ligand.clash>
0.5349

> <Gold.PLP.ligand.torsion>
0.7763

> <Gold.PLP.Chemscore.Hbond>
0.0000

> <Gold.PLP.Chemscore.CHOScore>
0.0000

> <Gold.PLP.Chemscore.Metal>
0.0000

> <Gold.PLP.Chemscore.Internal.Correction>
   9.000000E+99

#       Name:                CT1002167954
#       Creating user name   hitesit
#       Creation time:       Sun Apr 16 23:06:43 2023


#       File generated by GOLD software.
#

@<TRIPOS>MOLECULE
CT1002167954|ligand_prepared|mol2|1|dock8
    29    30     1
SMALL
NO_CHARGES


@<TRIPOS>ATOM
      1 C1         138.1348 142.5390 165.3761 C.3            1 RES1               0.0000
      2 C2         138.4256 144.0294 165.1060 C.ar           1 RES1               0.0000
      3 C3         136.6370 142.4374 165.6492 C.2            1 RES1               0.0000
      4 C4         138.5934 141.7830 164.1340 C.2            1 RES1               0.0000
      5 C5         138.8961 141.9645 166.5934 C.3            1 RES1               0.0000
      6 C6         137.4907 144.8267 164.4525 C.ar           1 RES1               0.0000
      7 C7         139.6209 144.6208 165.5060 C.ar           1 RES1               0.0000
      8 N8         135.8524 141.8947 164.6746 N.am           1 RES1               0.0000
      9 O9         136.1465 142.8631 166.6876 O.2            1 RES1               0.0000
     10 N10        137.6406 141.1511 163.3786 N.am           1 RES1               0.0000
     11 O11        139.7693 141.7427 163.7935 O.2            1 RES1               0.0000
     12 C12        138.3305 140.6490 167.1052 C.3            1 RES1               0.0000
     13 C13        137.7404 146.1673 164.2103 C.ar           1 RES1               0.0000
     14 C14        139.8688 145.9616 165.2625 C.ar           1 RES1               0.0000
     15 C15        136.2874 141.1984 163.5756 C.2            1 RES1               0.0000
     16 C16        138.9292 146.7357 164.6154 C.ar           1 RES1               0.0000
     17 O17        135.4900 140.6488 162.8211 O.2            1 RES1               0.0000
     18 H18        139.9459 141.8125 166.3137 H              1 RES1               0.0000
     19 H19        138.8690 142.7005 167.4064 H              1 RES1               0.0000
     20 H20        136.5505 144.3963 164.1241 H              1 RES1               0.0000
     21 H21        140.3751 144.0308 166.0157 H              1 RES1               0.0000
     22 H22        134.8496 142.0180 164.7718 H              1 RES1               0.0000
     23 H23        137.9707 140.5937 162.5972 H              1 RES1               0.0000
     24 H24        138.9011 140.2902 167.9592 H              1 RES1               0.0000
     25 H25        137.2948 140.7694 167.4160 H              1 RES1               0.0000
     26 H26        138.3653 139.8866 166.3298 H              1 RES1               0.0000
     27 H27        136.9983 146.7719 163.6994 H              1 RES1               0.0000
     28 H28        140.8060 146.4046 165.5826 H              1 RES1               0.0000
     29 H29        139.1245 147.7861 164.4259 H              1 RES1               0.0000
@<TRIPOS>BOND
    1    1    2 1     
    2    1    3 1     
    3    1    4 1     
    4    1    5 1     
    5    2    6 ar    
    6    2    7 ar    
    7    3    8 1     
    8    3    9 2     
    9    4   10 1     
   10    4   11 2     
   11    5   12 1     
   12    5   18 1     
   13    5   19 1     
   14    6   13 ar    
   15    6   20 1     
   16    7   14 ar    
   17    7   21 1     
   18    8   15 1     
   19    8   22 1     
   20   10   15 1     
   21   10   23 1     
   22   12   24 1     
   23   12   25 1     
   24   12   26 1     
   25   13   16 ar    
   26   13   27 1     
   27   14   16 ar    
   28   14   28 1     
   29   15   17 2     
   30   16   29 1     
@<TRIPOS>SUBSTRUCTURE
      1 RES1           1
@<TRIPOS>SET
DONOR_HYDROGENS      STATIC     ATOMS    <user>   **** ""
2 22 23
ATOM$RED        STATIC     ATOMS    COLORGROUP SYSTEM
2 22 23
@<TRIPOS>COMMENT
> <Gold.Version>
2022.3.0

> <Gold.Id.Protein>
unknown|7rmi_cavity_clean|pdb

> <Gold.Protein.RotatedTorsions>
[ 5081 5072 5071 5069 ] final  -63.45 input   59.98 | X-H torsion
[ 5041 5025 5024 5021 ] final  -31.77 input   60.00 | X-H torsion
[ 5032 5026 5027 5028 ] final   36.62 input  106.27 | X-H torsion
[ 5036 5031 5030 5027 ] final   75.95 input   60.01 | X-H torsion
[ 4987 4979 4980 4981 ] final  155.51 input  111.67 | X-H torsion
[ 5133 5126 5127 5128 ] final   -6.89 input   60.01 | X-H torsion
[ 14333 5029 5028 5027 ] final -152.64 input    0.00 | X-H torsion
[ 14340 4982 4981 4980 ] final  -67.18 input    0.00 | X-H torsion

> <Gold.Protein.ActiveResidues>
 TRP99   VAL100  MET101  CYS103  ALA104  ASP118  ASN119  ILE120  SER122  TYR124 
 LEU126  VAL133  LEU139  HIS142 

> <Gold.Protein.RotatedAtoms>
  134.4325  135.5480  115.8400 H   0  0  0  0  0  0  0  0  0  0  0  0  # atno 4987 bound_to 4979
  136.7663  135.0128  119.4425 H   0  0  0  0  0  0  0  0  0  0  0  0  # atno 5032 bound_to 5026
  134.0164  135.3135  121.3505 H   0  0  0  0  0  0  0  0  0  0  0  0  # atno 5036 bound_to 5031
  156.1063  141.7491  166.1709 H   0  0  0  0  0  0  0  0  0  0  0  0  # atno 5041 bound_to 5025
  156.1919  143.8913  159.2620 H   0  0  0  0  0  0  0  0  0  0  0  0  # atno 5081 bound_to 5072
  160.7648  150.7991  155.8610 H   0  0  0  0  0  0  0  0  0  0  0  0  # atno 5133 bound_to 5126
  159.3754  151.5186  155.3136 H   0  0  0  0  0  0  0  0  0  0  0  0  # atno 5134 bound_to 5126
  155.4057  143.1952  160.5046 LP  0  0  0  0  0  0  0  0  0  0  0  0  # atno 14312 bound_to 5072
  157.0089  143.4874  160.6097 LP  0  0  0  0  0  0  0  0  0  0  0  0  # atno 14313 bound_to 5072
  156.0224  141.6596  164.5477 LP  0  0  0  0  0  0  0  0  0  0  0  0  # atno 14330 bound_to 5025
  154.7924  141.0986  165.4636 LP  0  0  0  0  0  0  0  0  0  0  0  0  # atno 14331 bound_to 5025
  137.9775  136.1541  119.9673 LP  0  0  0  0  0  0  0  0  0  0  0  0  # atno 14332 bound_to 5026
  136.5984  132.5716  123.1641 LP  0  0  0  0  0  0  0  0  0  0  0  0  # atno 14333 bound_to 5029
  136.4887  134.1781  123.8023 LP  0  0  0  0  0  0  0  0  0  0  0  0  # atno 14334 bound_to 5029
  134.8044  135.9244  120.0647 LP  0  0  0  0  0  0  0  0  0  0  0  0  # atno 14335 bound_to 5031
  133.8689  136.8929  120.9885 LP  0  0  0  0  0  0  0  0  0  0  0  0  # atno 14336 bound_to 5031
  135.1257  135.7499  117.4280 LP  0  0  0  0  0  0  0  0  0  0  0  0  # atno 14339 bound_to 4979
  136.7015  132.5925  118.7347 LP  0  0  0  0  0  0  0  0  0  0  0  0  # atno 14340 bound_to 4982
  138.1152  132.3941  117.7537 LP  0  0  0  0  0  0  0  0  0  0  0  0  # atno 14341 bound_to 4982
  160.4433  152.3699  156.2302 LP  0  0  0  0  0  0  0  0  0  0  0  0  # atno 14344 bound_to 5126

> <Gold.Score>
     Fitness  S(hb_ext) S(vdw_ext)  S(hb_int)    S(int)      intcor
     32.29       0.00      24.04       0.00      -0.77      -0.76

> <Gold.Goldscore.Fitness>
32.2905

> <Gold.Goldscore.Internal.Vdw>
-0.7309

> <Gold.Goldscore.Internal.Torsion>
-0.7913

> <Gold.Goldscore.External.Vdw>
24.0408

> <Gold.Goldscore.Internal.HBond>
0.0000

> <Gold.Goldscore.External.HBond>
0.0000

> <Gold.Goldscore.Internal.Correction>
-0.7567

> <Gold.Goldscore.Internal.Vdw.Weighted>
-0.7309

> <Gold.Goldscore.Internal.Torsion.Weighted>
-0.7913

> <Gold.Goldscore.External.Vdw.Weighted>
33.0560

> <Gold.Goldscore.Internal.HBond.Weighted>
0.0000

> <Gold.Goldscore.External.HBond.Weighted>
0.0000

> <Gold.Goldscore.Internal.Correction.Weighted>
-0.7567

> <Gold.Rescore>
     Score     S(PLP)   S(hbond)     S(cho)   S(metal)  DE(clash)   DE(tors)     intcor
     16.57     -16.85       0.00       0.00       0.00       0.00       0.14       ----

> <Gold.PLP.Fitness>
16.5653

> <Gold.PLP.PLP>
-16.8460

> <Gold.PLP.part.hbond>
-1.4796

> <Gold.PLP.part.metal>
0.0000

> <Gold.PLP.part.buried>
3.4283

> <Gold.PLP.part.nonpolar>
-22.4485

> <Gold.PLP.part.repulsive>
2.2513

> <Gold.PLP.ligand.clash>
0.0000

> <Gold.PLP.ligand.torsion>
0.1403

> <Gold.PLP.Chemscore.Hbond>
0.0000

> <Gold.PLP.Chemscore.CHOScore>
0.0000

> <Gold.PLP.Chemscore.Metal>
0.0000

> <Gold.PLP.Chemscore.Internal.Correction>
   9.000000E+99

#       Name:                CT1002167954
#       Creating user name   hitesit
#       Creation time:       Sun Apr 16 23:06:45 2023


#       File generated by GOLD software.
#

@<TRIPOS>MOLECULE
CT1002167954|ligand_prepared|mol2|1|dock9
    29    30     1
SMALL
NO_CHARGES


@<TRIPOS>ATOM
      1 C1         137.6058 142.0964 166.0719 C.3            1 RES1               0.0000
      2 C2         137.5066 143.4248 166.8493 C.ar           1 RES1               0.0000
      3 C3         138.9541 142.1177 165.3577 C.2            1 RES1               0.0000
      4 C4         137.4675 140.9852 167.1066 C.2            1 RES1               0.0000
      5 C5         136.4930 141.9063 165.0150 C.3            1 RES1               0.0000
      6 C6         136.8968 144.5370 166.2767 C.ar           1 RES1               0.0000
      7 C7         138.0168 143.5523 168.1385 C.ar           1 RES1               0.0000
      8 N8         139.9436 141.3199 165.8519 N.am           1 RES1               0.0000
      9 O9         139.1580 142.8528 164.3994 O.2            1 RES1               0.0000
     10 N10        138.5496 140.1737 167.3260 N.am           1 RES1               0.0000
     11 O11        136.4365 140.8155 167.7459 O.2            1 RES1               0.0000
     12 C12        136.3732 140.4805 164.5004 C.3            1 RES1               0.0000
     13 C13        136.7980 145.7326 166.9689 C.ar           1 RES1               0.0000
     14 C14        137.9171 144.7489 168.8289 C.ar           1 RES1               0.0000
     15 C15        139.7914 140.3100 166.7677 C.2            1 RES1               0.0000
     16 C16        137.3076 145.8392 168.2454 C.ar           1 RES1               0.0000
     17 O17        140.7303 139.5736 167.0562 O.2            1 RES1               0.0000
     18 H18        135.5335 142.2047 165.4549 H              1 RES1               0.0000
     19 H19        136.6944 142.5720 164.1666 H              1 RES1               0.0000
     20 H20        136.4921 144.4727 165.2721 H              1 RES1               0.0000
     21 H21        138.5014 142.7080 168.6169 H              1 RES1               0.0000
     22 H22        140.8837 141.4900 165.5090 H              1 RES1               0.0000
     23 H23        138.4172 139.3959 167.9646 H              1 RES1               0.0000
     24 H24        135.5782 140.4025 163.7618 H              1 RES1               0.0000
     25 H25        137.3021 140.1595 164.0336 H              1 RES1               0.0000
     26 H26        136.1481 139.7944 165.3143 H              1 RES1               0.0000
     27 H27        136.3186 146.5881 166.5048 H              1 RES1               0.0000
     28 H28        138.3201 144.8285 169.8331 H              1 RES1               0.0000
     29 H29        137.2297 146.7758 168.7876 H              1 RES1               0.0000
@<TRIPOS>BOND
    1    1    2 1     
    2    1    3 1     
    3    1    4 1     
    4    1    5 1     
    5    2    6 ar    
    6    2    7 ar    
    7    3    8 1     
    8    3    9 2     
    9    4   10 1     
   10    4   11 2     
   11    5   12 1     
   12    5   18 1     
   13    5   19 1     
   14    6   13 ar    
   15    6   20 1     
   16    7   14 ar    
   17    7   21 1     
   18    8   15 1     
   19    8   22 1     
   20   10   15 1     
   21   10   23 1     
   22   12   24 1     
   23   12   25 1     
   24   12   26 1     
   25   13   16 ar    
   26   13   27 1     
   27   14   16 ar    
   28   14   28 1     
   29   15   17 2     
   30   16   29 1     
@<TRIPOS>SUBSTRUCTURE
      1 RES1           1
@<TRIPOS>SET
DONOR_HYDROGENS      STATIC     ATOMS    <user>   **** ""
2 22 23
ATOM$RED        STATIC     ATOMS    COLORGROUP SYSTEM
2 22 23
@<TRIPOS>COMMENT
> <Gold.Version>
2022.3.0

> <Gold.Id.Protein>
unknown|7rmi_cavity_clean|pdb

> <Gold.Protein.RotatedTorsions>
[ 5081 5072 5071 5069 ] final  141.05 input   59.98 | X-H torsion
[ 5041 5025 5024 5021 ] final   86.90 input   60.00 | X-H torsion
[ 5032 5026 5027 5028 ] final   28.97 input  106.27 | X-H torsion
[ 5036 5031 5030 5027 ] final -104.68 input   60.01 | X-H torsion
[ 4987 4979 4980 4981 ] final  147.41 input  111.67 | X-H torsion
[ 5133 5126 5127 5128 ] final   55.11 input   60.01 | X-H torsion
[ 14333 5029 5028 5027 ] final  160.67 input    0.00 | X-H torsion
[ 14340 4982 4981 4980 ] final  -33.32 input    0.00 | X-H torsion

> <Gold.Protein.ActiveResidues>
 TRP99   VAL100  MET101  CYS103  ALA104  ASP118  ASN119  ILE120  SER122  TYR124 
 LEU126  VAL133  LEU139  HIS142 

> <Gold.Protein.RotatedAtoms>
  134.5321  135.6090  115.7983 H   0  0  0  0  0  0  0  0  0  0  0  0  # atno 4987 bound_to 4979
  136.8469  134.9300  119.4626 H   0  0  0  0  0  0  0  0  0  0  0  0  # atno 5032 bound_to 5026
  134.4398  136.7772  120.2628 H   0  0  0  0  0  0  0  0  0  0  0  0  # atno 5036 bound_to 5031
  154.7982  141.1044  165.4848 H   0  0  0  0  0  0  0  0  0  0  0  0  # atno 5041 bound_to 5025
  155.8298  143.1260  160.8832 H   0  0  0  0  0  0  0  0  0  0  0  0  # atno 5081 bound_to 5072
  159.9156  150.7652  155.3611 H   0  0  0  0  0  0  0  0  0  0  0  0  # atno 5133 bound_to 5126
  159.6504  152.3516  155.7624 H   0  0  0  0  0  0  0  0  0  0  0  0  # atno 5134 bound_to 5126
  157.1227  143.7279  160.1002 LP  0  0  0  0  0  0  0  0  0  0  0  0  # atno 14312 bound_to 5072
  155.6567  143.7257  159.3807 LP  0  0  0  0  0  0  0  0  0  0  0  0  # atno 14313 bound_to 5072
  156.1265  141.7562  166.1634 LP  0  0  0  0  0  0  0  0  0  0  0  0  # atno 14330 bound_to 5025
  156.0046  141.6509  164.5384 LP  0  0  0  0  0  0  0  0  0  0  0  0  # atno 14331 bound_to 5025
  137.8980  136.2357  119.9475 LP  0  0  0  0  0  0  0  0  0  0  0  0  # atno 14332 bound_to 5026
  135.9577  132.7566  123.3266 LP  0  0  0  0  0  0  0  0  0  0  0  0  # atno 14333 bound_to 5029
  137.1293  133.9932  123.6398 LP  0  0  0  0  0  0  0  0  0  0  0  0  # atno 14334 bound_to 5029
  133.6537  136.1489  121.5414 LP  0  0  0  0  0  0  0  0  0  0  0  0  # atno 14335 bound_to 5031
  134.5932  135.1944  120.6071 LP  0  0  0  0  0  0  0  0  0  0  0  0  # atno 14336 bound_to 5031
  135.0273  135.6898  117.4690 LP  0  0  0  0  0  0  0  0  0  0  0  0  # atno 14339 bound_to 4979
  136.5688  132.3047  118.3424 LP  0  0  0  0  0  0  0  0  0  0  0  0  # atno 14340 bound_to 4982
  138.2479  132.6819  118.1459 LP  0  0  0  0  0  0  0  0  0  0  0  0  # atno 14341 bound_to 4982
  161.0088  151.5821  156.2803 LP  0  0  0  0  0  0  0  0  0  0  0  0  # atno 14344 bound_to 5126

> <Gold.Score>
     Fitness  S(hb_ext) S(vdw_ext)  S(hb_int)    S(int)      intcor
     32.12       1.59      22.64       0.00      -0.61      -0.76

> <Gold.Goldscore.Fitness>
32.1199

> <Gold.Goldscore.Internal.Vdw>
-0.6800

> <Gold.Goldscore.Internal.Torsion>
-0.6866

> <Gold.Goldscore.External.Vdw>
22.6436

> <Gold.Goldscore.Internal.HBond>
0.0000

> <Gold.Goldscore.External.HBond>
1.5948

> <Gold.Goldscore.Internal.Correction>
-0.7567

> <Gold.Goldscore.Hbonds>
donor molecule, donor type, donor heavy atom, donor atom, acceptor molecule, acceptor atom, score
      L1  H     8    22       P1  4728  0.80

> <Gold.Goldscore.Internal.Vdw.Weighted>
-0.6800

> <Gold.Goldscore.Internal.Torsion.Weighted>
-0.6866

> <Gold.Goldscore.External.Vdw.Weighted>
31.1349

> <Gold.Goldscore.Internal.HBond.Weighted>
0.0000

> <Gold.Goldscore.External.HBond.Weighted>
1.5948

> <Gold.Goldscore.Internal.Correction.Weighted>
-0.7567

> <Gold.Rescore>
     Score     S(PLP)   S(hbond)     S(cho)   S(metal)  DE(clash)   DE(tors)     intcor
     26.14     -25.37       1.00       0.00       0.00       0.00       1.12       ----

> <Gold.PLP.Fitness>
26.1368

> <Gold.PLP.PLP>
-25.3698

> <Gold.PLP.part.hbond>
-3.0000

> <Gold.PLP.part.metal>
0.0000

> <Gold.PLP.part.buried>
-2.4717

> <Gold.PLP.part.nonpolar>
-26.2196

> <Gold.PLP.part.repulsive>
4.8124

> <Gold.PLP.ligand.clash>
0.0000

> <Gold.PLP.ligand.torsion>
1.1165

> <Gold.PLP.Chemscore.Hbond>
1.0000

> <Gold.PLP.Chemscore.CHOScore>
0.0000

> <Gold.PLP.Chemscore.Metal>
0.0000

> <Gold.Chemscore.Hbonds>
donor molecule, donor type, donor heavy atom, donor atom, acceptor molecule, acceptor atom, score
      L1  H     8    22       P1  4728  0.65

> <Gold.PLP.Chemscore.Internal.Correction>
   9.000000E+99

