#       Name:                CT1002167954
#       Creating user name   hitesit
#       Creation time:       Sun Apr 16 23:06:45 2023


#       File generated by GOLD software.
#

@<TRIPOS>MOLECULE
CT1002167954|ligand_prepared|mol2|1|dock9
    29    30     1
SMALL
NO_CHARGES


@<TRIPOS>ATOM
      1 C1         137.6058 142.0964 166.0719 C.3            1 RES1               0.0000
      2 C2         137.5066 143.4248 166.8493 C.ar           1 RES1               0.0000
      3 C3         138.9541 142.1177 165.3577 C.2            1 RES1               0.0000
      4 C4         137.4675 140.9852 167.1066 C.2            1 RES1               0.0000
      5 C5         136.4930 141.9063 165.0150 C.3            1 RES1               0.0000
      6 C6         136.8968 144.5370 166.2767 C.ar           1 RES1               0.0000
      7 C7         138.0168 143.5523 168.1385 C.ar           1 RES1               0.0000
      8 N8         139.9436 141.3199 165.8519 N.am           1 RES1               0.0000
      9 O9         139.1580 142.8528 164.3994 O.2            1 RES1               0.0000
     10 N10        138.5496 140.1737 167.3260 N.am           1 RES1               0.0000
     11 O11        136.4365 140.8155 167.7459 O.2            1 RES1               0.0000
     12 C12        136.3732 140.4805 164.5004 C.3            1 RES1               0.0000
     13 C13        136.7980 145.7326 166.9689 C.ar           1 RES1               0.0000
     14 C14        137.9171 144.7489 168.8289 C.ar           1 RES1               0.0000
     15 C15        139.7914 140.3100 166.7677 C.2            1 RES1               0.0000
     16 C16        137.3076 145.8392 168.2454 C.ar           1 RES1               0.0000
     17 O17        140.7303 139.5736 167.0562 O.2            1 RES1               0.0000
     18 H18        135.5335 142.2047 165.4549 H              1 RES1               0.0000
     19 H19        136.6944 142.5720 164.1666 H              1 RES1               0.0000
     20 H20        136.4921 144.4727 165.2721 H              1 RES1               0.0000
     21 H21        138.5014 142.7080 168.6169 H              1 RES1               0.0000
     22 H22        140.8837 141.4900 165.5090 H              1 RES1               0.0000
     23 H23        138.4172 139.3959 167.9646 H              1 RES1               0.0000
     24 H24        135.5782 140.4025 163.7618 H              1 RES1               0.0000
     25 H25        137.3021 140.1595 164.0336 H              1 RES1               0.0000
     26 H26        136.1481 139.7944 165.3143 H              1 RES1               0.0000
     27 H27        136.3186 146.5881 166.5048 H              1 RES1               0.0000
     28 H28        138.3201 144.8285 169.8331 H              1 RES1               0.0000
     29 H29        137.2297 146.7758 168.7876 H              1 RES1               0.0000
@<TRIPOS>BOND
    1    1    2 1     
    2    1    3 1     
    3    1    4 1     
    4    1    5 1     
    5    2    6 ar    
    6    2    7 ar    
    7    3    8 1     
    8    3    9 2     
    9    4   10 1     
   10    4   11 2     
   11    5   12 1     
   12    5   18 1     
   13    5   19 1     
   14    6   13 ar    
   15    6   20 1     
   16    7   14 ar    
   17    7   21 1     
   18    8   15 1     
   19    8   22 1     
   20   10   15 1     
   21   10   23 1     
   22   12   24 1     
   23   12   25 1     
   24   12   26 1     
   25   13   16 ar    
   26   13   27 1     
   27   14   16 ar    
   28   14   28 1     
   29   15   17 2     
   30   16   29 1     
@<TRIPOS>SUBSTRUCTURE
      1 RES1           1
@<TRIPOS>SET
DONOR_HYDROGENS      STATIC     ATOMS    <user>   **** ""
2 22 23
ATOM$RED        STATIC     ATOMS    COLORGROUP SYSTEM
2 22 23
@<TRIPOS>COMMENT
> <Gold.Version>
2022.3.0

> <Gold.Id.Protein>
unknown|7rmi_cavity_clean|pdb

> <Gold.Protein.RotatedTorsions>
[ 5081 5072 5071 5069 ] final  141.05 input   59.98 | X-H torsion
[ 5041 5025 5024 5021 ] final   86.90 input   60.00 | X-H torsion
[ 5032 5026 5027 5028 ] final   28.97 input  106.27 | X-H torsion
[ 5036 5031 5030 5027 ] final -104.68 input   60.01 | X-H torsion
[ 4987 4979 4980 4981 ] final  147.41 input  111.67 | X-H torsion
[ 5133 5126 5127 5128 ] final   55.11 input   60.01 | X-H torsion
[ 14333 5029 5028 5027 ] final  160.67 input    0.00 | X-H torsion
[ 14340 4982 4981 4980 ] final  -33.32 input    0.00 | X-H torsion

> <Gold.Protein.ActiveResidues>
 TRP99   VAL100  MET101  CYS103  ALA104  ASP118  ASN119  ILE120  SER122  TYR124 
 LEU126  VAL133  LEU139  HIS142 

> <Gold.Protein.RotatedAtoms>
  134.5321  135.6090  115.7983 H   0  0  0  0  0  0  0  0  0  0  0  0  # atno 4987 bound_to 4979
  136.8469  134.9300  119.4626 H   0  0  0  0  0  0  0  0  0  0  0  0  # atno 5032 bound_to 5026
  134.4398  136.7772  120.2628 H   0  0  0  0  0  0  0  0  0  0  0  0  # atno 5036 bound_to 5031
  154.7982  141.1044  165.4848 H   0  0  0  0  0  0  0  0  0  0  0  0  # atno 5041 bound_to 5025
  155.8298  143.1260  160.8832 H   0  0  0  0  0  0  0  0  0  0  0  0  # atno 5081 bound_to 5072
  159.9156  150.7652  155.3611 H   0  0  0  0  0  0  0  0  0  0  0  0  # atno 5133 bound_to 5126
  159.6504  152.3516  155.7624 H   0  0  0  0  0  0  0  0  0  0  0  0  # atno 5134 bound_to 5126
  157.1227  143.7279  160.1002 LP  0  0  0  0  0  0  0  0  0  0  0  0  # atno 14312 bound_to 5072
  155.6567  143.7257  159.3807 LP  0  0  0  0  0  0  0  0  0  0  0  0  # atno 14313 bound_to 5072
  156.1265  141.7562  166.1634 LP  0  0  0  0  0  0  0  0  0  0  0  0  # atno 14330 bound_to 5025
  156.0046  141.6509  164.5384 LP  0  0  0  0  0  0  0  0  0  0  0  0  # atno 14331 bound_to 5025
  137.8980  136.2357  119.9475 LP  0  0  0  0  0  0  0  0  0  0  0  0  # atno 14332 bound_to 5026
  135.9577  132.7566  123.3266 LP  0  0  0  0  0  0  0  0  0  0  0  0  # atno 14333 bound_to 5029
  137.1293  133.9932  123.6398 LP  0  0  0  0  0  0  0  0  0  0  0  0  # atno 14334 bound_to 5029
  133.6537  136.1489  121.5414 LP  0  0  0  0  0  0  0  0  0  0  0  0  # atno 14335 bound_to 5031
  134.5932  135.1944  120.6071 LP  0  0  0  0  0  0  0  0  0  0  0  0  # atno 14336 bound_to 5031
  135.0273  135.6898  117.4690 LP  0  0  0  0  0  0  0  0  0  0  0  0  # atno 14339 bound_to 4979
  136.5688  132.3047  118.3424 LP  0  0  0  0  0  0  0  0  0  0  0  0  # atno 14340 bound_to 4982
  138.2479  132.6819  118.1459 LP  0  0  0  0  0  0  0  0  0  0  0  0  # atno 14341 bound_to 4982
  161.0088  151.5821  156.2803 LP  0  0  0  0  0  0  0  0  0  0  0  0  # atno 14344 bound_to 5126

> <Gold.Score>
     Fitness  S(hb_ext) S(vdw_ext)  S(hb_int)    S(int)      intcor
     32.12       1.59      22.64       0.00      -0.61      -0.76

> <Gold.Goldscore.Fitness>
32.1199

> <Gold.Goldscore.Internal.Vdw>
-0.6800

> <Gold.Goldscore.Internal.Torsion>
-0.6866

> <Gold.Goldscore.External.Vdw>
22.6436

> <Gold.Goldscore.Internal.HBond>
0.0000

> <Gold.Goldscore.External.HBond>
1.5948

> <Gold.Goldscore.Internal.Correction>
-0.7567

> <Gold.Goldscore.Hbonds>
donor molecule, donor type, donor heavy atom, donor atom, acceptor molecule, acceptor atom, score
      L1  H     8    22       P1  4728  0.80

> <Gold.Goldscore.Internal.Vdw.Weighted>
-0.6800

> <Gold.Goldscore.Internal.Torsion.Weighted>
-0.6866

> <Gold.Goldscore.External.Vdw.Weighted>
31.1349

> <Gold.Goldscore.Internal.HBond.Weighted>
0.0000

> <Gold.Goldscore.External.HBond.Weighted>
1.5948

> <Gold.Goldscore.Internal.Correction.Weighted>
-0.7567

> <Gold.Rescore>
     Score     S(PLP)   S(hbond)     S(cho)   S(metal)  DE(clash)   DE(tors)     intcor
     26.14     -25.37       1.00       0.00       0.00       0.00       1.12       ----

> <Gold.PLP.Fitness>
26.1368

> <Gold.PLP.PLP>
-25.3698

> <Gold.PLP.part.hbond>
-3.0000

> <Gold.PLP.part.metal>
0.0000

> <Gold.PLP.part.buried>
-2.4717

> <Gold.PLP.part.nonpolar>
-26.2196

> <Gold.PLP.part.repulsive>
4.8124

> <Gold.PLP.ligand.clash>
0.0000

> <Gold.PLP.ligand.torsion>
1.1165

> <Gold.PLP.Chemscore.Hbond>
1.0000

> <Gold.PLP.Chemscore.CHOScore>
0.0000

> <Gold.PLP.Chemscore.Metal>
0.0000

> <Gold.Chemscore.Hbonds>
donor molecule, donor type, donor heavy atom, donor atom, acceptor molecule, acceptor atom, score
      L1  H     8    22       P1  4728  0.65

> <Gold.PLP.Chemscore.Internal.Correction>
   9.000000E+99

