#       Name:                CT1002167954
#       Creating user name   hitesit
#       Creation time:       Sun Apr 16 23:06:39 2023


#       File generated by GOLD software.
#

@<TRIPOS>MOLECULE
CT1002167954|ligand_prepared|mol2|1|dock6
    29    30     1
SMALL
NO_CHARGES


@<TRIPOS>ATOM
      1 C1         137.1947 143.0059 167.3482 C.3            1 RES1               0.0000
      2 C2         136.5839 144.3558 167.7767 C.ar           1 RES1               0.0000
      3 C3         136.0936 142.2536 166.6067 C.2            1 RES1               0.0000
      4 C4         138.4078 143.3407 166.4875 C.2            1 RES1               0.0000
      5 C5         137.6745 142.1336 168.5315 C.3            1 RES1               0.0000
      6 C6         137.1743 145.1128 168.7841 C.ar           1 RES1               0.0000
      7 C7         135.4338 144.8574 167.1730 C.ar           1 RES1               0.0000
      8 N8         136.1971 142.1577 165.2502 N.am           1 RES1               0.0000
      9 O9         135.1290 141.7857 167.1989 O.2            1 RES1               0.0000
     10 N10        138.3708 142.9927 165.1626 N.am           1 RES1               0.0000
     11 O11        139.3886 143.9175 166.9408 O.2            1 RES1               0.0000
     12 C12        138.0629 140.7187 168.1323 C.3            1 RES1               0.0000
     13 C13        136.6364 146.3287 169.1721 C.ar           1 RES1               0.0000
     14 C14        134.8974 146.0735 167.5627 C.ar           1 RES1               0.0000
     15 C15        137.3080 142.4440 164.4981 C.2            1 RES1               0.0000
     16 C16        135.4980 146.8101 168.5614 C.ar           1 RES1               0.0000
     17 O17        137.3314 142.2094 163.2933 O.2            1 RES1               0.0000
     18 H18        138.5401 142.6185 168.9995 H              1 RES1               0.0000
     19 H19        136.8739 142.0821 169.2797 H              1 RES1               0.0000
     20 H20        138.0693 144.7491 169.2778 H              1 RES1               0.0000
     21 H21        134.9438 144.2946 166.3858 H              1 RES1               0.0000
     22 H22        135.3722 141.8444 164.7486 H              1 RES1               0.0000
     23 H23        139.2137 143.1578 164.6217 H              1 RES1               0.0000
     24 H24        138.3918 140.1497 168.9993 H              1 RES1               0.0000
     25 H25        137.2180 140.1982 167.6861 H              1 RES1               0.0000
     26 H26        138.8743 140.7314 167.4075 H              1 RES1               0.0000
     27 H27        137.1121 146.9039 169.9595 H              1 RES1               0.0000
     28 H28        134.0009 146.4482 167.0798 H              1 RES1               0.0000
     29 H29        135.0770 147.7628 168.8653 H              1 RES1               0.0000
@<TRIPOS>BOND
    1    1    2 1     
    2    1    3 1     
    3    1    4 1     
    4    1    5 1     
    5    2    6 ar    
    6    2    7 ar    
    7    3    8 1     
    8    3    9 2     
    9    4   10 1     
   10    4   11 2     
   11    5   12 1     
   12    5   18 1     
   13    5   19 1     
   14    6   13 ar    
   15    6   20 1     
   16    7   14 ar    
   17    7   21 1     
   18    8   15 1     
   19    8   22 1     
   20   10   15 1     
   21   10   23 1     
   22   12   24 1     
   23   12   25 1     
   24   12   26 1     
   25   13   16 ar    
   26   13   27 1     
   27   14   16 ar    
   28   14   28 1     
   29   15   17 2     
   30   16   29 1     
@<TRIPOS>SUBSTRUCTURE
      1 RES1           1
@<TRIPOS>SET
DONOR_HYDROGENS      STATIC     ATOMS    <user>   **** ""
2 22 23
ATOM$RED        STATIC     ATOMS    COLORGROUP SYSTEM
2 22 23
@<TRIPOS>COMMENT
> <Gold.Version>
2022.3.0

> <Gold.Id.Protein>
unknown|7rmi_cavity_clean|pdb

> <Gold.Protein.RotatedTorsions>
[ 5081 5072 5071 5069 ] final -111.82 input   59.98 | X-H torsion
[ 5041 5025 5024 5021 ] final  135.62 input   60.00 | X-H torsion
[ 5032 5026 5027 5028 ] final -158.21 input  106.27 | X-H torsion
[ 5036 5031 5030 5027 ] final   49.56 input   60.01 | X-H torsion
[ 4987 4979 4980 4981 ] final  172.68 input  111.67 | X-H torsion
[ 5133 5126 5127 5128 ] final   98.28 input   60.01 | X-H torsion
[ 14333 5029 5028 5027 ] final    3.22 input    0.00 | X-H torsion
[ 14340 4982 4981 4980 ] final  -41.69 input    0.00 | X-H torsion

> <Gold.Protein.ActiveResidues>
 TRP99   VAL100  MET101  CYS103  ALA104  ASP118  ASN119  ILE120  SER122  TYR124 
 LEU126  VAL133  LEU139  HIS142 

> <Gold.Protein.RotatedAtoms>
  134.2464  135.4271  115.9795 H   0  0  0  0  0  0  0  0  0  0  0  0  # atno 4987 bound_to 4979
  137.8241  136.3129  119.9199 H   0  0  0  0  0  0  0  0  0  0  0  0  # atno 5032 bound_to 5026
  134.2772  135.1426  121.0581 H   0  0  0  0  0  0  0  0  0  0  0  0  # atno 5036 bound_to 5031
  155.0322  141.1950  164.7539 H   0  0  0  0  0  0  0  0  0  0  0  0  # atno 5041 bound_to 5025
  155.5085  143.6438  159.5063 H   0  0  0  0  0  0  0  0  0  0  0  0  # atno 5081 bound_to 5072
  159.4491  151.2856  155.2745 H   0  0  0  0  0  0  0  0  0  0  0  0  # atno 5133 bound_to 5126
  160.2357  152.4622  156.1375 H   0  0  0  0  0  0  0  0  0  0  0  0  # atno 5134 bound_to 5126
  156.0256  143.1313  160.9613 LP  0  0  0  0  0  0  0  0  0  0  0  0  # atno 14312 bound_to 5072
  157.0776  143.8007  159.9068 LP  0  0  0  0  0  0  0  0  0  0  0  0  # atno 14313 bound_to 5072
  155.4363  141.4308  166.3131 LP  0  0  0  0  0  0  0  0  0  0  0  0  # atno 14330 bound_to 5025
  156.4593  141.8850  165.1242 LP  0  0  0  0  0  0  0  0  0  0  0  0  # atno 14331 bound_to 5025
  136.9347  134.8725  119.4966 LP  0  0  0  0  0  0  0  0  0  0  0  0  # atno 14332 bound_to 5026
  136.8439  134.1457  123.7394 LP  0  0  0  0  0  0  0  0  0  0  0  0  # atno 14333 bound_to 5029
  136.2432  132.6040  123.2270 LP  0  0  0  0  0  0  0  0  0  0  0  0  # atno 14334 bound_to 5029
  134.7076  136.3435  120.0481 LP  0  0  0  0  0  0  0  0  0  0  0  0  # atno 14335 bound_to 5031
  133.7031  136.6458  121.2996 LP  0  0  0  0  0  0  0  0  0  0  0  0  # atno 14336 bound_to 5031
  135.3092  135.8692  117.2903 LP  0  0  0  0  0  0  0  0  0  0  0  0  # atno 14339 bound_to 4979
  136.5753  132.3736  118.4482 LP  0  0  0  0  0  0  0  0  0  0  0  0  # atno 14340 bound_to 4982
  138.2414  132.6130  118.0402 LP  0  0  0  0  0  0  0  0  0  0  0  0  # atno 14341 bound_to 4982
  160.8916  150.9604  155.9959 LP  0  0  0  0  0  0  0  0  0  0  0  0  # atno 14344 bound_to 5126

> <Gold.Score>
     Fitness  S(hb_ext) S(vdw_ext)  S(hb_int)    S(int)      intcor
     33.21       0.00      24.95       0.00      -1.10      -0.76

> <Gold.Goldscore.Fitness>
33.2088

> <Gold.Goldscore.Internal.Vdw>
-1.3392

> <Gold.Goldscore.Internal.Torsion>
-0.5157

> <Gold.Goldscore.External.Vdw>
24.9506

> <Gold.Goldscore.Internal.HBond>
0.0000

> <Gold.Goldscore.External.HBond>
0.0000

> <Gold.Goldscore.Internal.Correction>
-0.7567

> <Gold.Goldscore.Internal.Vdw.Weighted>
-1.3392

> <Gold.Goldscore.Internal.Torsion.Weighted>
-0.5157

> <Gold.Goldscore.External.Vdw.Weighted>
34.3070

> <Gold.Goldscore.Internal.HBond.Weighted>
0.0000

> <Gold.Goldscore.External.HBond.Weighted>
0.0000

> <Gold.Goldscore.Internal.Correction.Weighted>
-0.7567

> <Gold.Rescore>
     Score     S(PLP)   S(hbond)     S(cho)   S(metal)  DE(clash)   DE(tors)     intcor
     11.29     -13.38       0.00       0.00       0.00       0.53       0.78       ----

> <Gold.PLP.Fitness>
11.2879

> <Gold.PLP.PLP>
-13.3753

> <Gold.PLP.part.hbond>
-1.0000

> <Gold.PLP.part.metal>
0.0000

> <Gold.PLP.part.buried>
1.0802

> <Gold.PLP.part.nonpolar>
-27.6412

> <Gold.PLP.part.repulsive>
12.7044

> <Gold.PLP.ligand.clash>
0.5349

> <Gold.PLP.ligand.torsion>
0.7763

> <Gold.PLP.Chemscore.Hbond>
0.0000

> <Gold.PLP.Chemscore.CHOScore>
0.0000

> <Gold.PLP.Chemscore.Metal>
0.0000

> <Gold.PLP.Chemscore.Internal.Correction>
   9.000000E+99

