#       Name:                CT1002167954
#       Creating user name   hitesit
#       Creation time:       Sun Apr 16 23:06:43 2023


#       File generated by GOLD software.
#

@<TRIPOS>MOLECULE
CT1002167954|ligand_prepared|mol2|1|dock8
    29    30     1
SMALL
NO_CHARGES


@<TRIPOS>ATOM
      1 C1         138.1348 142.5390 165.3761 C.3            1 RES1               0.0000
      2 C2         138.4256 144.0294 165.1060 C.ar           1 RES1               0.0000
      3 C3         136.6370 142.4374 165.6492 C.2            1 RES1               0.0000
      4 C4         138.5934 141.7830 164.1340 C.2            1 RES1               0.0000
      5 C5         138.8961 141.9645 166.5934 C.3            1 RES1               0.0000
      6 C6         137.4907 144.8267 164.4525 C.ar           1 RES1               0.0000
      7 C7         139.6209 144.6208 165.5060 C.ar           1 RES1               0.0000
      8 N8         135.8524 141.8947 164.6746 N.am           1 RES1               0.0000
      9 O9         136.1465 142.8631 166.6876 O.2            1 RES1               0.0000
     10 N10        137.6406 141.1511 163.3786 N.am           1 RES1               0.0000
     11 O11        139.7693 141.7427 163.7935 O.2            1 RES1               0.0000
     12 C12        138.3305 140.6490 167.1052 C.3            1 RES1               0.0000
     13 C13        137.7404 146.1673 164.2103 C.ar           1 RES1               0.0000
     14 C14        139.8688 145.9616 165.2625 C.ar           1 RES1               0.0000
     15 C15        136.2874 141.1984 163.5756 C.2            1 RES1               0.0000
     16 C16        138.9292 146.7357 164.6154 C.ar           1 RES1               0.0000
     17 O17        135.4900 140.6488 162.8211 O.2            1 RES1               0.0000
     18 H18        139.9459 141.8125 166.3137 H              1 RES1               0.0000
     19 H19        138.8690 142.7005 167.4064 H              1 RES1               0.0000
     20 H20        136.5505 144.3963 164.1241 H              1 RES1               0.0000
     21 H21        140.3751 144.0308 166.0157 H              1 RES1               0.0000
     22 H22        134.8496 142.0180 164.7718 H              1 RES1               0.0000
     23 H23        137.9707 140.5937 162.5972 H              1 RES1               0.0000
     24 H24        138.9011 140.2902 167.9592 H              1 RES1               0.0000
     25 H25        137.2948 140.7694 167.4160 H              1 RES1               0.0000
     26 H26        138.3653 139.8866 166.3298 H              1 RES1               0.0000
     27 H27        136.9983 146.7719 163.6994 H              1 RES1               0.0000
     28 H28        140.8060 146.4046 165.5826 H              1 RES1               0.0000
     29 H29        139.1245 147.7861 164.4259 H              1 RES1               0.0000
@<TRIPOS>BOND
    1    1    2 1     
    2    1    3 1     
    3    1    4 1     
    4    1    5 1     
    5    2    6 ar    
    6    2    7 ar    
    7    3    8 1     
    8    3    9 2     
    9    4   10 1     
   10    4   11 2     
   11    5   12 1     
   12    5   18 1     
   13    5   19 1     
   14    6   13 ar    
   15    6   20 1     
   16    7   14 ar    
   17    7   21 1     
   18    8   15 1     
   19    8   22 1     
   20   10   15 1     
   21   10   23 1     
   22   12   24 1     
   23   12   25 1     
   24   12   26 1     
   25   13   16 ar    
   26   13   27 1     
   27   14   16 ar    
   28   14   28 1     
   29   15   17 2     
   30   16   29 1     
@<TRIPOS>SUBSTRUCTURE
      1 RES1           1
@<TRIPOS>SET
DONOR_HYDROGENS      STATIC     ATOMS    <user>   **** ""
2 22 23
ATOM$RED        STATIC     ATOMS    COLORGROUP SYSTEM
2 22 23
@<TRIPOS>COMMENT
> <Gold.Version>
2022.3.0

> <Gold.Id.Protein>
unknown|7rmi_cavity_clean|pdb

> <Gold.Protein.RotatedTorsions>
[ 5081 5072 5071 5069 ] final  -63.45 input   59.98 | X-H torsion
[ 5041 5025 5024 5021 ] final  -31.77 input   60.00 | X-H torsion
[ 5032 5026 5027 5028 ] final   36.62 input  106.27 | X-H torsion
[ 5036 5031 5030 5027 ] final   75.95 input   60.01 | X-H torsion
[ 4987 4979 4980 4981 ] final  155.51 input  111.67 | X-H torsion
[ 5133 5126 5127 5128 ] final   -6.89 input   60.01 | X-H torsion
[ 14333 5029 5028 5027 ] final -152.64 input    0.00 | X-H torsion
[ 14340 4982 4981 4980 ] final  -67.18 input    0.00 | X-H torsion

> <Gold.Protein.ActiveResidues>
 TRP99   VAL100  MET101  CYS103  ALA104  ASP118  ASN119  ILE120  SER122  TYR124 
 LEU126  VAL133  LEU139  HIS142 

> <Gold.Protein.RotatedAtoms>
  134.4325  135.5480  115.8400 H   0  0  0  0  0  0  0  0  0  0  0  0  # atno 4987 bound_to 4979
  136.7663  135.0128  119.4425 H   0  0  0  0  0  0  0  0  0  0  0  0  # atno 5032 bound_to 5026
  134.0164  135.3135  121.3505 H   0  0  0  0  0  0  0  0  0  0  0  0  # atno 5036 bound_to 5031
  156.1063  141.7491  166.1709 H   0  0  0  0  0  0  0  0  0  0  0  0  # atno 5041 bound_to 5025
  156.1919  143.8913  159.2620 H   0  0  0  0  0  0  0  0  0  0  0  0  # atno 5081 bound_to 5072
  160.7648  150.7991  155.8610 H   0  0  0  0  0  0  0  0  0  0  0  0  # atno 5133 bound_to 5126
  159.3754  151.5186  155.3136 H   0  0  0  0  0  0  0  0  0  0  0  0  # atno 5134 bound_to 5126
  155.4057  143.1952  160.5046 LP  0  0  0  0  0  0  0  0  0  0  0  0  # atno 14312 bound_to 5072
  157.0089  143.4874  160.6097 LP  0  0  0  0  0  0  0  0  0  0  0  0  # atno 14313 bound_to 5072
  156.0224  141.6596  164.5477 LP  0  0  0  0  0  0  0  0  0  0  0  0  # atno 14330 bound_to 5025
  154.7924  141.0986  165.4636 LP  0  0  0  0  0  0  0  0  0  0  0  0  # atno 14331 bound_to 5025
  137.9775  136.1541  119.9673 LP  0  0  0  0  0  0  0  0  0  0  0  0  # atno 14332 bound_to 5026
  136.5984  132.5716  123.1641 LP  0  0  0  0  0  0  0  0  0  0  0  0  # atno 14333 bound_to 5029
  136.4887  134.1781  123.8023 LP  0  0  0  0  0  0  0  0  0  0  0  0  # atno 14334 bound_to 5029
  134.8044  135.9244  120.0647 LP  0  0  0  0  0  0  0  0  0  0  0  0  # atno 14335 bound_to 5031
  133.8689  136.8929  120.9885 LP  0  0  0  0  0  0  0  0  0  0  0  0  # atno 14336 bound_to 5031
  135.1257  135.7499  117.4280 LP  0  0  0  0  0  0  0  0  0  0  0  0  # atno 14339 bound_to 4979
  136.7015  132.5925  118.7347 LP  0  0  0  0  0  0  0  0  0  0  0  0  # atno 14340 bound_to 4982
  138.1152  132.3941  117.7537 LP  0  0  0  0  0  0  0  0  0  0  0  0  # atno 14341 bound_to 4982
  160.4433  152.3699  156.2302 LP  0  0  0  0  0  0  0  0  0  0  0  0  # atno 14344 bound_to 5126

> <Gold.Score>
     Fitness  S(hb_ext) S(vdw_ext)  S(hb_int)    S(int)      intcor
     32.29       0.00      24.04       0.00      -0.77      -0.76

> <Gold.Goldscore.Fitness>
32.2905

> <Gold.Goldscore.Internal.Vdw>
-0.7309

> <Gold.Goldscore.Internal.Torsion>
-0.7913

> <Gold.Goldscore.External.Vdw>
24.0408

> <Gold.Goldscore.Internal.HBond>
0.0000

> <Gold.Goldscore.External.HBond>
0.0000

> <Gold.Goldscore.Internal.Correction>
-0.7567

> <Gold.Goldscore.Internal.Vdw.Weighted>
-0.7309

> <Gold.Goldscore.Internal.Torsion.Weighted>
-0.7913

> <Gold.Goldscore.External.Vdw.Weighted>
33.0560

> <Gold.Goldscore.Internal.HBond.Weighted>
0.0000

> <Gold.Goldscore.External.HBond.Weighted>
0.0000

> <Gold.Goldscore.Internal.Correction.Weighted>
-0.7567

> <Gold.Rescore>
     Score     S(PLP)   S(hbond)     S(cho)   S(metal)  DE(clash)   DE(tors)     intcor
     16.57     -16.85       0.00       0.00       0.00       0.00       0.14       ----

> <Gold.PLP.Fitness>
16.5653

> <Gold.PLP.PLP>
-16.8460

> <Gold.PLP.part.hbond>
-1.4796

> <Gold.PLP.part.metal>
0.0000

> <Gold.PLP.part.buried>
3.4283

> <Gold.PLP.part.nonpolar>
-22.4485

> <Gold.PLP.part.repulsive>
2.2513

> <Gold.PLP.ligand.clash>
0.0000

> <Gold.PLP.ligand.torsion>
0.1403

> <Gold.PLP.Chemscore.Hbond>
0.0000

> <Gold.PLP.Chemscore.CHOScore>
0.0000

> <Gold.PLP.Chemscore.Metal>
0.0000

> <Gold.PLP.Chemscore.Internal.Correction>
   9.000000E+99

