#       Name:                CT1002167954
#       Creating user name   hitesit
#       Creation time:       Sun Apr 16 23:06:47 2023


#       File generated by GOLD software.
#

@<TRIPOS>MOLECULE
CT1002167954|ligand_prepared|mol2|1|dock10
    29    30     1
SMALL
NO_CHARGES


@<TRIPOS>ATOM
      1 C1         137.6054 141.7992 166.6878 C.3            1 RES1               0.0000
      2 C2         136.8267 140.5821 166.1483 C.ar           1 RES1               0.0000
      3 C3         139.0499 141.6213 166.2293 C.2            1 RES1               0.0000
      4 C4         136.9183 143.0336 166.1143 C.2            1 RES1               0.0000
      5 C5         137.5905 141.9171 168.2297 C.3            1 RES1               0.0000
      6 C6         136.8078 140.3003 164.7856 C.ar           1 RES1               0.0000
      7 C7         136.1260 139.7321 166.9997 C.ar           1 RES1               0.0000
      8 N8         139.4948 142.4207 165.2179 N.am           1 RES1               0.0000
      9 O9         139.7754 140.7656 166.7207 O.2            1 RES1               0.0000
     10 N10        137.6229 143.8084 165.2305 N.am           1 RES1               0.0000
     11 O11        135.7673 143.3331 166.4071 O.2            1 RES1               0.0000
     12 C12        138.3927 143.0939 168.7624 C.3            1 RES1               0.0000
     13 C13        136.1160 139.2066 164.2922 C.ar           1 RES1               0.0000
     14 C14        135.4346 138.6390 166.5042 C.ar           1 RES1               0.0000
     15 C15        138.8690 143.5409 164.7328 C.2            1 RES1               0.0000
     16 C16        135.4293 138.3750 165.1510 C.ar           1 RES1               0.0000
     17 O17        139.4154 144.2571 163.8987 O.2            1 RES1               0.0000
     18 H18        136.5512 142.0171 168.5661 H              1 RES1               0.0000
     19 H19        137.9942 140.9916 168.6585 H              1 RES1               0.0000
     20 H20        137.3403 140.9449 164.0942 H              1 RES1               0.0000
     21 H21        136.1153 139.9208 168.0678 H              1 RES1               0.0000
     22 H22        140.3740 142.1616 164.7818 H              1 RES1               0.0000
     23 H23        137.1772 144.6638 164.9146 H              1 RES1               0.0000
     24 H24        138.3490 143.1302 169.8489 H              1 RES1               0.0000
     25 H25        139.4370 143.0138 168.4678 H              1 RES1               0.0000
     26 H26        138.0026 144.0332 168.3760 H              1 RES1               0.0000
     27 H27        136.1138 139.0040 163.2262 H              1 RES1               0.0000
     28 H28        134.8950 137.9875 167.1837 H              1 RES1               0.0000
     29 H29        134.8877 137.5181 164.7643 H              1 RES1               0.0000
@<TRIPOS>BOND
    1    1    2 1     
    2    1    3 1     
    3    1    4 1     
    4    1    5 1     
    5    2    6 ar    
    6    2    7 ar    
    7    3    8 1     
    8    3    9 2     
    9    4   10 1     
   10    4   11 2     
   11    5   12 1     
   12    5   18 1     
   13    5   19 1     
   14    6   13 ar    
   15    6   20 1     
   16    7   14 ar    
   17    7   21 1     
   18    8   15 1     
   19    8   22 1     
   20   10   15 1     
   21   10   23 1     
   22   12   24 1     
   23   12   25 1     
   24   12   26 1     
   25   13   16 ar    
   26   13   27 1     
   27   14   16 ar    
   28   14   28 1     
   29   15   17 2     
   30   16   29 1     
@<TRIPOS>SUBSTRUCTURE
      1 RES1           1
@<TRIPOS>SET
DONOR_HYDROGENS      STATIC     ATOMS    <user>   **** ""
2 22 23
ATOM$RED        STATIC     ATOMS    COLORGROUP SYSTEM
2 22 23
@<TRIPOS>COMMENT
> <Gold.Version>
2022.3.0

> <Gold.Id.Protein>
unknown|7rmi_cavity_clean|pdb

> <Gold.Protein.RotatedTorsions>
[ 5081 5072 5071 5069 ] final   27.16 input   59.98 | X-H torsion
[ 5041 5025 5024 5021 ] final  123.90 input   60.00 | X-H torsion
[ 5032 5026 5027 5028 ] final  -78.08 input  106.27 | X-H torsion
[ 5036 5031 5030 5027 ] final -130.59 input   60.01 | X-H torsion
[ 4987 4979 4980 4981 ] final   67.75 input  111.67 | X-H torsion
[ 5133 5126 5127 5128 ] final   29.65 input   60.01 | X-H torsion
[ 14333 5029 5028 5027 ] final   39.72 input    0.00 | X-H torsion
[ 14340 4982 4981 4980 ] final -102.16 input    0.00 | X-H torsion

> <Gold.Protein.ActiveResidues>
 TRP99   VAL100  MET101  CYS103  ALA104  ASP118  ASN119  ILE120  SER122  TYR124 
 LEU126  VAL133  LEU139  HIS142 

> <Gold.Protein.RotatedAtoms>
  135.4479  136.0744  116.2567 H   0  0  0  0  0  0  0  0  0  0  0  0  # atno 4987 bound_to 4979
  138.1457  135.2283  119.9326 H   0  0  0  0  0  0  0  0  0  0  0  0  # atno 5032 bound_to 5026
  134.1835  136.9424  120.5512 H   0  0  0  0  0  0  0  0  0  0  0  0  # atno 5036 bound_to 5031
  154.9257  141.1485  164.9058 H   0  0  0  0  0  0  0  0  0  0  0  0  # atno 5041 bound_to 5025
  157.1206  143.6905  160.1933 H   0  0  0  0  0  0  0  0  0  0  0  0  # atno 5081 bound_to 5072
  160.2838  150.6525  155.5334 H   0  0  0  0  0  0  0  0  0  0  0  0  # atno 5133 bound_to 5126
  159.4286  152.0725  155.5375 H   0  0  0  0  0  0  0  0  0  0  0  0  # atno 5134 bound_to 5126
  155.7394  143.7619  159.3366 LP  0  0  0  0  0  0  0  0  0  0  0  0  # atno 14312 bound_to 5072
  155.7395  143.1230  160.8394 LP  0  0  0  0  0  0  0  0  0  0  0  0  # atno 14313 bound_to 5072
  155.6082  141.5137  166.3379 LP  0  0  0  0  0  0  0  0  0  0  0  0  # atno 14330 bound_to 5025
  156.3946  141.8490  164.9465 LP  0  0  0  0  0  0  0  0  0  0  0  0  # atno 14331 bound_to 5025
  136.6176  135.9416  119.4841 LP  0  0  0  0  0  0  0  0  0  0  0  0  # atno 14332 bound_to 5026
  136.3065  134.1397  123.8132 LP  0  0  0  0  0  0  0  0  0  0  0  0  # atno 14333 bound_to 5029
  136.7805  132.6101  123.1532 LP  0  0  0  0  0  0  0  0  0  0  0  0  # atno 14334 bound_to 5029
  133.7504  135.7376  121.5554 LP  0  0  0  0  0  0  0  0  0  0  0  0  # atno 14335 bound_to 5031
  134.7546  135.4393  120.3027 LP  0  0  0  0  0  0  0  0  0  0  0  0  # atno 14336 bound_to 5031
  134.1238  135.2306  117.0168 LP  0  0  0  0  0  0  0  0  0  0  0  0  # atno 14339 bound_to 4979
  137.0892  132.8535  118.9642 LP  0  0  0  0  0  0  0  0  0  0  0  0  # atno 14340 bound_to 4982
  137.7275  132.1331  117.5242 LP  0  0  0  0  0  0  0  0  0  0  0  0  # atno 14341 bound_to 4982
  160.8648  151.9683  156.3323 LP  0  0  0  0  0  0  0  0  0  0  0  0  # atno 14344 bound_to 5126

> <Gold.Score>
     Fitness  S(hb_ext) S(vdw_ext)  S(hb_int)    S(int)      intcor
     34.33       1.10      24.21       0.00      -0.06      -0.76

> <Gold.Goldscore.Fitness>
34.3296

> <Gold.Goldscore.Internal.Vdw>
-0.4489

> <Gold.Goldscore.Internal.Torsion>
-0.3724

> <Gold.Goldscore.External.Vdw>
24.2116

> <Gold.Goldscore.Internal.HBond>
0.0000

> <Gold.Goldscore.External.HBond>
1.1033

> <Gold.Goldscore.Internal.Correction>
-0.7567

> <Gold.Goldscore.Hbonds>
donor molecule, donor type, donor heavy atom, donor atom, acceptor molecule, acceptor atom, score
      L1  H     8    22       P1  4728  0.55

> <Gold.Goldscore.Internal.Vdw.Weighted>
-0.4489

> <Gold.Goldscore.Internal.Torsion.Weighted>
-0.3724

> <Gold.Goldscore.External.Vdw.Weighted>
33.2909

> <Gold.Goldscore.Internal.HBond.Weighted>
0.0000

> <Gold.Goldscore.External.HBond.Weighted>
1.1033

> <Gold.Goldscore.Internal.Correction.Weighted>
-0.7567

> <Gold.Rescore>
     Score     S(PLP)   S(hbond)     S(cho)   S(metal)  DE(clash)   DE(tors)     intcor
     27.53     -24.54       1.00       0.00       0.00       0.00       0.00       ----

> <Gold.PLP.Fitness>
27.5348

> <Gold.PLP.PLP>
-24.5437

> <Gold.PLP.part.hbond>
-2.0000

> <Gold.PLP.part.metal>
0.0000

> <Gold.PLP.part.buried>
4.9137

> <Gold.PLP.part.nonpolar>
-32.2172

> <Gold.PLP.part.repulsive>
4.4656

> <Gold.PLP.ligand.clash>
0.0000

> <Gold.PLP.ligand.torsion>
0.0044

> <Gold.PLP.Chemscore.Hbond>
1.0000

> <Gold.PLP.Chemscore.CHOScore>
0.0000

> <Gold.PLP.Chemscore.Metal>
0.0000

> <Gold.Chemscore.Hbonds>
donor molecule, donor type, donor heavy atom, donor atom, acceptor molecule, acceptor atom, score
      L1  H     8    22       P1  4728  1.00

> <Gold.PLP.Chemscore.Internal.Correction>
   9.000000E+99

