#       Name:                CT1002167954
#       Creating user name   hitesit
#       Creation time:       Sun Apr 16 23:06:34 2023


#       File generated by GOLD software.
#

@<TRIPOS>MOLECULE
CT1002167954|ligand_prepared|mol2|1|dock4
    29    30     1
SMALL
NO_CHARGES


@<TRIPOS>ATOM
      1 C1         137.8905 144.1554 166.5640 C.3            1 RES1               0.0000
      2 C2         137.3917 142.9599 165.7270 C.ar           1 RES1               0.0000
      3 C3         139.1794 143.6971 167.2400 C.2            1 RES1               0.0000
      4 C4         138.0770 145.3115 165.5877 C.2            1 RES1               0.0000
      5 C5         136.8968 144.6099 167.6584 C.3            1 RES1               0.0000
      6 C6         138.0906 142.5451 164.5973 C.ar           1 RES1               0.0000
      7 C7         136.2379 142.2614 166.0729 C.ar           1 RES1               0.0000
      8 N8         140.3557 144.1910 166.7580 N.am           1 RES1               0.0000
      9 O9         139.1665 142.8843 168.1561 O.2            1 RES1               0.0000
     10 N10        139.3490 145.7762 165.3783 N.am           1 RES1               0.0000
     11 O11        137.1360 145.8132 164.9852 O.2            1 RES1               0.0000
     12 C12        137.3360 145.8598 168.4046 C.3            1 RES1               0.0000
     13 C13        137.6536 141.4692 163.8424 C.ar           1 RES1               0.0000
     14 C14        135.8026 141.1860 165.3164 C.ar           1 RES1               0.0000
     15 C15        140.5003 145.2482 165.8959 C.2            1 RES1               0.0000
     16 C16        136.5097 140.7887 164.2016 C.ar           1 RES1               0.0000
     17 O17        141.6124 145.6876 165.6178 O.2            1 RES1               0.0000
     18 H18        135.9220 144.8008 167.1929 H              1 RES1               0.0000
     19 H19        136.7694 143.7940 168.3805 H              1 RES1               0.0000
     20 H20        138.9916 143.0700 164.2977 H              1 RES1               0.0000
     21 H21        135.6650 142.5569 166.9453 H              1 RES1               0.0000
     22 H22        141.2066 143.7318 167.0670 H              1 RES1               0.0000
     23 H23        139.4467 146.5914 164.7814 H              1 RES1               0.0000
     24 H24        136.6036 146.1351 169.1606 H              1 RES1               0.0000
     25 H25        138.2906 145.6973 168.9009 H              1 RES1               0.0000
     26 H26        137.4482 146.6982 167.7202 H              1 RES1               0.0000
     27 H27        138.2130 141.1615 162.9651 H              1 RES1               0.0000
     28 H28        134.9014 140.6537 165.6025 H              1 RES1               0.0000
     29 H29        136.1678 139.9457 163.6102 H              1 RES1               0.0000
@<TRIPOS>BOND
    1    1    2 1     
    2    1    3 1     
    3    1    4 1     
    4    1    5 1     
    5    2    6 ar    
    6    2    7 ar    
    7    3    8 1     
    8    3    9 2     
    9    4   10 1     
   10    4   11 2     
   11    5   12 1     
   12    5   18 1     
   13    5   19 1     
   14    6   13 ar    
   15    6   20 1     
   16    7   14 ar    
   17    7   21 1     
   18    8   15 1     
   19    8   22 1     
   20   10   15 1     
   21   10   23 1     
   22   12   24 1     
   23   12   25 1     
   24   12   26 1     
   25   13   16 ar    
   26   13   27 1     
   27   14   16 ar    
   28   14   28 1     
   29   15   17 2     
   30   16   29 1     
@<TRIPOS>SUBSTRUCTURE
      1 RES1           1
@<TRIPOS>SET
DONOR_HYDROGENS      STATIC     ATOMS    <user>   **** ""
2 22 23
ATOM$RED        STATIC     ATOMS    COLORGROUP SYSTEM
2 22 23
@<TRIPOS>COMMENT
> <Gold.Version>
2022.3.0

> <Gold.Id.Protein>
unknown|7rmi_cavity_clean|pdb

> <Gold.Protein.RotatedTorsions>
[ 5081 5072 5071 5069 ] final  125.90 input   59.98 | X-H torsion
[ 5041 5025 5024 5021 ] final -106.04 input   60.00 | X-H torsion
[ 5032 5026 5027 5028 ] final   65.35 input  106.27 | X-H torsion
[ 5036 5031 5030 5027 ] final -139.47 input   60.01 | X-H torsion
[ 4987 4979 4980 4981 ] final  -45.44 input  111.67 | X-H torsion
[ 5133 5126 5127 5128 ] final   74.11 input   60.01 | X-H torsion
[ 14333 5029 5028 5027 ] final -149.99 input    0.00 | X-H torsion
[ 14340 4982 4981 4980 ] final   91.61 input    0.00 | X-H torsion

> <Gold.Protein.ActiveResidues>
 TRP99   VAL100  MET101  CYS103  ALA104  ASP118  ASN119  ILE120  SER122  TYR124 
 LEU126  VAL133  LEU139  HIS142 

> <Gold.Protein.RotatedAtoms>
  134.8588  135.5999  117.5126 H   0  0  0  0  0  0  0  0  0  0  0  0  # atno 4987 bound_to 4979
  136.5703  135.4009  119.4103 H   0  0  0  0  0  0  0  0  0  0  0  0  # atno 5032 bound_to 5026
  134.0952  136.9581  120.6651 H   0  0  0  0  0  0  0  0  0  0  0  0  # atno 5036 bound_to 5031
  156.4462  141.8805  165.1000 H   0  0  0  0  0  0  0  0  0  0  0  0  # atno 5041 bound_to 5025
  156.0624  143.1403  160.9646 H   0  0  0  0  0  0  0  0  0  0  0  0  # atno 5081 bound_to 5072
  159.6727  150.9533  155.2871 H   0  0  0  0  0  0  0  0  0  0  0  0  # atno 5133 bound_to 5126
  159.8884  152.4625  155.9379 H   0  0  0  0  0  0  0  0  0  0  0  0  # atno 5134 bound_to 5126
  157.0649  143.8122  159.8734 LP  0  0  0  0  0  0  0  0  0  0  0  0  # atno 14312 bound_to 5072
  155.4802  143.6271  159.5255 LP  0  0  0  0  0  0  0  0  0  0  0  0  # atno 14313 bound_to 5072
  155.0125  141.1836  164.7700 LP  0  0  0  0  0  0  0  0  0  0  0  0  # atno 14330 bound_to 5025
  155.4602  141.4424  166.3190 LP  0  0  0  0  0  0  0  0  0  0  0  0  # atno 14331 bound_to 5025
  138.1707  135.7715  119.9990 LP  0  0  0  0  0  0  0  0  0  0  0  0  # atno 14332 bound_to 5026
  136.6379  132.5768  123.1605 LP  0  0  0  0  0  0  0  0  0  0  0  0  # atno 14333 bound_to 5029
  136.4491  134.1730  123.8059 LP  0  0  0  0  0  0  0  0  0  0  0  0  # atno 14334 bound_to 5029
  133.8073  135.6068  121.5245 LP  0  0  0  0  0  0  0  0  0  0  0  0  # atno 14335 bound_to 5031
  134.7867  135.5544  120.2189 LP  0  0  0  0  0  0  0  0  0  0  0  0  # atno 14336 bound_to 5031
  134.7050  135.6987  115.7778 LP  0  0  0  0  0  0  0  0  0  0  0  0  # atno 14339 bound_to 4979
  137.9033  132.2248  117.5862 LP  0  0  0  0  0  0  0  0  0  0  0  0  # atno 14340 bound_to 4982
  136.9134  132.7618  118.9022 LP  0  0  0  0  0  0  0  0  0  0  0  0  # atno 14341 bound_to 4982
  161.0136  151.2874  156.1802 LP  0  0  0  0  0  0  0  0  0  0  0  0  # atno 14344 bound_to 5126

> <Gold.Score>
     Fitness  S(hb_ext) S(vdw_ext)  S(hb_int)    S(int)      intcor
     36.71       1.74      25.43       0.00      -0.00      -0.76

> <Gold.Goldscore.Fitness>
36.7054

> <Gold.Goldscore.Internal.Vdw>
-0.3561

> <Gold.Goldscore.Internal.Torsion>
-0.4039

> <Gold.Goldscore.External.Vdw>
25.4287

> <Gold.Goldscore.Internal.HBond>
0.0000

> <Gold.Goldscore.External.HBond>
1.7443

> <Gold.Goldscore.Internal.Correction>
-0.7567

> <Gold.Goldscore.Hbonds>
donor molecule, donor type, donor heavy atom, donor atom, acceptor molecule, acceptor atom, score
      P1  H  4756  4762       L1    17  0.87

> <Gold.Goldscore.Internal.Vdw.Weighted>
-0.3561

> <Gold.Goldscore.Internal.Torsion.Weighted>
-0.4039

> <Gold.Goldscore.External.Vdw.Weighted>
34.9644

> <Gold.Goldscore.Internal.HBond.Weighted>
0.0000

> <Gold.Goldscore.External.HBond.Weighted>
1.7443

> <Gold.Goldscore.Internal.Correction.Weighted>
-0.7567

> <Gold.Rescore>
     Score     S(PLP)   S(hbond)     S(cho)   S(metal)  DE(clash)   DE(tors)     intcor
     26.85     -24.79       0.91       0.00       0.00       0.00       0.34       ----

> <Gold.PLP.Fitness>
26.8460

> <Gold.PLP.PLP>
-24.7898

> <Gold.PLP.part.hbond>
-2.5932

> <Gold.PLP.part.metal>
0.0000

> <Gold.PLP.part.buried>
-3.2762

> <Gold.PLP.part.nonpolar>
-19.8589

> <Gold.PLP.part.repulsive>
0.9372

> <Gold.PLP.ligand.clash>
0.0000

> <Gold.PLP.ligand.torsion>
0.3369

> <Gold.PLP.Chemscore.Hbond>
0.9100

> <Gold.PLP.Chemscore.CHOScore>
0.0000

> <Gold.PLP.Chemscore.Metal>
0.0000

> <Gold.Chemscore.Hbonds>
donor molecule, donor type, donor heavy atom, donor atom, acceptor molecule, acceptor atom, score
      P1  H  4756  4762       L1    17  0.55

> <Gold.PLP.Chemscore.Internal.Correction>
   9.000000E+99

