#       Name:                CT1002167954
#       Creating user name   hitesit
#       Creation time:       Sun Apr 16 23:06:30 2023


#       File generated by GOLD software.
#

@<TRIPOS>MOLECULE
CT1002167954|ligand_prepared|mol2|1|dock2
    29    30     1
SMALL
NO_CHARGES


@<TRIPOS>ATOM
      1 C1         137.6514 142.7866 165.7025 C.3            1 RES1               0.0000
      2 C2         136.8737 141.6541 165.0016 C.ar           1 RES1               0.0000
      3 C3         136.7887 144.0391 165.5789 C.2            1 RES1               0.0000
      4 C4         137.8759 142.3249 167.1382 C.2            1 RES1               0.0000
      5 C5         139.0335 143.0781 165.0728 C.3            1 RES1               0.0000
      6 C6         135.7367 141.1067 165.5883 C.ar           1 RES1               0.0000
      7 C7         137.2788 141.1491 163.7689 C.ar           1 RES1               0.0000
      8 N8         136.1419 144.4737 166.6981 N.am           1 RES1               0.0000
      9 O9         136.6464 144.6138 164.5067 O.2            1 RES1               0.0000
     10 N10        137.2579 143.0243 168.1416 N.am           1 RES1               0.0000
     11 O11        138.5688 141.3517 167.4084 O.2            1 RES1               0.0000
     12 C12        139.8932 144.0268 165.8932 C.3            1 RES1               0.0000
     13 C13        135.0285 140.0932 164.9641 C.ar           1 RES1               0.0000
     14 C14        136.5692 140.1354 163.1464 C.ar           1 RES1               0.0000
     15 C15        136.3765 144.0590 167.9845 C.2            1 RES1               0.0000
     16 C16        135.4440 139.6072 163.7427 C.ar           1 RES1               0.0000
     17 O17        135.8191 144.6023 168.9338 O.2            1 RES1               0.0000
     18 H18        139.5723 142.1306 164.9495 H              1 RES1               0.0000
     19 H19        138.8832 143.5106 164.0759 H              1 RES1               0.0000
     20 H20        135.3961 141.4747 166.5504 H              1 RES1               0.0000
     21 H21        138.1617 141.5487 163.2816 H              1 RES1               0.0000
     22 H22        135.4167 145.1716 166.5665 H              1 RES1               0.0000
     23 H23        137.4753 142.7481 169.0938 H              1 RES1               0.0000
     24 H24        140.8514 144.1974 165.4068 H              1 RES1               0.0000
     25 H25        139.3988 144.9884 166.0144 H              1 RES1               0.0000
     26 H26        140.0838 143.6166 166.8828 H              1 RES1               0.0000
     27 H27        134.1444 139.6800 165.4382 H              1 RES1               0.0000
     28 H28        136.9002 139.7555 162.1855 H              1 RES1               0.0000
     29 H29        134.8888 138.8135 163.2538 H              1 RES1               0.0000
@<TRIPOS>BOND
    1    1    2 1     
    2    1    3 1     
    3    1    4 1     
    4    1    5 1     
    5    2    6 ar    
    6    2    7 ar    
    7    3    8 1     
    8    3    9 2     
    9    4   10 1     
   10    4   11 2     
   11    5   12 1     
   12    5   18 1     
   13    5   19 1     
   14    6   13 ar    
   15    6   20 1     
   16    7   14 ar    
   17    7   21 1     
   18    8   15 1     
   19    8   22 1     
   20   10   15 1     
   21   10   23 1     
   22   12   24 1     
   23   12   25 1     
   24   12   26 1     
   25   13   16 ar    
   26   13   27 1     
   27   14   16 ar    
   28   14   28 1     
   29   15   17 2     
   30   16   29 1     
@<TRIPOS>SUBSTRUCTURE
      1 RES1           1
@<TRIPOS>SET
DONOR_HYDROGENS      STATIC     ATOMS    <user>   **** ""
2 22 23
ATOM$RED        STATIC     ATOMS    COLORGROUP SYSTEM
2 22 23
@<TRIPOS>COMMENT
> <Gold.Version>
2022.3.0

> <Gold.Id.Protein>
unknown|7rmi_cavity_clean|pdb

> <Gold.Protein.RotatedTorsions>
[ 5081 5072 5071 5069 ] final   74.09 input   59.98 | X-H torsion
[ 5041 5025 5024 5021 ] final  -22.66 input   60.00 | X-H torsion
[ 5032 5026 5027 5028 ] final  -75.25 input  106.27 | X-H torsion
[ 5036 5031 5030 5027 ] final   68.96 input   60.01 | X-H torsion
[ 4987 4979 4980 4981 ] final  153.48 input  111.67 | X-H torsion
[ 5133 5126 5127 5128 ] final  -16.79 input   60.01 | X-H torsion
[ 14333 5029 5028 5027 ] final   -4.77 input    0.00 | X-H torsion
[ 14340 4982 4981 4980 ] final    1.18 input    0.00 | X-H torsion

> <Gold.Protein.ActiveResidues>
 TRP99   VAL100  MET101  CYS103  ALA104  ASP118  ASN119  ILE120  SER122  TYR124 
 LEU126  VAL133  LEU139  HIS142 

> <Gold.Protein.RotatedAtoms>
  134.4569  135.5631  115.8280 H   0  0  0  0  0  0  0  0  0  0  0  0  # atno 4987 bound_to 4979
  138.1290  135.1895  119.9234 H   0  0  0  0  0  0  0  0  0  0  0  0  # atno 5032 bound_to 5026
  134.0833  135.2514  121.2820 H   0  0  0  0  0  0  0  0  0  0  0  0  # atno 5036 bound_to 5031
  155.9888  141.6951  166.2443 H   0  0  0  0  0  0  0  0  0  0  0  0  # atno 5041 bound_to 5025
  156.8294  143.3712  160.8004 H   0  0  0  0  0  0  0  0  0  0  0  0  # atno 5081 bound_to 5072
  160.8630  150.8965  155.9515 H   0  0  0  0  0  0  0  0  0  0  0  0  # atno 5133 bound_to 5126
  159.4189  151.3620  155.2839 H   0  0  0  0  0  0  0  0  0  0  0  0  # atno 5134 bound_to 5126
  156.4717  143.9257  159.3132 LP  0  0  0  0  0  0  0  0  0  0  0  0  # atno 14312 bound_to 5072
  155.3006  143.2809  160.2511 LP  0  0  0  0  0  0  0  0  0  0  0  0  # atno 14313 bound_to 5072
  156.1380  141.7170  164.6234 LP  0  0  0  0  0  0  0  0  0  0  0  0  # atno 14330 bound_to 5025
  154.7950  141.0955  165.3140 LP  0  0  0  0  0  0  0  0  0  0  0  0  # atno 14331 bound_to 5025
  136.6341  135.9800  119.4932 LP  0  0  0  0  0  0  0  0  0  0  0  0  # atno 14332 bound_to 5026
  136.9527  134.1043  123.7079 LP  0  0  0  0  0  0  0  0  0  0  0  0  # atno 14333 bound_to 5029
  136.1343  132.6454  123.2585 LP  0  0  0  0  0  0  0  0  0  0  0  0  # atno 14334 bound_to 5029
  134.7900  136.0366  120.0446 LP  0  0  0  0  0  0  0  0  0  0  0  0  # atno 14335 bound_to 5031
  133.8160  136.8433  121.0776 LP  0  0  0  0  0  0  0  0  0  0  0  0  # atno 14336 bound_to 5031
  135.1015  135.7350  117.4398 LP  0  0  0  0  0  0  0  0  0  0  0  0  # atno 14339 bound_to 4979
  136.7263  132.0778  117.9093 LP  0  0  0  0  0  0  0  0  0  0  0  0  # atno 14340 bound_to 4982
  138.0904  132.9088  118.5791 LP  0  0  0  0  0  0  0  0  0  0  0  0  # atno 14341 bound_to 4982
  160.3037  152.4283  156.1703 LP  0  0  0  0  0  0  0  0  0  0  0  0  # atno 14344 bound_to 5126

> <Gold.Score>
     Fitness  S(hb_ext) S(vdw_ext)  S(hb_int)    S(int)      intcor
     37.08       0.00      27.06       0.00      -0.13      -0.76

> <Gold.Goldscore.Fitness>
37.0767

> <Gold.Goldscore.Internal.Vdw>
-0.3764

> <Gold.Goldscore.Internal.Torsion>
-0.5079

> <Gold.Goldscore.External.Vdw>
27.0577

> <Gold.Goldscore.Internal.HBond>
0.0000

> <Gold.Goldscore.External.HBond>
0.0000

> <Gold.Goldscore.Internal.Correction>
-0.7567

> <Gold.Goldscore.Internal.Vdw.Weighted>
-0.3764

> <Gold.Goldscore.Internal.Torsion.Weighted>
-0.5079

> <Gold.Goldscore.External.Vdw.Weighted>
37.2044

> <Gold.Goldscore.Internal.HBond.Weighted>
0.0000

> <Gold.Goldscore.External.HBond.Weighted>
0.0000

> <Gold.Goldscore.Internal.Correction.Weighted>
-0.7567

> <Gold.Rescore>
     Score     S(PLP)   S(hbond)     S(cho)   S(metal)  DE(clash)   DE(tors)     intcor
     29.06     -31.31       0.00       0.00       0.00       0.00       1.13       ----

> <Gold.PLP.Fitness>
29.0624

> <Gold.PLP.PLP>
-31.3131

> <Gold.PLP.part.hbond>
-2.7181

> <Gold.PLP.part.metal>
0.0000

> <Gold.PLP.part.buried>
-1.8823

> <Gold.PLP.part.nonpolar>
-31.3244

> <Gold.PLP.part.repulsive>
3.5460

> <Gold.PLP.ligand.clash>
0.0000

> <Gold.PLP.ligand.torsion>
1.1253

> <Gold.PLP.Chemscore.Hbond>
0.0000

> <Gold.PLP.Chemscore.CHOScore>
0.0000

> <Gold.PLP.Chemscore.Metal>
0.0000

> <Gold.PLP.Chemscore.Internal.Correction>
   9.000000E+99

