#       Name:                CT1002167954
#       Creating user name   hitesit
#       Creation time:       Sun Apr 16 23:06:37 2023


#       File generated by GOLD software.
#

@<TRIPOS>MOLECULE
CT1002167954|ligand_prepared|mol2|1|dock5
    29    30     1
SMALL
NO_CHARGES


@<TRIPOS>ATOM
      1 C1         137.6992 143.6087 166.3840 C.3            1 RES1               0.0000
      2 C2         137.2872 142.3866 165.5380 C.ar           1 RES1               0.0000
      3 C3         139.0029 143.2283 167.0797 C.2            1 RES1               0.0000
      4 C4         137.8304 144.7758 165.4118 C.2            1 RES1               0.0000
      5 C5         136.6627 143.9998 167.4629 C.3            1 RES1               0.0000
      6 C6         137.9048 142.1287 164.3179 C.ar           1 RES1               0.0000
      7 C7         136.2949 141.5083 165.9651 C.ar           1 RES1               0.0000
      8 N8         140.1544 143.7936 166.6168 N.am           1 RES1               0.0000
      9 O9         139.0250 142.4144 167.9948 O.2            1 RES1               0.0000
     10 N10        139.0749 145.3174 165.2230 N.am           1 RES1               0.0000
     11 O11        136.8702 145.2206 164.7951 O.2            1 RES1               0.0000
     12 C12        136.9440 145.3387 168.1266 C.3            1 RES1               0.0000
     13 C13        137.5455 141.0309 163.5537 C.ar           1 RES1               0.0000
     14 C14        135.9369 140.4111 165.1992 C.ar           1 RES1               0.0000
     15 C15        140.2480 144.8593 165.7581 C.2            1 RES1               0.0000
     16 C16        136.5618 140.1712 163.9939 C.ar           1 RES1               0.0000
     17 O17        141.3355 145.3660 165.4980 O.2            1 RES1               0.0000
     18 H18        135.6686 144.0368 167.0006 H              1 RES1               0.0000
     19 H19        136.6448 143.2202 168.2345 H              1 RES1               0.0000
     20 H20        138.6794 142.7955 163.9540 H              1 RES1               0.0000
     21 H21        135.7889 141.6778 166.9095 H              1 RES1               0.0000
     22 H22        141.0266 143.3864 166.9387 H              1 RES1               0.0000
     23 H23        139.1322 146.1381 164.6285 H              1 RES1               0.0000
     24 H24        136.1873 145.5648 168.8749 H              1 RES1               0.0000
     25 H25        137.9145 145.3292 168.6182 H              1 RES1               0.0000
     26 H26        136.9441 146.1410 167.3916 H              1 RES1               0.0000
     27 H27        138.0394 140.8473 162.6052 H              1 RES1               0.0000
     28 H28        135.1617 139.7375 165.5493 H              1 RES1               0.0000
     29 H29        136.2808 139.3111 163.3952 H              1 RES1               0.0000
@<TRIPOS>BOND
    1    1    2 1     
    2    1    3 1     
    3    1    4 1     
    4    1    5 1     
    5    2    6 ar    
    6    2    7 ar    
    7    3    8 1     
    8    3    9 2     
    9    4   10 1     
   10    4   11 2     
   11    5   12 1     
   12    5   18 1     
   13    5   19 1     
   14    6   13 ar    
   15    6   20 1     
   16    7   14 ar    
   17    7   21 1     
   18    8   15 1     
   19    8   22 1     
   20   10   15 1     
   21   10   23 1     
   22   12   24 1     
   23   12   25 1     
   24   12   26 1     
   25   13   16 ar    
   26   13   27 1     
   27   14   16 ar    
   28   14   28 1     
   29   15   17 2     
   30   16   29 1     
@<TRIPOS>SUBSTRUCTURE
      1 RES1           1
@<TRIPOS>SET
DONOR_HYDROGENS      STATIC     ATOMS    <user>   **** ""
2 22 23
ATOM$RED        STATIC     ATOMS    COLORGROUP SYSTEM
2 22 23
@<TRIPOS>COMMENT
> <Gold.Version>
2022.3.0

> <Gold.Id.Protein>
unknown|7rmi_cavity_clean|pdb

> <Gold.Protein.RotatedTorsions>
[ 5081 5072 5071 5069 ] final  -74.32 input   59.98 | X-H torsion
[ 5041 5025 5024 5021 ] final  131.44 input   60.00 | X-H torsion
[ 5032 5026 5027 5028 ] final  -49.86 input  106.27 | X-H torsion
[ 5036 5031 5030 5027 ] final -164.29 input   60.01 | X-H torsion
[ 4987 4979 4980 4981 ] final  152.57 input  111.67 | X-H torsion
[ 5133 5126 5127 5128 ] final    3.76 input   60.01 | X-H torsion
[ 14333 5029 5028 5027 ] final -119.47 input    0.00 | X-H torsion
[ 14340 4982 4981 4980 ] final  -59.10 input    0.00 | X-H torsion

> <Gold.Protein.ActiveResidues>
 TRP99   VAL100  MET101  CYS103  ALA104  ASP118  ASN119  ILE120  SER122  TYR124 
 LEU126  VAL133  LEU139  HIS142 

> <Gold.Protein.RotatedAtoms>
  134.4680  135.5700  115.8230 H   0  0  0  0  0  0  0  0  0  0  0  0  # atno 4987 bound_to 4979
  137.9033  134.8936  119.8199 H   0  0  0  0  0  0  0  0  0  0  0  0  # atno 5032 bound_to 5026
  133.8721  136.8860  120.9921 H   0  0  0  0  0  0  0  0  0  0  0  0  # atno 5036 bound_to 5031
  154.9911  141.1768  164.8053 H   0  0  0  0  0  0  0  0  0  0  0  0  # atno 5041 bound_to 5025
  156.0188  143.8532  159.2661 H   0  0  0  0  0  0  0  0  0  0  0  0  # atno 5081 bound_to 5072
  160.6405  150.7200  155.7619 H   0  0  0  0  0  0  0  0  0  0  0  0  # atno 5133 bound_to 5126
  159.3559  151.6883  155.3616 H   0  0  0  0  0  0  0  0  0  0  0  0  # atno 5134 bound_to 5126
  155.5089  143.1570  160.6454 LP  0  0  0  0  0  0  0  0  0  0  0  0  # atno 14312 bound_to 5072
  157.0801  143.5640  160.4648 LP  0  0  0  0  0  0  0  0  0  0  0  0  # atno 14313 bound_to 5072
  155.4970  141.4602  166.3264 LP  0  0  0  0  0  0  0  0  0  0  0  0  # atno 14330 bound_to 5025
  156.4400  141.8739  165.0591 LP  0  0  0  0  0  0  0  0  0  0  0  0  # atno 14331 bound_to 5025
  136.8566  136.2716  119.5952 LP  0  0  0  0  0  0  0  0  0  0  0  0  # atno 14332 bound_to 5026
  137.0582  132.7531  123.1693 LP  0  0  0  0  0  0  0  0  0  0  0  0  # atno 14333 bound_to 5029
  136.0288  133.9966  123.7971 LP  0  0  0  0  0  0  0  0  0  0  0  0  # atno 14334 bound_to 5029
  134.0147  135.3053  121.3503 LP  0  0  0  0  0  0  0  0  0  0  0  0  # atno 14335 bound_to 5031
  134.8040  135.9284  120.0638 LP  0  0  0  0  0  0  0  0  0  0  0  0  # atno 14336 bound_to 5031
  135.0906  135.7282  117.4448 LP  0  0  0  0  0  0  0  0  0  0  0  0  # atno 14339 bound_to 4979
  136.6448  132.5232  118.6518 LP  0  0  0  0  0  0  0  0  0  0  0  0  # atno 14340 bound_to 4982
  138.1719  132.4634  117.8366 LP  0  0  0  0  0  0  0  0  0  0  0  0  # atno 14341 bound_to 4982
  160.5850  152.2805  156.2804 LP  0  0  0  0  0  0  0  0  0  0  0  0  # atno 14344 bound_to 5126

> <Gold.Score>
     Fitness  S(hb_ext) S(vdw_ext)  S(hb_int)    S(int)      intcor
     35.51       0.76      25.33       0.00      -0.09      -0.76

> <Gold.Goldscore.Fitness>
35.5067

> <Gold.Goldscore.Internal.Vdw>
-0.3112

> <Gold.Goldscore.Internal.Torsion>
-0.5318

> <Gold.Goldscore.External.Vdw>
25.3302

> <Gold.Goldscore.Internal.HBond>
0.0000

> <Gold.Goldscore.External.HBond>
0.7639

> <Gold.Goldscore.Internal.Correction>
-0.7567

> <Gold.Goldscore.Hbonds>
donor molecule, donor type, donor heavy atom, donor atom, acceptor molecule, acceptor atom, score
      P1  H  4756  4762       L1    17  0.38

> <Gold.Goldscore.Internal.Vdw.Weighted>
-0.3112

> <Gold.Goldscore.Internal.Torsion.Weighted>
-0.5318

> <Gold.Goldscore.External.Vdw.Weighted>
34.8291

> <Gold.Goldscore.Internal.HBond.Weighted>
0.0000

> <Gold.Goldscore.External.HBond.Weighted>
0.7639

> <Gold.Goldscore.Internal.Correction.Weighted>
-0.7567

> <Gold.Rescore>
     Score     S(PLP)   S(hbond)     S(cho)   S(metal)  DE(clash)   DE(tors)     intcor
     24.88     -26.98       0.00       0.00       0.00       0.00       1.05       ----

> <Gold.PLP.Fitness>
24.8805

> <Gold.PLP.PLP>
-26.9792

> <Gold.PLP.part.hbond>
-2.9908

> <Gold.PLP.part.metal>
0.0000

> <Gold.PLP.part.buried>
-5.4759

> <Gold.PLP.part.nonpolar>
-23.8355

> <Gold.PLP.part.repulsive>
4.3428

> <Gold.PLP.ligand.clash>
0.0000

> <Gold.PLP.ligand.torsion>
1.0493

> <Gold.PLP.Chemscore.Hbond>
0.0000

> <Gold.PLP.Chemscore.CHOScore>
0.0000

> <Gold.PLP.Chemscore.Metal>
0.0000

> <Gold.PLP.Chemscore.Internal.Correction>
   9.000000E+99

