#       Name:                CT1002167954
#       Creating user name   hitesit
#       Creation time:       Sun Apr 16 23:06:41 2023


#       File generated by GOLD software.
#

@<TRIPOS>MOLECULE
CT1002167954|ligand_prepared|mol2|1|dock7
    29    30     1
SMALL
NO_CHARGES


@<TRIPOS>ATOM
      1 C1         137.5741 143.4283 165.4466 C.3            1 RES1               0.0000
      2 C2         136.8272 142.1667 164.9677 C.ar           1 RES1               0.0000
      3 C3         136.5967 144.1942 166.3333 C.2            1 RES1               0.0000
      4 C4         138.8199 142.9358 166.1748 C.2            1 RES1               0.0000
      5 C5         138.0285 144.3590 164.2983 C.3            1 RES1               0.0000
      6 C6         135.7578 141.6565 165.6976 C.ar           1 RES1               0.0000
      7 C7         137.1936 141.5050 163.7988 C.ar           1 RES1               0.0000
      8 N8         136.8119 144.1690 167.6797 N.am           1 RES1               0.0000
      9 O9         135.6291 144.7786 165.8615 O.2            1 RES1               0.0000
     10 N10        138.9131 143.1741 167.5210 N.am           1 RES1               0.0000
     11 O11        139.7140 142.3291 165.5980 O.2            1 RES1               0.0000
     12 C12        138.4975 145.7274 164.7672 C.3            1 RES1               0.0000
     13 C13        135.0773 140.5274 165.2729 C.ar           1 RES1               0.0000
     14 C14        136.5119 140.3758 163.3759 C.ar           1 RES1               0.0000
     15 C15        137.9515 143.7412 168.3122 C.2            1 RES1               0.0000
     16 C16        135.4536 139.8866 164.1116 C.ar           1 RES1               0.0000
     17 O17        138.0865 143.8723 169.5254 O.2            1 RES1               0.0000
     18 H18        138.8469 143.8731 163.7527 H              1 RES1               0.0000
     19 H19        137.1929 144.4924 163.6001 H              1 RES1               0.0000
     20 H20        135.4489 142.1459 166.6153 H              1 RES1               0.0000
     21 H21        138.0238 141.8713 163.2045 H              1 RES1               0.0000
     22 H22        136.0556 144.4986 168.2711 H              1 RES1               0.0000
     23 H23        139.7795 142.9037 167.9754 H              1 RES1               0.0000
     24 H24        138.8048 146.3402 163.9224 H              1 RES1               0.0000
     25 H25        137.7002 146.2494 165.2922 H              1 RES1               0.0000
     26 H26        139.3444 145.6338 165.4439 H              1 RES1               0.0000
     27 H27        134.2460 140.1456 165.8562 H              1 RES1               0.0000
     28 H28        136.8119 139.8744 162.4617 H              1 RES1               0.0000
     29 H29        134.9201 139.0024 163.7789 H              1 RES1               0.0000
@<TRIPOS>BOND
    1    1    2 1     
    2    1    3 1     
    3    1    4 1     
    4    1    5 1     
    5    2    6 ar    
    6    2    7 ar    
    7    3    8 1     
    8    3    9 2     
    9    4   10 1     
   10    4   11 2     
   11    5   12 1     
   12    5   18 1     
   13    5   19 1     
   14    6   13 ar    
   15    6   20 1     
   16    7   14 ar    
   17    7   21 1     
   18    8   15 1     
   19    8   22 1     
   20   10   15 1     
   21   10   23 1     
   22   12   24 1     
   23   12   25 1     
   24   12   26 1     
   25   13   16 ar    
   26   13   27 1     
   27   14   16 ar    
   28   14   28 1     
   29   15   17 2     
   30   16   29 1     
@<TRIPOS>SUBSTRUCTURE
      1 RES1           1
@<TRIPOS>SET
DONOR_HYDROGENS      STATIC     ATOMS    <user>   **** ""
2 22 23
ATOM$RED        STATIC     ATOMS    COLORGROUP SYSTEM
2 22 23
@<TRIPOS>COMMENT
> <Gold.Version>
2022.3.0

> <Gold.Id.Protein>
unknown|7rmi_cavity_clean|pdb

> <Gold.Protein.RotatedTorsions>
[ 5081 5072 5071 5069 ] final  149.88 input   59.98 | X-H torsion
[ 5041 5025 5024 5021 ] final -120.30 input   60.00 | X-H torsion
[ 5032 5026 5027 5028 ] final  -44.99 input  106.27 | X-H torsion
[ 5036 5031 5030 5027 ] final -104.89 input   60.01 | X-H torsion
[ 4987 4979 4980 4981 ] final   65.30 input  111.67 | X-H torsion
[ 5133 5126 5127 5128 ] final  105.70 input   60.01 | X-H torsion
[ 14333 5029 5028 5027 ] final  -22.93 input    0.00 | X-H torsion
[ 14340 4982 4981 4980 ] final   56.63 input    0.00 | X-H torsion

> <Gold.Protein.ActiveResidues>
 TRP99   VAL100  MET101  CYS103  ALA104  ASP118  ASN119  ILE120  SER122  TYR124 
 LEU126  VAL133  LEU139  HIS142 

> <Gold.Protein.RotatedAtoms>
  135.4632  136.0792  116.2907 H   0  0  0  0  0  0  0  0  0  0  0  0  # atno 4987 bound_to 4979
  137.8467  134.8509  119.7968 H   0  0  0  0  0  0  0  0  0  0  0  0  # atno 5032 bound_to 5026
  134.4378  136.7792  120.2648 H   0  0  0  0  0  0  0  0  0  0  0  0  # atno 5036 bound_to 5031
  156.3581  141.8323  164.8903 H   0  0  0  0  0  0  0  0  0  0  0  0  # atno 5041 bound_to 5025
  155.7053  143.1306  160.8109 H   0  0  0  0  0  0  0  0  0  0  0  0  # atno 5081 bound_to 5072
  159.4054  151.4005  155.2895 H   0  0  0  0  0  0  0  0  0  0  0  0  # atno 5133 bound_to 5126
  160.3438  152.4298  156.1883 H   0  0  0  0  0  0  0  0  0  0  0  0  # atno 5134 bound_to 5126
  157.1269  143.6719  160.2340 LP  0  0  0  0  0  0  0  0  0  0  0  0  # atno 14312 bound_to 5072
  155.7780  143.7771  159.3197 LP  0  0  0  0  0  0  0  0  0  0  0  0  # atno 14313 bound_to 5072
  154.8908  141.1311  164.9628 LP  0  0  0  0  0  0  0  0  0  0  0  0  # atno 14330 bound_to 5025
  155.6705  141.5434  166.3372 LP  0  0  0  0  0  0  0  0  0  0  0  0  # atno 14331 bound_to 5025
  136.9124  136.3138  119.6181 LP  0  0  0  0  0  0  0  0  0  0  0  0  # atno 14332 bound_to 5026
  137.1676  133.9592  123.6212 LP  0  0  0  0  0  0  0  0  0  0  0  0  # atno 14333 bound_to 5029
  135.9194  132.7905  123.3452 LP  0  0  0  0  0  0  0  0  0  0  0  0  # atno 14334 bound_to 5029
  133.6540  136.1456  121.5421 LP  0  0  0  0  0  0  0  0  0  0  0  0  # atno 14335 bound_to 5031
  134.5949  135.1957  120.6044 LP  0  0  0  0  0  0  0  0  0  0  0  0  # atno 14336 bound_to 5031
  134.1087  135.2258  116.9833 LP  0  0  0  0  0  0  0  0  0  0  0  0  # atno 14339 bound_to 4979
  137.4249  132.0339  117.5102 LP  0  0  0  0  0  0  0  0  0  0  0  0  # atno 14340 bound_to 4982
  137.3918  132.9527  118.9781 LP  0  0  0  0  0  0  0  0  0  0  0  0  # atno 14341 bound_to 4982
  160.8280  150.8791  155.9310 LP  0  0  0  0  0  0  0  0  0  0  0  0  # atno 14344 bound_to 5126

> <Gold.Score>
     Fitness  S(hb_ext) S(vdw_ext)  S(hb_int)    S(int)      intcor
     35.52       0.00      26.55       0.00      -0.98      -0.76

> <Gold.Goldscore.Fitness>
35.5212

> <Gold.Goldscore.Internal.Vdw>
-1.1333

> <Gold.Goldscore.Internal.Torsion>
-0.6025

> <Gold.Goldscore.External.Vdw>
26.5457

> <Gold.Goldscore.Internal.HBond>
0.0000

> <Gold.Goldscore.External.HBond>
0.0000

> <Gold.Goldscore.Internal.Correction>
-0.7567

> <Gold.Goldscore.Internal.Vdw.Weighted>
-1.1333

> <Gold.Goldscore.Internal.Torsion.Weighted>
-0.6025

> <Gold.Goldscore.External.Vdw.Weighted>
36.5003

> <Gold.Goldscore.Internal.HBond.Weighted>
0.0000

> <Gold.Goldscore.External.HBond.Weighted>
0.0000

> <Gold.Goldscore.Internal.Correction.Weighted>
-0.7567

> <Gold.Rescore>
     Score     S(PLP)   S(hbond)     S(cho)   S(metal)  DE(clash)   DE(tors)     intcor
     22.38     -22.41       0.00       0.00       0.00       0.00       0.01       ----

> <Gold.PLP.Fitness>
22.3824

> <Gold.PLP.PLP>
-22.4068

> <Gold.PLP.part.hbond>
0.0940

> <Gold.PLP.part.metal>
0.0000

> <Gold.PLP.part.buried>
0.9081

> <Gold.PLP.part.nonpolar>
-25.4580

> <Gold.PLP.part.repulsive>
1.3416

> <Gold.PLP.ligand.clash>
0.0000

> <Gold.PLP.ligand.torsion>
0.0122

> <Gold.PLP.Chemscore.Hbond>
0.0000

> <Gold.PLP.Chemscore.CHOScore>
0.0000

> <Gold.PLP.Chemscore.Metal>
0.0000

> <Gold.PLP.Chemscore.Internal.Correction>
   9.000000E+99

