#       Name:                CT1002167954
#       Creating user name   hitesit
#       Creation time:       Sun Apr 16 23:06:28 2023


#       File generated by GOLD software.
#

@<TRIPOS>MOLECULE
CT1002167954|ligand_prepared|mol2|1|dock1
    29    30     1
SMALL
NO_CHARGES


@<TRIPOS>ATOM
      1 C1         138.0711 144.8585 165.8057 C.3            1 RES1               0.0000
      2 C2         137.1593 145.6029 166.8023 C.ar           1 RES1               0.0000
      3 C3         138.6397 145.9208 164.8694 C.2            1 RES1               0.0000
      4 C4         139.1230 144.1406 166.6440 C.2            1 RES1               0.0000
      5 C5         137.3330 143.7986 164.9552 C.3            1 RES1               0.0000
      6 C6         137.6050 145.8960 168.0877 C.ar           1 RES1               0.0000
      7 C7         135.8734 146.0046 166.4506 C.ar           1 RES1               0.0000
      8 N8         139.9484 146.2693 165.0300 N.am           1 RES1               0.0000
      9 O9         137.9400 146.4727 164.0292 O.2            1 RES1               0.0000
     10 N10        140.4272 144.5421 166.5191 N.am           1 RES1               0.0000
     11 O11        138.8319 143.2422 167.4240 O.2            1 RES1               0.0000
     12 C12        138.2625 142.8870 164.1696 C.3            1 RES1               0.0000
     13 C13        136.7956 146.5688 168.9880 C.ar           1 RES1               0.0000
     14 C14        135.0656 146.6772 167.3526 C.ar           1 RES1               0.0000
     15 C15        140.8834 145.5944 165.7730 C.2            1 RES1               0.0000
     16 C16        135.5257 146.9603 168.6210 C.ar           1 RES1               0.0000
     17 O17        142.0646 145.9283 165.7541 O.2            1 RES1               0.0000
     18 H18        136.7126 143.1833 165.6185 H              1 RES1               0.0000
     19 H19        136.6652 144.3121 164.2525 H              1 RES1               0.0000
     20 H20        138.6005 145.5937 168.3953 H              1 RES1               0.0000
     21 H21        135.4900 145.7918 165.4585 H              1 RES1               0.0000
     22 H22        140.2607 147.1095 164.5537 H              1 RES1               0.0000
     23 H23        141.1224 144.0067 167.0294 H              1 RES1               0.0000
     24 H24        137.6937 142.1626 163.5906 H              1 RES1               0.0000
     25 H25        138.8771 143.4635 163.4813 H              1 RES1               0.0000
     26 H26        138.9242 142.3413 164.8391 H              1 RES1               0.0000
     27 H27        137.1619 146.7880 169.9855 H              1 RES1               0.0000
     28 H28        134.0666 146.9829 167.0596 H              1 RES1               0.0000
     29 H29        134.8920 147.4877 169.3263 H              1 RES1               0.0000
@<TRIPOS>BOND
    1    1    2 1     
    2    1    3 1     
    3    1    4 1     
    4    1    5 1     
    5    2    6 ar    
    6    2    7 ar    
    7    3    8 1     
    8    3    9 2     
    9    4   10 1     
   10    4   11 2     
   11    5   12 1     
   12    5   18 1     
   13    5   19 1     
   14    6   13 ar    
   15    6   20 1     
   16    7   14 ar    
   17    7   21 1     
   18    8   15 1     
   19    8   22 1     
   20   10   15 1     
   21   10   23 1     
   22   12   24 1     
   23   12   25 1     
   24   12   26 1     
   25   13   16 ar    
   26   13   27 1     
   27   14   16 ar    
   28   14   28 1     
   29   15   17 2     
   30   16   29 1     
@<TRIPOS>SUBSTRUCTURE
      1 RES1           1
@<TRIPOS>SET
DONOR_HYDROGENS      STATIC     ATOMS    <user>   **** ""
2 22 23
ATOM$RED        STATIC     ATOMS    COLORGROUP SYSTEM
2 22 23
@<TRIPOS>COMMENT
> <Gold.Version>
2022.3.0

> <Gold.Id.Protein>
unknown|7rmi_cavity_clean|pdb

> <Gold.Protein.RotatedTorsions>
[ 5081 5072 5071 5069 ] final   10.13 input   59.98 | X-H torsion
[ 5041 5025 5024 5021 ] final   43.11 input   60.00 | X-H torsion
[ 5032 5026 5027 5028 ] final   69.11 input  106.27 | X-H torsion
[ 5036 5031 5030 5027 ] final  -61.66 input   60.01 | X-H torsion
[ 4987 4979 4980 4981 ] final  147.03 input  111.67 | X-H torsion
[ 5133 5126 5127 5128 ] final  -39.29 input   60.01 | X-H torsion
[ 14333 5029 5028 5027 ] final   73.52 input    0.00 | X-H torsion
[ 14340 4982 4981 4980 ] final -175.70 input    0.00 | X-H torsion

> <Gold.Protein.ActiveResidues>
 TRP99   VAL100  MET101  CYS103  ALA104  ASP118  ASN119  ILE120  SER122  TYR124 
 LEU126  VAL133  LEU139  HIS142 

> <Gold.Protein.RotatedAtoms>
  134.5370  135.6119  115.7968 H   0  0  0  0  0  0  0  0  0  0  0  0  # atno 4987 bound_to 4979
  136.5589  135.4575  119.4115 H   0  0  0  0  0  0  0  0  0  0  0  0  # atno 5032 bound_to 5026
  134.7511  136.2063  120.0429 H   0  0  0  0  0  0  0  0  0  0  0  0  # atno 5036 bound_to 5031
  155.0810  141.2574  166.1052 H   0  0  0  0  0  0  0  0  0  0  0  0  # atno 5041 bound_to 5025
  157.0803  143.7906  159.9380 H   0  0  0  0  0  0  0  0  0  0  0  0  # atno 5081 bound_to 5072
  161.0087  151.1865  156.1364 H   0  0  0  0  0  0  0  0  0  0  0  0  # atno 5133 bound_to 5126
  159.6006  151.0361  155.2746 H   0  0  0  0  0  0  0  0  0  0  0  0  # atno 5134 bound_to 5126
  155.5248  143.6556  159.4804 LP  0  0  0  0  0  0  0  0  0  0  0  0  # atno 14312 bound_to 5072
  155.9947  143.1284  160.9528 LP  0  0  0  0  0  0  0  0  0  0  0  0  # atno 14313 bound_to 5072
  156.4755  141.9057  165.5714 LP  0  0  0  0  0  0  0  0  0  0  0  0  # atno 14330 bound_to 5025
  155.3711  141.3473  164.5060 LP  0  0  0  0  0  0  0  0  0  0  0  0  # atno 14331 bound_to 5025
  138.1820  135.7158  119.9979 LP  0  0  0  0  0  0  0  0  0  0  0  0  # atno 14332 bound_to 5026
  135.8875  133.8645  123.7659 LP  0  0  0  0  0  0  0  0  0  0  0  0  # atno 14333 bound_to 5029
  137.1995  132.8852  123.2004 LP  0  0  0  0  0  0  0  0  0  0  0  0  # atno 14334 bound_to 5029
  133.7475  136.7454  121.2046 LP  0  0  0  0  0  0  0  0  0  0  0  0  # atno 14335 bound_to 5031
  134.1860  135.1728  121.1653 LP  0  0  0  0  0  0  0  0  0  0  0  0  # atno 14336 bound_to 5031
  135.0225  135.6869  117.4706 LP  0  0  0  0  0  0  0  0  0  0  0  0  # atno 14339 bound_to 4979
  138.0628  132.9230  118.6145 LP  0  0  0  0  0  0  0  0  0  0  0  0  # atno 14340 bound_to 4982
  136.7539  132.0636  117.8739 LP  0  0  0  0  0  0  0  0  0  0  0  0  # atno 14341 bound_to 4982
  159.9810  152.4639  155.9972 LP  0  0  0  0  0  0  0  0  0  0  0  0  # atno 14344 bound_to 5126

> <Gold.Score>
     Fitness  S(hb_ext) S(vdw_ext)  S(hb_int)    S(int)      intcor
     35.75       1.55      25.74       0.00      -1.20      -0.78

> <Gold.Goldscore.Fitness>
35.7474

> <Gold.Goldscore.Internal.Vdw>
-1.4337

> <Gold.Goldscore.Internal.Torsion>
-0.5542

> <Gold.Goldscore.External.Vdw>
25.7438

> <Gold.Goldscore.Internal.HBond>
0.0000

> <Gold.Goldscore.External.HBond>
1.5538

> <Gold.Goldscore.Internal.Correction>
-0.7838

> <Gold.Goldscore.Hbonds>
donor molecule, donor type, donor heavy atom, donor atom, acceptor molecule, acceptor atom, score
      P1  H  4756  4762       L1    17  0.78

> <Gold.Goldscore.Internal.Vdw.Weighted>
-1.4337

> <Gold.Goldscore.Internal.Torsion.Weighted>
-0.5542

> <Gold.Goldscore.External.Vdw.Weighted>
35.3977

> <Gold.Goldscore.Internal.HBond.Weighted>
0.0000

> <Gold.Goldscore.External.HBond.Weighted>
1.5538

> <Gold.Goldscore.Internal.Correction.Weighted>
-0.7838

> <Gold.Rescore>
     Score     S(PLP)   S(hbond)     S(cho)   S(metal)  DE(clash)   DE(tors)     intcor
     33.45     -32.97       1.00       0.00       0.00       0.63       0.95       ----

> <Gold.PLP.Fitness>
33.4482

> <Gold.PLP.PLP>
-32.9733

> <Gold.PLP.part.hbond>
-2.2672

> <Gold.PLP.part.metal>
0.0000

> <Gold.PLP.part.buried>
-7.9881

> <Gold.PLP.part.nonpolar>
-25.2204

> <Gold.PLP.part.repulsive>
2.4084

> <Gold.PLP.ligand.clash>
0.6316

> <Gold.PLP.ligand.torsion>
0.9468

> <Gold.PLP.Chemscore.Hbond>
1.0000

> <Gold.PLP.Chemscore.CHOScore>
0.0000

> <Gold.PLP.Chemscore.Metal>
0.0000

> <Gold.Chemscore.Hbonds>
donor molecule, donor type, donor heavy atom, donor atom, acceptor molecule, acceptor atom, score
      P1  H  4756  4762       L1    17  1.00

> <Gold.PLP.Chemscore.Internal.Correction>
   9.000000E+99

