#       Name:                CT1002167954
#       Creating user name   hitesit
#       Creation time:       Sun Apr 16 23:06:32 2023


#       File generated by GOLD software.
#

@<TRIPOS>MOLECULE
CT1002167954|ligand_prepared|mol2|1|dock3
    29    30     1
SMALL
NO_CHARGES


@<TRIPOS>ATOM
      1 C1         138.1883 145.4674 165.6392 C.3            1 RES1               0.0000
      2 C2         137.2984 146.3843 166.5029 C.ar           1 RES1               0.0000
      3 C3         138.9587 146.3847 164.6941 C.2            1 RES1               0.0000
      4 C4         139.0713 144.6918 166.6106 C.2            1 RES1               0.0000
      5 C5         137.3956 144.4442 164.7929 C.3            1 RES1               0.0000
      6 C6         136.0013 146.6931 166.1040 C.ar           1 RES1               0.0000
      7 C7         137.7586 146.9258 167.7002 C.ar           1 RES1               0.0000
      8 N8         140.2832 146.5862 164.9492 N.am           1 RES1               0.0000
      9 O9         138.4036 146.9540 163.7625 O.2            1 RES1               0.0000
     10 N10        140.4211 144.9257 166.5782 N.am           1 RES1               0.0000
     11 O11        138.6084 143.8926 167.4151 O.2            1 RES1               0.0000
     12 C12        138.2543 143.3304 164.2148 C.3            1 RES1               0.0000
     13 C13        135.1927 147.5112 166.8755 C.ar           1 RES1               0.0000
     14 C14        136.9483 147.7438 168.4701 C.ar           1 RES1               0.0000
     15 C15        141.0637 145.8602 165.8127 C.2            1 RES1               0.0000
     16 C16        135.6654 148.0367 168.0591 C.ar           1 RES1               0.0000
     17 O17        142.2748 146.0494 165.8789 O.2            1 RES1               0.0000
     18 H18        136.6136 143.9980 165.4196 H              1 RES1               0.0000
     19 H19        136.9028 144.9742 163.9685 H              1 RES1               0.0000
     20 H20        135.6129 146.2908 165.1743 H              1 RES1               0.0000
     21 H21        138.7649 146.7099 168.0428 H              1 RES1               0.0000
     22 H22        140.7352 147.3470 164.4520 H              1 RES1               0.0000
     23 H23        141.0006 144.3497 167.1805 H              1 RES1               0.0000
     24 H24        137.6492 142.6407 163.6302 H              1 RES1               0.0000
     25 H25        139.0274 143.7367 163.5659 H              1 RES1               0.0000
     26 H26        138.7399 142.7663 165.0084 H              1 RES1               0.0000
     27 H27        134.1842 147.7397 166.5469 H              1 RES1               0.0000
     28 H28        137.3247 148.1557 169.4007 H              1 RES1               0.0000
     29 H29        135.0315 148.6771 168.6635 H              1 RES1               0.0000
@<TRIPOS>BOND
    1    1    2 1     
    2    1    3 1     
    3    1    4 1     
    4    1    5 1     
    5    2    6 ar    
    6    2    7 ar    
    7    3    8 1     
    8    3    9 2     
    9    4   10 1     
   10    4   11 2     
   11    5   12 1     
   12    5   18 1     
   13    5   19 1     
   14    6   13 ar    
   15    6   20 1     
   16    7   14 ar    
   17    7   21 1     
   18    8   15 1     
   19    8   22 1     
   20   10   15 1     
   21   10   23 1     
   22   12   24 1     
   23   12   25 1     
   24   12   26 1     
   25   13   16 ar    
   26   13   27 1     
   27   14   16 ar    
   28   14   28 1     
   29   15   17 2     
   30   16   29 1     
@<TRIPOS>SUBSTRUCTURE
      1 RES1           1
@<TRIPOS>SET
DONOR_HYDROGENS      STATIC     ATOMS    <user>   **** ""
2 22 23
ATOM$RED        STATIC     ATOMS    COLORGROUP SYSTEM
2 22 23
@<TRIPOS>COMMENT
> <Gold.Version>
2022.3.0

> <Gold.Id.Protein>
unknown|7rmi_cavity_clean|pdb

> <Gold.Protein.RotatedTorsions>
[ 5081 5072 5071 5069 ] final  159.03 input   59.98 | X-H torsion
[ 5041 5025 5024 5021 ] final  133.25 input   60.00 | X-H torsion
[ 5032 5026 5027 5028 ] final  -74.96 input  106.27 | X-H torsion
[ 5036 5031 5030 5027 ] final -153.79 input   60.01 | X-H torsion
[ 4987 4979 4980 4981 ] final -112.94 input  111.67 | X-H torsion
[ 5133 5126 5127 5128 ] final   15.66 input   60.01 | X-H torsion
[ 14333 5029 5028 5027 ] final  -96.85 input    0.00 | X-H torsion
[ 14340 4982 4981 4980 ] final   15.23 input    0.00 | X-H torsion

> <Gold.Protein.ActiveResidues>
 TRP99   VAL100  MET101  CYS103  ALA104  ASP118  ASN119  ILE120  SER122  TYR124 
 LEU126  VAL133  LEU139  HIS142 

> <Gold.Protein.RotatedAtoms>
  134.1061  135.2311  117.0133 H   0  0  0  0  0  0  0  0  0  0  0  0  # atno 4987 bound_to 4979
  138.1272  135.1855  119.9225 H   0  0  0  0  0  0  0  0  0  0  0  0  # atno 5032 bound_to 5026
  133.9606  136.9370  120.8545 H   0  0  0  0  0  0  0  0  0  0  0  0  # atno 5036 bound_to 5031
  155.0085  141.1845  164.7826 H   0  0  0  0  0  0  0  0  0  0  0  0  # atno 5041 bound_to 5025
  155.5888  143.1452  160.7189 H   0  0  0  0  0  0  0  0  0  0  0  0  # atno 5081 bound_to 5072
  160.4835  150.6662  155.6529 H   0  0  0  0  0  0  0  0  0  0  0  0  # atno 5133 bound_to 5126
  159.3685  151.8729  155.4332 H   0  0  0  0  0  0  0  0  0  0  0  0  # atno 5134 bound_to 5126
  157.1082  143.6103  160.3698 LP  0  0  0  0  0  0  0  0  0  0  0  0  # atno 14312 bound_to 5072
  155.9141  143.8241  159.2766 LP  0  0  0  0  0  0  0  0  0  0  0  0  # atno 14313 bound_to 5072
  155.4705  141.4474  166.3212 LP  0  0  0  0  0  0  0  0  0  0  0  0  # atno 14330 bound_to 5025
  156.4490  141.8790  165.0872 LP  0  0  0  0  0  0  0  0  0  0  0  0  # atno 14331 bound_to 5025
  136.6359  135.9838  119.4941 LP  0  0  0  0  0  0  0  0  0  0  0  0  # atno 14332 bound_to 5026
  137.2829  132.9998  123.2330 LP  0  0  0  0  0  0  0  0  0  0  0  0  # atno 14333 bound_to 5029
  135.8041  133.7500  123.7334 LP  0  0  0  0  0  0  0  0  0  0  0  0  # atno 14334 bound_to 5029
  133.9196  135.4190  121.4388 LP  0  0  0  0  0  0  0  0  0  0  0  0  # atno 14335 bound_to 5031
  134.8099  135.7633  120.1139 LP  0  0  0  0  0  0  0  0  0  0  0  0  # atno 14336 bound_to 5031
  135.4477  136.0625  116.2704 LP  0  0  0  0  0  0  0  0  0  0  0  0  # atno 14339 bound_to 4979
  136.8656  132.0243  117.7590 LP  0  0  0  0  0  0  0  0  0  0  0  0  # atno 14340 bound_to 4982
  137.9511  132.9623  118.7294 LP  0  0  0  0  0  0  0  0  0  0  0  0  # atno 14341 bound_to 4982
  160.7273  152.1516  156.3172 LP  0  0  0  0  0  0  0  0  0  0  0  0  # atno 14344 bound_to 5126

> <Gold.Score>
     Fitness  S(hb_ext) S(vdw_ext)  S(hb_int)    S(int)      intcor
     34.23       1.62      24.17       0.00      -0.62      -0.76

> <Gold.Goldscore.Fitness>
34.2347

> <Gold.Goldscore.Internal.Vdw>
-0.7004

> <Gold.Goldscore.Internal.Torsion>
-0.6734

> <Gold.Goldscore.External.Vdw>
24.1708

> <Gold.Goldscore.Internal.HBond>
0.0000

> <Gold.Goldscore.External.HBond>
1.6170

> <Gold.Goldscore.Internal.Correction>
-0.7567

> <Gold.Goldscore.Hbonds>
donor molecule, donor type, donor heavy atom, donor atom, acceptor molecule, acceptor atom, score
      P1  H  4756  4762       L1    17  0.81

> <Gold.Goldscore.Internal.Vdw.Weighted>
-0.7004

> <Gold.Goldscore.Internal.Torsion.Weighted>
-0.6734

> <Gold.Goldscore.External.Vdw.Weighted>
33.2348

> <Gold.Goldscore.Internal.HBond.Weighted>
0.0000

> <Gold.Goldscore.External.HBond.Weighted>
1.6170

> <Gold.Goldscore.Internal.Correction.Weighted>
-0.7567

> <Gold.Rescore>
     Score     S(PLP)   S(hbond)     S(cho)   S(metal)  DE(clash)   DE(tors)     intcor
     31.88     -31.29       1.00       0.00       0.00       0.00       1.21       ----

> <Gold.PLP.Fitness>
31.8757

> <Gold.PLP.PLP>
-31.2865

> <Gold.PLP.part.hbond>
-2.8491

> <Gold.PLP.part.metal>
0.0000

> <Gold.PLP.part.buried>
-8.5318

> <Gold.PLP.part.nonpolar>
-24.2635

> <Gold.PLP.part.repulsive>
3.7853

> <Gold.PLP.ligand.clash>
0.0000

> <Gold.PLP.ligand.torsion>
1.2054

> <Gold.PLP.Chemscore.Hbond>
1.0000

> <Gold.PLP.Chemscore.CHOScore>
0.0000

> <Gold.PLP.Chemscore.Metal>
0.0000

> <Gold.Chemscore.Hbonds>
donor molecule, donor type, donor heavy atom, donor atom, acceptor molecule, acceptor atom, score
      P1  H  4756  4762       L1    17  1.00

> <Gold.PLP.Chemscore.Internal.Correction>
   9.000000E+99

