@<TRIPOS>MOLECULE
50
 59 61 0 0 0
SMALL
GASTEIGER

@<TRIPOS>ATOM
      1  N1       -40.2070  -39.9280   -2.3180 N.am    1  non1        0.0230
      2  C8       -41.4920  -39.8060   -1.7940 C.2     1  non1        0.0770
      3  C9       -42.3920  -41.0380   -1.9600 C.3     1  non1        0.2040
      4  N2       -41.9470  -42.0890   -2.8930 N.am    1  non1        0.0250
      5  C10      -40.7060  -41.9490   -3.4830 C.2     1  non1       -0.0020
      6  C11      -39.8770  -40.9350   -3.1980 C.2     1  non1       -0.0030
      7  O1       -41.8690  -38.8190   -1.1540 O.2     1  non1       -0.2830
      8  C13      -42.8160  -43.1530   -3.0570 C.2     1  non1        0.0710
      9  O3       -44.0030  -43.0520   -2.7030 O.2     1  non1       -0.2890
     10  C21      -42.5520  -41.6080   -0.5780 C.2     1  non1        0.0820
     11  N3       -41.8790  -42.6930   -0.1560 N.2     1  non1       -0.1410
     12  O4       -42.3120  -42.9120    1.1450 O.2     1  non1       -0.3050
     13  C22      -43.2010  -41.9450    1.4840 C.2     1  non1        0.1080
     14  C23      -43.3700  -41.0820    0.4380 C.2     1  non1        0.1270
     15  C24      -43.7920  -42.0020    2.7940 C.2     1  non1       -0.0250
     16  C25      -43.0700  -42.5430    3.8630 C.2     1  non1        0.0390
     17  C26      -43.6160  -42.5340    5.1430 C.2     1  non1        0.0120
     18  C27      -44.8710  -41.9640    5.3610 C.2     1  non1        0.0190
     19  C28      -45.5780  -41.3970    4.3020 C.2     1  non1        0.0120
     20  C29      -45.0420  -41.4220    3.0160 C.2     1  non1        0.0390
     21  C7       -39.1910  -38.9820   -1.8640 C.3     1  non1        0.1330
     22  C1       -37.0940  -40.4270    0.9790 C.2     1  non1        0.0370
     23  C2       -37.5410  -39.6550    2.0480 C.2     1  non1        0.0000
     24  C3       -38.6330  -38.8030    1.8990 C.2     1  non1        0.0370
     25  C4       -39.2120  -38.6380    0.6410 C.2     1  non1        0.0190
     26  C5       -38.7000  -39.3210   -0.4710 C.2     1  non1       -0.0600
     27  C6       -37.6740  -40.2600   -0.2820 C.2     1  non1        0.0190
     28  O2       -36.9350  -39.7670    3.2710 O.2     1  non1       -0.2770
     29  C12      -37.7130  -40.6070    4.1330 C.3     1  non1        0.2030
     30  C14      -42.3270  -44.4440   -3.6930 C.3     1  non1        0.1290
     31  C15      -41.2100  -45.1220   -2.9260 C.2     1  non1       -0.0480
     32  C16      -40.0670  -45.5820   -3.5980 C.2     1  non1        0.0160
     33  C17      -39.0250  -46.1870   -2.8920 C.2     1  non1        0.0300
     34  C18      -39.1230  -46.3360   -1.5110 C.2     1  non1       -0.0230
     35  C19      -40.2590  -45.9020   -0.8310 C.2     1  non1        0.0300
     36  C20      -41.3030  -45.3020   -1.5380 C.2     1  non1        0.0160
     37 Br1       -37.6980  -47.1250   -0.5500 Br      1  non1       -0.0510
     38  CA       -37.0270  -42.6240   -3.9420 C.3    36  ARG36       0.1590
     39  CB       -36.7980  -42.9130   -2.4570 C.3    36  ARG36       0.0340
     40  CG       -38.0380  -43.3920   -1.7210 C.3    36  ARG36       0.0270
     41  CD       -37.7860  -43.4980   -0.2250 C.3    36  ARG36       0.1160
     42  NE       -38.9720  -43.1530    0.5560 N.pl3  36  ARG36      -0.2120
     43  CZ       -39.0250  -43.1740    1.8830 C.cat  36  ARG36       0.6660
     44  NH2      -40.1460  -42.8440    2.5090 N.pl3  36  ARG36      -0.2350
     45  NH1      -37.9560  -43.5230    2.5850 N.pl3  36  ARG36      -0.2350
     46 2HH2      -40.1870  -42.8600    3.5280 H      36  ARG36       0.1740
     47 1HH2      -40.9680  -42.5750    1.9680 H      36  ARG36       0.1740
     48 2HH1      -37.9960  -43.5380    3.6050 H      36  ARG36       0.1740
     49 1HH1      -37.0930  -43.7760    2.1030 H      36  ARG36       0.1740
     50  HE       -39.8130  -42.8790    0.0490 H      36  ARG36       0.1780
     51  CA       -47.9570  -41.7460   -2.2680 C.3   109  LYS109      0.1590
     52  CB       -46.6690  -42.1990   -1.6220 C.3   109  LYS109      0.0320
     53  CG       -46.6730  -42.7630   -0.2620 C.3   109  LYS109      0.0040
     54  CD       -46.4380  -44.2720   -0.3590 C.3   109  LYS109      0.0320
     55  CE       -45.2590  -44.7360    0.4390 C.3   109  LYS109      0.2060
     56  NZ       -44.0840  -44.2970   -0.4670 N.4   109  LYS109     -0.0640
     57  HZ1      -44.3260  -44.7520   -1.3470 H     109  LYS109      0.2750
     58  HZ3      -43.9320  -43.2900   -0.5250 H     109  LYS109      0.2750
     59  HZ2      -43.1540  -44.5100   -0.1080 H     109  LYS109      0.2750
@<TRIPOS>BOND
     1    38    39    1
     2    30     8    1
     3    30    31    1
     4    32    31    2
     5    32    33    1
     6     5     6    2
     7     5     4    1
     8     6     1    1
     9     8     4   am
    10     8     9    2
    11    31    36    1
    12     4     3    1
    13    33    34    2
    14    39    40    1
    15     1    21    1
    16     1     2   am
    17    51    52    1
    18     3     2    1
    19     3    10    1
    20    21    26    1
    21     2     7    2
    22    40    41    1
    23    52    53    1
    24    36    35    2
    25    34    35    1
    26    34    37    1
    27    57    56    1
    28    10    11    2
    29    10    14    1
    30    58    56    1
    31    26    27    1
    32    26    25    2
    33    56    59    1
    34    56    55    1
    35    54    53    1
    36    54    55    1
    37    27    22    2
    38    41    42    1
    39    11    12    1
    40    50    42    1
    41    14    13    2
    42    42    43    1
    43    25    24    1
    44    22    23    1
    45    12    13    1
    46    13    15    1
    47    43    44    2
    48    43    45    1
    49    24    23    2
    50    47    44    1
    51    23    28    1
    52    49    45    1
    53    44    46    1
    54    45    48    1
    55    15    20    2
    56    15    16    1
    57    20    19    1
    58    28    29    1
    59    16    17    2
    60    19    18    2
    61    17    18    1
@<TRIPOS>MOLECULE
90
 59 61 0 0 0
SMALL
GASTEIGER

@<TRIPOS>ATOM
      1  N1       -40.0950  -42.0820    4.1910 N.am    1  non1        0.0230
      2  C8       -40.1470  -43.3220    3.5590 C.2     1  non1        0.0770
      3  C9       -41.5480  -43.7980    3.1520 C.3     1  non1        0.2040
      4  N2       -42.7050  -43.0790    3.7160 N.am    1  non1        0.0250
      5  C10      -42.4590  -41.9640    4.4940 C.2     1  non1       -0.0020
      6  C11      -41.2250  -41.4840    4.7040 C.2     1  non1       -0.0030
      7  O1       -39.1380  -43.9660    3.2540 O.2     1  non1       -0.2830
      8  C13      -43.9490  -43.5770    3.3700 C.2     1  non1        0.0710
      9  O3       -44.0550  -44.7240    2.9030 O.2     1  non1       -0.2890
     10  C21      -41.5770  -43.7250    1.6510 C.2     1  non1        0.0820
     11  N3       -41.8450  -44.7900    0.8740 N.2     1  non1       -0.1410
     12  O4       -41.7550  -44.3260   -0.4310 O.2     1  non1       -0.3050
     13  C22      -41.4710  -43.0000   -0.4110 C.2     1  non1        0.1080
     14  C23      -41.3710  -42.5650    0.8800 C.2     1  non1        0.1270
     15  C24      -41.3110  -42.3260   -1.6720 C.2     1  non1       -0.0250
     16  C25      -41.0220  -40.9580   -1.7010 C.2     1  non1        0.0390
     17  C26      -40.7990  -40.3230   -2.9200 C.2     1  non1        0.0120
     18  C27      -40.8400  -41.0570   -4.1050 C.2     1  non1        0.0190
     19  C28      -41.0970  -42.4270   -4.0750 C.2     1  non1        0.0120
     20  C29      -41.3400  -43.0610   -2.8580 C.2     1  non1        0.0390
     21  C7       -38.8070  -41.3980    4.2490 C.3     1  non1        0.1330
     22  C1       -37.3420  -38.7520    1.9220 C.2     1  non1        0.0370
     23  C2       -38.3430  -38.6720    0.9580 C.2     1  non1        0.0000
     24  C3       -39.5590  -39.3250    1.1440 C.2     1  non1        0.0370
     25  C4       -39.7330  -40.1560    2.2500 C.2     1  non1        0.0190
     26  C5       -38.6910  -40.3380    3.1710 C.2     1  non1       -0.0600
     27  C6       -37.5160  -39.5850    3.0290 C.2     1  non1        0.0190
     28  O2       -38.1530  -37.9060   -0.1620 O.2     1  non1       -0.2770
     29  C12      -38.3930  -36.5250    0.1370 C.3     1  non1        0.2030
     30  C14      -45.1940  -42.7310    3.5820 C.3     1  non1        0.1290
     31  C15      -46.4470  -43.3200    2.9690 C.2     1  non1       -0.0480
     32  C16      -47.0350  -42.7200    1.8450 C.2     1  non1        0.0160
     33  C17      -48.1790  -43.2720    1.2630 C.2     1  non1        0.0300
     34  C18      -48.7400  -44.4250    1.8050 C.2     1  non1       -0.0230
     35  C19      -48.1800  -45.0230    2.9320 C.2     1  non1        0.0300
     36  C20      -47.0400  -44.4680    3.5170 C.2     1  non1        0.0160
     37 Br1       -50.2690  -45.1930    0.9970 Br      1  non1       -0.0510
     38  CA       -37.0270  -42.6240   -3.9420 C.3    36  ARG36       0.1590
     39  CB       -36.7980  -42.9130   -2.4570 C.3    36  ARG36       0.0340
     40  CG       -38.0780  -43.0610   -1.6500 C.3    36  ARG36       0.0270
     41  CD       -37.9250  -44.1110   -0.5610 C.3    36  ARG36       0.1160
     42  NE       -39.1110  -44.9570   -0.4470 N.pl3  36  ARG36      -0.2120
     43  CZ       -39.3400  -46.0280   -1.1980 C.cat  36  ARG36       0.6660
     44  NH2      -40.4450  -46.7390   -1.0240 N.pl3  36  ARG36      -0.2350
     45  NH1      -38.4620  -46.3910   -2.1250 N.pl3  36  ARG36      -0.2350
     46 2HH2      -40.6220  -47.5620   -1.6010 H      36  ARG36       0.1740
     47 1HH2      -41.1200  -46.4600   -0.3110 H      36  ARG36       0.1740
     48 2HH1      -38.6390  -47.2140   -2.7010 H      36  ARG36       0.1740
     49 1HH1      -37.6120  -45.8440   -2.2590 H      36  ARG36       0.1740
     50  HE       -39.8070  -44.7090    0.2550 H      36  ARG36       0.1780
     51  CA       -47.9570  -41.7460   -2.2680 C.3   109  LYS109      0.1590
     52  CB       -46.6690  -42.1990   -1.6220 C.3   109  LYS109      0.0320
     53  CG       -45.6990  -43.0100   -2.3770 C.3   109  LYS109      0.0040
     54  CD       -44.7470  -43.6810   -1.3840 C.3   109  LYS109      0.0320
     55  CE       -45.3940  -44.7800   -0.6000 C.3   109  LYS109      0.2060
     56  NZ       -44.2560  -45.1760    0.3700 N.4   109  LYS109     -0.0640
     57  HZ1      -44.7660  -45.7130    1.0710 H     109  LYS109      0.2750
     58  HZ3      -43.4660  -45.6590   -0.0590 H     109  LYS109      0.2750
     59  HZ2      -43.7030  -44.4000    0.7330 H     109  LYS109      0.2750
@<TRIPOS>BOND
     1    18    19    2
     2    18    17    1
     3    19    20    1
     4    38    39    1
     5    17    16    2
     6    20    15    2
     7    48    45    1
     8    39    40    1
     9    53    52    1
    10    53    54    1
    11    51    52    1
    12    49    45    1
    13    45    43    2
    14    16    15    1
    15    15    13    1
    16    40    41    1
    17    46    44    1
    18    54    55    1
    19    43    44    1
    20    43    42    1
    21    44    47    1
    22    55    56    1
    23    41    42    1
    24    42    50    1
    25    12    13    1
    26    12    11    1
    27    13    14    2
    28    28    29    1
    29    28    23    1
    30    58    56    1
    31    56    59    1
    32    56    57    1
    33    11    10    2
    34    14    10    1
    35    23    24    1
    36    23    22    2
    37    37    34    1
    38    24    25    2
    39    33    34    2
    40    33    32    1
    41    10     3    1
    42    34    35    1
    43    32    31    2
    44    22    27    1
    45    25    26    1
    46     9     8    2
    47    35    36    2
    48    31    36    1
    49    31    30    1
    50    27    26    2
    51     3     2    1
    52     3     4    1
    53    26    21    1
    54     7     2    2
    55     8    30    1
    56     8     4   am
    57     2     1   am
    58     4     5    1
    59     1    21    1
    60     1     6    1
    61     5     6    2
@<TRIPOS>MOLECULE
65
 59 61 0 0 0
SMALL
GASTEIGER

@<TRIPOS>ATOM
      1  N1       -37.4350  -40.2750    1.3210 N.am    1  non1        0.0230
      2  C8       -38.6300  -39.6000    1.5630 C.2     1  non1        0.0770
      3  C9       -39.6580  -39.6470    0.4250 C.3     1  non1        0.2040
      4  N2       -39.1960  -40.1180   -0.8940 N.am    1  non1        0.0250
      5  C10      -37.8990  -40.5800   -1.0000 C.2     1  non1       -0.0020
      6  C11      -37.0720  -40.6690    0.0510 C.2     1  non1       -0.0030
      7  O1       -38.8990  -39.0750    2.6480 O.2     1  non1       -0.2830
      8  C13      -40.1400  -40.0890   -1.9060 C.2     1  non1        0.0710
      9  O3       -41.1730  -39.4110   -1.7770 O.2     1  non1       -0.2890
     10  C21      -40.7710  -40.5250    0.9250 C.2     1  non1        0.0820
     11  N3       -41.0500  -41.7260    0.3880 N.2     1  non1       -0.1410
     12  O4       -42.1410  -42.2040    1.1000 O.2     1  non1       -0.3050
     13  C22      -42.4710  -41.3040    2.0600 C.2     1  non1        0.1080
     14  C23      -41.6220  -40.2360    2.0080 C.2     1  non1        0.1270
     15  C24      -43.6000  -41.6010    2.9010 C.2     1  non1       -0.0250
     16  C25      -43.6250  -42.7840    3.6460 C.2     1  non1        0.0390
     17  C26      -44.6850  -43.0360    4.5130 C.2     1  non1        0.0120
     18  C27      -45.7070  -42.0970    4.6540 C.2     1  non1        0.0190
     19  C28      -45.6670  -40.9020    3.9350 C.2     1  non1        0.0120
     20  C29      -44.6170  -40.6570    3.0530 C.2     1  non1        0.0390
     21  C7       -36.5930  -40.6070    2.4660 C.3     1  non1        0.1330
     22  C1       -37.7580  -44.0580    3.6050 C.2     1  non1        0.0370
     23  C2       -36.8350  -44.8710    2.9520 C.2     1  non1        0.0000
     24  C3       -35.7390  -44.3140    2.2990 C.2     1  non1        0.0370
     25  C4       -35.6250  -42.9280    2.2010 C.2     1  non1        0.0190
     26  C5       -36.6080  -42.0950    2.7540 C.2     1  non1       -0.0600
     27  C6       -37.6450  -42.6690    3.5060 C.2     1  non1        0.0190
     28  O2       -36.9770  -46.2330    2.9930 O.2     1  non1       -0.2770
     29  C12      -35.6950  -46.8600    3.1230 C.3     1  non1        0.2030
     30  C14      -39.9040  -40.8680   -3.1890 C.3     1  non1        0.1290
     31  C15      -40.8460  -42.0390   -3.3780 C.2     1  non1       -0.0480
     32  C16      -40.6480  -43.2300   -2.6630 C.2     1  non1        0.0160
     33  C17      -41.5270  -44.3040   -2.8180 C.2     1  non1        0.0300
     34  C18      -42.6060  -44.1920   -3.6900 C.2     1  non1       -0.0230
     35  C19      -42.8060  -43.0240   -4.4230 C.2     1  non1        0.0300
     36  C20      -41.9240  -41.9520   -4.2720 C.2     1  non1        0.0160
     37 Br1       -43.8160  -45.6340   -3.8750 Br      1  non1       -0.0510
     38  CA       -37.0270  -42.6240   -3.9420 C.3    36  ARG36       0.1590
     39  CB       -36.7980  -42.9130   -2.4570 C.3    36  ARG36       0.0340
     40  CG       -37.5840  -44.1020   -1.9290 C.3    36  ARG36       0.0270
     41  CD       -37.6600  -44.0830   -0.4100 C.3    36  ARG36       0.1160
     42  NE       -39.0340  -43.9430    0.0680 N.pl3  36  ARG36      -0.2120
     43  CZ       -39.6210  -44.7850    0.9100 C.cat  36  ARG36       0.6660
     44  NH2      -40.8740  -44.5800    1.2910 N.pl3  36  ARG36      -0.2350
     45  NH1      -38.9550  -45.8350    1.3740 N.pl3  36  ARG36      -0.2350
     46 2HH2      -41.3250  -45.2260    1.9380 H      36  ARG36       0.1740
     47 1HH2      -41.3860  -43.7720    0.9350 H      36  ARG36       0.1740
     48 2HH1      -39.4060  -46.4810    2.0210 H      36  ARG36       0.1740
     49 1HH1      -37.9910  -45.9930    1.0800 H      36  ARG36       0.1740
     50  HE       -39.5770  -43.1480   -0.2680 H      36  ARG36       0.1780
     51  CA       -47.9570  -41.7460   -2.2680 C.3   109  LYS109      0.1590
     52  CB       -46.6690  -42.1990   -1.6220 C.3   109  LYS109      0.0320
     53  CG       -46.3590  -41.8260   -0.2320 C.3   109  LYS109      0.0040
     54  CD       -45.0010  -41.1210   -0.2070 C.3   109  LYS109      0.0320
     55  CE       -44.3860  -40.9830   -1.5650 C.3   109  LYS109      0.2060
     56  NZ       -42.8940  -41.2500   -1.2550 N.4   109  LYS109     -0.0640
     57  HZ1      -42.4640  -41.0700   -2.1620 H     109  LYS109      0.2750
     58  HZ3      -42.5080  -40.7150   -0.4770 H     109  LYS109      0.2750
     59  HZ2      -42.6890  -42.1630   -0.8500 H     109  LYS109      0.2750
@<TRIPOS>BOND
     1    35    36    1
     2    35    34    2
     3    36    31    2
     4    38    39    1
     5    37    34    1
     6    34    33    1
     7    31    30    1
     8    31    32    1
     9    30     8    1
    10    33    32    2
    11    39    40    1
    12    51    52    1
    13    57    56    1
    14    40    41    1
    15     8     9    2
    16     8     4   am
    17    52    53    1
    18    55    56    1
    19    55    54    1
    20    56    59    1
    21    56    58    1
    22     5     4    1
    23     5     6    2
    24     4     3    1
    25    41    42    1
    26    50    42    1
    27    53    54    1
    28     6     1    1
    29    42    43    1
    30    11    10    2
    31    11    12    1
    32     3    10    1
    33     3     2    1
    34    43    44    2
    35    43    45    1
    36    10    14    1
    37    47    44    1
    38    49    45    1
    39    12    13    1
    40    44    46    1
    41     1     2   am
    42     1    21    1
    43    45    48    1
    44     2     7    2
    45    14    13    2
    46    13    15    1
    47    25    24    2
    48    25    26    1
    49    24    23    1
    50    21    26    1
    51    26    27    2
    52    15    20    2
    53    15    16    1
    54    23    28    1
    55    23    22    2
    56    28    29    1
    57    20    19    1
    58    27    22    1
    59    16    17    2
    60    19    18    2
    61    17    18    1
@<TRIPOS>MOLECULE
80
 59 61 0 0 0
SMALL
GASTEIGER

@<TRIPOS>ATOM
      1  N1       -39.7410  -46.8110   -1.0950 N.am    1  non1        0.0230
      2  C8       -40.5630  -46.6690    0.0210 C.2     1  non1        0.0770
      3  C9       -40.1350  -45.5900    1.0250 C.3     1  non1        0.2040
      4  N2       -38.7780  -45.0300    0.8880 N.am    1  non1        0.0250
      5  C10      -38.0140  -45.4360   -0.1890 C.2     1  non1       -0.0020
      6  C11      -38.4760  -46.2650   -1.1350 C.2     1  non1       -0.0030
      7  O1       -41.6190  -47.2940    0.1640 O.2     1  non1       -0.2830
      8  C13      -38.4120  -44.1030    1.8490 C.2     1  non1        0.0710
      9  O3       -39.0530  -44.0160    2.9100 O.2     1  non1       -0.2890
     10  C21      -41.1590  -44.4970    0.9010 C.2     1  non1        0.0820
     11  N3       -41.5750  -44.0190   -0.2850 N.2     1  non1       -0.1410
     12  O4       -42.4910  -43.0210    0.0190 O.2     1  non1       -0.3050
     13  C22      -42.6280  -42.9440    1.3670 C.2     1  non1        0.1080
     14  C23      -41.8270  -43.8710    1.9700 C.2     1  non1        0.1270
     15  C24      -43.5220  -41.9490    1.8970 C.2     1  non1       -0.0250
     16  C25      -44.8970  -42.0490    1.6640 C.2     1  non1        0.0390
     17  C26      -45.7660  -41.1240    2.2360 C.2     1  non1        0.0120
     18  C27      -45.2660  -40.1150    3.0590 C.2     1  non1        0.0190
     19  C28      -43.8980  -40.0330    3.3180 C.2     1  non1        0.0120
     20  C29      -43.0250  -40.9450    2.7310 C.2     1  non1        0.0390
     21  C7       -40.2790  -47.5140   -2.2550 C.3     1  non1        0.1330
     22  C1       -41.1680  -45.1680   -5.1310 C.2     1  non1        0.0370
     23  C2       -42.5580  -45.1700   -5.0460 C.2     1  non1        0.0000
     24  C3       -43.2000  -45.7710   -3.9660 C.2     1  non1        0.0370
     25  C4       -42.4530  -46.4740   -3.0230 C.2     1  non1        0.0190
     26  C5       -41.0610  -46.5800   -3.1570 C.2     1  non1       -0.0600
     27  C6       -40.4190  -45.8740   -4.1860 C.2     1  non1        0.0190
     28  O2       -43.3010  -44.5330   -6.0040 O.2     1  non1       -0.2770
     29  C12      -44.6790  -44.4900   -5.6140 C.3     1  non1        0.2030
     30  C14      -37.2080  -43.2040    1.6190 C.3     1  non1        0.1290
     31  C15      -37.5630  -41.7460    1.4070 C.2     1  non1       -0.0480
     32  C16      -38.9050  -41.3370    1.4000 C.2     1  non1        0.0160
     33  C17      -39.2350  -39.9920    1.2280 C.2     1  non1        0.0300
     34  C18      -38.2240  -39.0490    1.0600 C.2     1  non1       -0.0230
     35  C19      -36.8870  -39.4400    1.0450 C.2     1  non1        0.0300
     36  C20      -36.5570  -40.7870    1.2120 C.2     1  non1        0.0160
     37 Br1       -38.6690  -37.2210    0.8610 Br      1  non1       -0.0510
     38  CA       -37.0270  -42.6240   -3.9420 C.3    36  ARG36       0.1590
     39  CB       -36.7980  -42.9130   -2.4570 C.3    36  ARG36       0.0340
     40  CG       -38.0300  -42.7140   -1.5900 C.3    36  ARG36       0.0270
     41  CD       -39.0510  -41.8220   -2.2780 C.3    36  ARG36       0.1160
     42  NE       -40.4160  -42.3130   -2.1000 N.pl3  36  ARG36      -0.2120
     43  CZ       -41.2720  -42.5180   -3.0940 C.cat  36  ARG36       0.6660
     44  NH2      -42.4930  -42.9670   -2.8390 N.pl3  36  ARG36      -0.2350
     45  NH1      -40.9070  -42.2760   -4.3460 N.pl3  36  ARG36      -0.2350
     46 2HH2      -43.1510  -43.1250   -3.6020 H      36  ARG36       0.1740
     47 1HH2      -42.7730  -43.1540   -1.8760 H      36  ARG36       0.1740
     48 2HH1      -41.5650  -42.4340   -5.1100 H      36  ARG36       0.1740
     49 1HH1      -39.9680  -41.9310   -4.5430 H      36  ARG36       0.1740
     50  HE       -40.7310  -42.5110   -1.1510 H      36  ARG36       0.1780
     51  CA       -47.9570  -41.7460   -2.2680 C.3   109  LYS109      0.1590
     52  CB       -46.6690  -42.1990   -1.6220 C.3   109  LYS109      0.0320
     53  CG       -45.9030  -43.3220   -2.1890 C.3   109  LYS109      0.0040
     54  CD       -44.9540  -43.8560   -1.1140 C.3   109  LYS109      0.0320
     55  CE       -44.8780  -45.3510   -1.0890 C.3   109  LYS109      0.2060
     56  NZ       -43.5830  -45.5790   -0.2720 N.4   109  LYS109     -0.0640
     57  HZ1      -43.5600  -44.7400    0.3070 H     109  LYS109      0.2750
     58  HZ3      -43.5390  -46.4610    0.2370 H     109  LYS109      0.2750
     59  HZ2      -42.7430  -45.7490   -0.8260 H     109  LYS109      0.2750
@<TRIPOS>BOND
     1    28    29    1
     2    28    23    1
     3    22    23    2
     4    22    27    1
     5    48    45    1
     6    23    24    1
     7    49    45    1
     8    45    43    2
     9    27    26    2
    10    24    25    2
    11    38    39    1
    12    46    44    1
    13    26    25    1
    14    26    21    1
    15    43    44    1
    16    43    42    1
    17    44    47    1
    18    39    40    1
    19    41    42    1
    20    41    40    1
    21    51    52    1
    22    21     1    1
    23    53    52    1
    24    53    54    1
    25    42    50    1
    26     6     1    1
    27     6     5    2
    28    54    55    1
    29     1     2   am
    30    55    56    1
    31    59    56    1
    32    11    12    1
    33    11    10    2
    34    56    58    1
    35    56    57    1
    36     5     4    1
    37    12    13    1
    38     2     7    2
    39     2     3    1
    40    37    34    1
    41     4     3    1
    42     4     8   am
    43    10     3    1
    44    10    14    1
    45    35    34    2
    46    35    36    1
    47    34    33    1
    48    36    31    2
    49    33    32    2
    50    13    15    1
    51    13    14    2
    52    32    31    1
    53    31    30    1
    54    30     8    1
    55    16    15    2
    56    16    17    1
    57     8     9    2
    58    15    20    1
    59    17    18    2
    60    20    19    2
    61    18    19    1
@<TRIPOS>MOLECULE
60
 59 61 0 0 0
SMALL
GASTEIGER

@<TRIPOS>ATOM
      1  N1       -41.4160  -40.7380    1.8490 N.am    1  non1        0.0230
      2  C8       -41.1040  -42.0880    1.7080 C.2     1  non1        0.0770
      3  C9       -42.2720  -43.0610    1.9230 C.3     1  non1        0.2040
      4  N2       -43.5010  -42.5290    2.5390 N.am    1  non1        0.0250
      5  C10      -43.5640  -41.1730    2.7930 C.2     1  non1       -0.0020
      6  C11      -42.5840  -40.3240    2.4520 C.2     1  non1       -0.0030
      7  O1       -39.9950  -42.4900    1.3440 O.2     1  non1       -0.2830
      8  C13      -44.5060  -43.4520    2.7680 C.2     1  non1        0.0710
      9  O3       -44.2510  -44.6680    2.7600 O.2     1  non1       -0.2890
     10  C21      -42.5790  -43.6260    0.5640 C.2     1  non1        0.0820
     11  N3       -42.3540  -44.9130    0.2430 N.2     1  non1       -0.1410
     12  O4       -42.7410  -45.0340   -1.0850 O.2     1  non1       -0.3050
     13  C22      -43.2140  -43.8390   -1.5180 C.2     1  non1        0.1080
     14  C23      -43.1550  -42.9210   -0.5080 C.2     1  non1        0.1270
     15  C24      -43.6490  -43.7430   -2.8860 C.2     1  non1       -0.0250
     16  C25      -42.9390  -42.9460   -3.7900 C.2     1  non1        0.0390
     17  C26      -43.3190  -42.9100   -5.1290 C.2     1  non1        0.0120
     18  C27      -44.3910  -43.6860   -5.5700 C.2     1  non1        0.0190
     19  C28      -45.0800  -44.5050   -4.6760 C.2     1  non1        0.0120
     20  C29      -44.7130  -44.5280   -3.3320 C.2     1  non1        0.0390
     21  C7       -40.4890  -39.7600    1.2880 C.3     1  non1        0.1330
     22  C1       -39.4420  -39.7850   -2.3820 C.2     1  non1        0.0370
     23  C2       -40.6580  -40.0710   -2.9960 C.2     1  non1        0.0000
     24  C3       -41.8400  -40.0760   -2.2590 C.2     1  non1        0.0370
     25  C4       -41.7900  -39.9070   -0.8760 C.2     1  non1        0.0190
     26  C5       -40.5600  -39.7330   -0.2260 C.2     1  non1       -0.0600
     27  C6       -39.3920  -39.6160   -0.9960 C.2     1  non1        0.0190
     28  O2       -40.7040  -40.3000   -4.3460 O.2     1  non1       -0.2770
     29  C12      -39.9260  -41.4550   -4.6790 C.3     1  non1        0.2030
     30  C14      -45.9220  -42.9800    3.0540 C.3     1  non1        0.1290
     31  C15      -46.1290  -42.4830    4.4700 C.2     1  non1       -0.0480
     32  C16      -46.2230  -43.3930    5.5340 C.2     1  non1        0.0160
     33  C17      -46.3910  -42.9380    6.8430 C.2     1  non1        0.0300
     34  C18      -46.4690  -41.5700    7.0940 C.2     1  non1       -0.0230
     35  C19      -46.3980  -40.6540    6.0470 C.2     1  non1        0.0300
     36  C20      -46.2350  -41.1090    4.7370 C.2     1  non1        0.0160
     37 Br1       -46.6640  -40.9520    8.8710 Br      1  non1       -0.0510
     38  CA       -37.0270  -42.6240   -3.9420 C.3    36  ARG36       0.1590
     39  CB       -36.7980  -42.9130   -2.4570 C.3    36  ARG36       0.0340
     40  CG       -38.0770  -43.0270   -1.6440 C.3    36  ARG36       0.0270
     41  CD       -39.2300  -43.5340   -2.4950 C.3    36  ARG36       0.1160
     42  NE       -39.9760  -44.5990   -1.8280 N.pl3  36  ARG36      -0.2120
     43  CZ       -39.7680  -45.8950   -2.0280 C.cat  36  ARG36       0.6660
     44  NH2      -40.4940  -46.7930   -1.3770 N.pl3  36  ARG36      -0.2350
     45  NH1      -38.8320  -46.2960   -2.8790 N.pl3  36  ARG36      -0.2350
     46 2HH2      -40.3350  -47.7890   -1.5310 H      36  ARG36       0.1740
     47 1HH2      -41.2140  -46.4850   -0.7230 H      36  ARG36       0.1740
     48 2HH1      -38.6730  -47.2910   -3.0320 H      36  ARG36       0.1740
     49 1HH1      -38.2730  -45.6040   -3.3790 H      36  ARG36       0.1740
     50  HE       -40.7030  -44.3290   -1.1670 H      36  ARG36       0.1780
     51  CA       -47.9570  -41.7460   -2.2680 C.3   109  LYS109      0.1590
     52  CB       -46.6690  -42.1990   -1.6220 C.3   109  LYS109      0.0320
     53  CG       -46.6940  -43.0170   -0.3980 C.3   109  LYS109      0.0040
     54  CD       -46.5990  -44.4920   -0.7940 C.3   109  LYS109      0.0320
     55  CE       -46.4030  -45.4030    0.3770 C.3   109  LYS109      0.2060
     56  NZ       -44.8640  -45.5690    0.3820 N.4   109  LYS109     -0.0640
     57  HZ1      -44.7000  -45.9580   -0.5470 H     109  LYS109      0.2750
     58  HZ3      -44.3360  -44.7240    0.6000 H     109  LYS109      0.2750
     59  HZ2      -44.4870  -46.1160    1.1560 H     109  LYS109      0.2750
@<TRIPOS>BOND
     1    18    17    2
     2    18    19    1
     3    17    16    1
     4    29    28    1
     5    19    20    2
     6    28    23    1
     7    38    39    1
     8    16    15    2
     9    49    45    1
    10    20    15    1
    11    48    45    1
    12    23    22    2
    13    23    24    1
    14    15    13    1
    15    45    43    2
    16    41    42    1
    17    41    40    1
    18    39    40    1
    19    22    27    1
    20    51    52    1
    21    24    25    2
    22    43    42    1
    23    43    44    1
    24    42    50    1
    25    52    53    1
    26    46    44    1
    27    13    12    1
    28    13    14    2
    29    44    47    1
    30    12    11    1
    31    27    26    2
    32    25    26    1
    33    54    53    1
    34    54    55    1
    35    57    56    1
    36    14    10    1
    37    26    21    1
    38    11    10    2
    39    55    56    1
    40    56    58    1
    41    56    59    1
    42    10     3    1
    43    21     1    1
    44     7     2    2
    45     2     1   am
    46     2     3    1
    47     1     6    1
    48     3     4    1
    49     6     5    2
    50     4     8   am
    51     4     5    1
    52     9     8    2
    53     8    30    1
    54    30    31    1
    55    31    36    2
    56    31    32    1
    57    36    35    1
    58    32    33    2
    59    35    34    2
    60    33    34    1
    61    34    37    1
@<TRIPOS>MOLECULE
74
 59 61 0 0 0
SMALL
GASTEIGER

@<TRIPOS>ATOM
      1  N1       -40.1930  -39.2290   -1.2260 N.am    1  non1        0.0230
      2  C8       -41.1160  -39.8360   -0.3770 C.2     1  non1        0.0770
      3  C9       -41.8910  -41.0160   -0.9790 C.3     1  non1        0.2040
      4  N2       -41.8230  -41.2030   -2.4400 N.am    1  non1        0.0250
      5  C10      -40.9910  -40.3710   -3.1630 C.2     1  non1       -0.0020
      6  C11      -40.2080  -39.4490   -2.5860 C.2     1  non1       -0.0030
      7  O1       -41.2480  -39.5230    0.8100 O.2     1  non1       -0.2830
      8  C13      -42.5840  -42.2420   -2.9480 C.2     1  non1        0.0710
      9  O3       -43.4930  -42.7440   -2.2650 O.2     1  non1       -0.2890
     10  C21      -41.3710  -42.2390   -0.2770 C.2     1  non1        0.0820
     11  N3       -42.0160  -43.4190   -0.2970 N.2     1  non1       -0.1410
     12  O4       -41.2400  -44.2760    0.4730 O.2     1  non1       -0.3050
     13  C22      -40.1410  -43.6080    0.9060 C.2     1  non1        0.1080
     14  C23      -40.1640  -42.3240    0.4410 C.2     1  non1        0.1270
     15  C24      -39.2110  -44.3150    1.7450 C.2     1  non1       -0.0250
     16  C25      -38.3330  -45.2470    1.1840 C.2     1  non1        0.0390
     17  C26      -37.3860  -45.8780    1.9870 C.2     1  non1        0.0120
     18  C27      -37.3010  -45.5610    3.3430 C.2     1  non1        0.0190
     19  C28      -38.1550  -44.6090    3.8970 C.2     1  non1        0.0120
     20  C29      -39.1150  -43.9900    3.1000 C.2     1  non1        0.0390
     21  C7       -39.1640  -38.3860   -0.6250 C.3     1  non1        0.1330
     22  C1       -37.3630  -39.6400    2.4980 C.2     1  non1        0.0370
     23  C2       -36.8850  -40.8670    2.0460 C.2     1  non1        0.0000
     24  C3       -36.9810  -41.2120    0.7000 C.2     1  non1        0.0370
     25  C4       -37.6620  -40.3720   -0.1810 C.2     1  non1        0.0190
     26  C5       -38.2500  -39.1860    0.2820 C.2     1  non1       -0.0600
     27  C6       -38.0460  -38.7990    1.6160 C.2     1  non1        0.0190
     28  O2       -36.2700  -41.7230    2.9190 O.2     1  non1       -0.2770
     29  C12      -35.6280  -42.7840    2.2030 C.3     1  non1        0.2030
     30  C14      -42.3250  -42.7590   -4.3540 C.3     1  non1        0.1290
     31  C15      -43.1990  -43.9310   -4.7480 C.2     1  non1       -0.0480
     32  C16      -42.6210  -45.1590   -5.1030 C.2     1  non1        0.0160
     33  C17      -43.4240  -46.2480   -5.4460 C.2     1  non1        0.0300
     34  C18      -44.8100  -46.1140   -5.4360 C.2     1  non1       -0.0230
     35  C19      -45.4010  -44.8960   -5.1050 C.2     1  non1        0.0300
     36  C20      -44.5970  -43.8050   -4.7680 C.2     1  non1        0.0160
     37 Br1       -45.8990  -47.5990   -5.8680 Br      1  non1       -0.0510
     38  CA       -37.0270  -42.6240   -3.9420 C.3    36  ARG36       0.1590
     39  CB       -36.7980  -42.9130   -2.4570 C.3    36  ARG36       0.0340
     40  CG       -37.8500  -43.8150   -1.8320 C.3    36  ARG36       0.0270
     41  CD       -38.9390  -44.1690   -2.8320 C.3    36  ARG36       0.1160
     42  NE       -40.1720  -44.5900   -2.1730 N.pl3  36  ARG36      -0.2120
     43  CZ       -40.7630  -45.7620   -2.3730 C.cat  36  ARG36       0.6660
     44  NH2      -41.8830  -46.0610   -1.7290 N.pl3  36  ARG36      -0.2350
     45  NH1      -40.2350  -46.6390   -3.2160 N.pl3  36  ARG36      -0.2350
     46 2HH2      -42.3380  -46.9610   -1.8820 H      36  ARG36       0.1740
     47 1HH2      -42.2900  -45.3870   -1.0790 H      36  ARG36       0.1740
     48 2HH1      -40.6890  -47.5390   -3.3690 H      36  ARG36       0.1740
     49 1HH1      -39.3730  -46.4090   -3.7120 H      36  ARG36       0.1740
     50  HE       -40.6070  -43.9420   -1.5170 H      36  ARG36       0.1780
     51  CA       -47.9570  -41.7460   -2.2680 C.3   109  LYS109      0.1590
     52  CB       -46.6690  -42.1990   -1.6220 C.3   109  LYS109      0.0320
     53  CG       -46.6820  -42.8330   -0.2930 C.3   109  LYS109      0.0040
     54  CD       -46.2170  -41.8050    0.7420 C.3   109  LYS109      0.0320
     55  CE       -44.7280  -41.7390    0.8760 C.3   109  LYS109      0.2060
     56  NZ       -44.3300  -43.2090    0.6030 N.4   109  LYS109     -0.0640
     57  HZ1      -45.0740  -43.7130    1.0860 H     109  LYS109      0.2750
     58  HZ3      -44.2060  -43.4520   -0.3800 H     109  LYS109      0.2750
     59  HZ2      -43.3810  -43.4630    0.8810 H     109  LYS109      0.2750
@<TRIPOS>BOND
     1    37    34    1
     2    33    34    2
     3    33    32    1
     4    34    35    1
     5    35    36    2
     6    32    31    2
     7    36    31    1
     8    31    30    1
     9    30     8    1
    10    38    39    1
    11    49    45    1
    12    48    45    1
    13    45    43    2
    14     5     6    2
    15     5     4    1
    16     8     4   am
    17     8     9    2
    18    41    42    1
    19    41    40    1
    20     6     1    1
    21    39    40    1
    22     4     3    1
    23    43    42    1
    24    43    44    1
    25    51    52    1
    26    42    50    1
    27    46    44    1
    28    44    47    1
    29    52    53    1
    30     1    21    1
    31     1     2   am
    32     3     2    1
    33     3    10    1
    34    21    26    1
    35    58    56    1
    36     2     7    2
    37    11    10    2
    38    11    12    1
    39    53    54    1
    40    10    14    1
    41    25    26    2
    42    25    24    1
    43    26    27    1
    44    14    13    2
    45    12    13    1
    46    56    55    1
    47    56    59    1
    48    56    57    1
    49    24    23    2
    50    54    55    1
    51    13    15    1
    52    16    15    2
    53    16    17    1
    54    27    22    2
    55    15    20    1
    56    17    18    2
    57    23    22    1
    58    23    28    1
    59    29    28    1
    60    20    19    2
    61    18    19    1
@<TRIPOS>MOLECULE
84
 59 61 0 0 0
SMALL
GASTEIGER

@<TRIPOS>ATOM
      1  N1       -40.3330  -40.0400   -2.5010 N.am    1  non1        0.0230
      2  C8       -41.6570  -39.8920   -2.0940 C.2     1  non1        0.0770
      3  C9       -42.5430  -41.1340   -2.2640 C.3     1  non1        0.2040
      4  N2       -42.0240  -42.2350   -3.0940 N.am    1  non1        0.0250
      5  C10      -40.7370  -42.1260   -3.5860 C.2     1  non1       -0.0020
      6  C11      -39.9330  -41.0950   -3.2910 C.2     1  non1       -0.0030
      7  O1       -42.0840  -38.8710   -1.5460 O.2     1  non1       -0.2830
      8  C13      -42.8780  -43.3100   -3.2690 C.2     1  non1        0.0710
      9  O3       -44.0900  -43.1910   -3.0220 O.2     1  non1       -0.2890
     10  C21      -42.8180  -41.6240   -0.8700 C.2     1  non1        0.0820
     11  N3       -42.2060  -42.6990   -0.3410 N.2     1  non1       -0.1410
     12  O4       -42.7390  -42.8370    0.9330 O.2     1  non1       -0.3050
     13  C22      -43.6260  -41.8350    1.1520 C.2     1  non1        0.1080
     14  C23      -43.6970  -41.0270    0.0530 C.2     1  non1        0.1270
     15  C24      -44.3140  -41.8090    2.4160 C.2     1  non1       -0.0250
     16  C25      -45.2720  -40.8220    2.6700 C.2     1  non1        0.0390
     17  C26      -45.9870  -40.8410    3.8640 C.2     1  non1        0.0120
     18  C27      -45.7620  -41.8560    4.7940 C.2     1  non1        0.0190
     19  C28      -44.8290  -42.8580    4.5290 C.2     1  non1        0.0120
     20  C29      -44.0990  -42.8300    3.3430 C.2     1  non1        0.0390
     21  C7       -39.3570  -39.0670   -2.0190 C.3     1  non1        0.1330
     22  C1       -37.7590  -40.9430    0.8950 C.2     1  non1        0.0370
     23  C2       -37.6350  -39.9160    1.8270 C.2     1  non1        0.0000
     24  C3       -38.2230  -38.6750    1.5950 C.2     1  non1        0.0370
     25  C4       -38.8420  -38.4220    0.3720 C.2     1  non1        0.0190
     26  C5       -38.8740  -39.4100   -0.6230 C.2     1  non1       -0.0600
     27  C6       -38.3780  -40.6900   -0.3310 C.2     1  non1        0.0190
     28  O2       -36.9730  -40.1400    3.0050 O.2     1  non1       -0.2770
     29  C12      -37.8420  -40.7810    3.9470 C.3     1  non1        0.2030
     30  C14      -42.3400  -44.6340   -3.7870 C.3     1  non1        0.1290
     31  C15      -43.3920  -45.5160   -4.4270 C.2     1  non1       -0.0480
     32  C16      -44.1170  -45.0610   -5.5390 C.2     1  non1        0.0160
     33  C17      -45.0730  -45.8790   -6.1450 C.2     1  non1        0.0300
     34  C18      -45.3090  -47.1560   -5.6410 C.2     1  non1       -0.0230
     35  C19      -44.6120  -47.6150   -4.5250 C.2     1  non1        0.0300
     36  C20      -43.6600  -46.7950   -3.9160 C.2     1  non1        0.0160
     37 Br1       -46.5790  -48.2770   -6.4820 Br      1  non1       -0.0510
     38  CA       -37.0270  -42.6240   -3.9420 C.3    36  ARG36       0.1590
     39  CB       -36.7980  -42.9130   -2.4570 C.3    36  ARG36       0.0340
     40  CG       -37.3510  -44.2510   -1.9940 C.3    36  ARG36       0.0270
     41  CD       -38.8510  -44.3400   -2.2300 C.3    36  ARG36       0.1160
     42  NE       -39.1670  -44.9280   -3.5290 N.pl3  36  ARG36      -0.2120
     43  CZ       -39.0140  -46.2140   -3.8230 C.cat  36  ARG36       0.6660
     44  NH2      -39.3280  -46.6610   -5.0310 N.pl3  36  ARG36      -0.2350
     45  NH1      -38.5490  -47.0550   -2.9100 N.pl3  36  ARG36      -0.2350
     46 2HH2      -39.2110  -47.6490   -5.2580 H      36  ARG36       0.1740
     47 1HH2      -39.6860  -46.0140   -5.7340 H      36  ARG36       0.1740
     48 2HH1      -38.4320  -48.0430   -3.1360 H      36  ARG36       0.1740
     49 1HH1      -38.3080  -46.7110   -1.9800 H      36  ARG36       0.1740
     50  HE       -39.5270  -44.3120   -4.2560 H      36  ARG36       0.1780
     51  CA       -47.9570  -41.7460   -2.2680 C.3   109  LYS109      0.1590
     52  CB       -46.6690  -42.1990   -1.6220 C.3   109  LYS109      0.0320
     53  CG       -46.6880  -43.1870   -0.5300 C.3   109  LYS109      0.0040
     54  CD       -46.3710  -44.5660   -1.1150 C.3   109  LYS109      0.0320
     55  CE       -45.3180  -45.3020   -0.3460 C.3   109  LYS109      0.2060
     56  NZ       -44.0530  -44.4830   -0.6980 N.4   109  LYS109     -0.0640
     57  HZ1      -43.8550  -44.8130   -1.6420 H     109  LYS109      0.2750
     58  HZ3      -44.1480  -43.4720   -0.6020 H     109  LYS109      0.2750
     59  HZ2      -43.2810  -44.5660   -0.0360 H     109  LYS109      0.2750
@<TRIPOS>BOND
     1    37    34    1
     2    33    34    2
     3    33    32    1
     4    47    44    1
     5    34    35    1
     6    32    31    2
     7    46    44    1
     8    44    43    2
     9    35    36    2
    10    31    36    1
    11    31    30    1
    12    50    42    1
    13    38    39    1
    14    43    42    1
    15    43    45    1
    16    30     8    1
    17     5     6    2
    18     5     4    1
    19    42    41    1
    20     6     1    1
    21     8     4   am
    22     8     9    2
    23    48    45    1
    24     4     3    1
    25    45    49    1
    26     1     2   am
    27     1    21    1
    28    39    40    1
    29    51    52    1
    30     3     2    1
    31     3    10    1
    32    41    40    1
    33     2     7    2
    34    21    26    1
    35    57    56    1
    36    52    53    1
    37    54    53    1
    38    54    55    1
    39    10    11    2
    40    10    14    1
    41    56    58    1
    42    56    55    1
    43    56    59    1
    44    26    27    1
    45    26    25    2
    46    11    12    1
    47    27    22    2
    48    14    13    2
    49    25    24    1
    50    22    23    1
    51    12    13    1
    52    13    15    1
    53    24    23    2
    54    23    28    1
    55    15    16    2
    56    15    20    1
    57    16    17    1
    58    28    29    1
    59    20    19    2
    60    17    18    2
    61    19    18    1
@<TRIPOS>MOLECULE
29
 59 61 0 0 0
SMALL
GASTEIGER

@<TRIPOS>ATOM
      1  N1       -37.7890  -43.7010    3.2140 N.am    1  non1        0.0230
      2  C8       -38.1150  -44.6150    2.2150 C.2     1  non1        0.0770
      3  C9       -39.5680  -45.1100    2.2210 C.3     1  non1        0.2040
      4  N2       -40.3800  -44.8290    3.4180 N.am    1  non1        0.0250
      5  C10      -39.8200  -44.0550    4.4150 C.2     1  non1       -0.0020
      6  C11      -38.6010  -43.5090    4.3110 C.2     1  non1       -0.0030
      7  O1       -37.3300  -44.9440    1.3200 O.2     1  non1       -0.2830
      8  C13      -41.6650  -45.3440    3.4060 C.2     1  non1        0.0710
      9  O3       -41.9720  -46.2410    2.6020 O.2     1  non1       -0.2890
     10  C21      -40.2070  -44.4950    1.0070 C.2     1  non1        0.0820
     11  N3       -41.0270  -45.1790    0.1890 N.2     1  non1       -0.1410
     12  O4       -41.3850  -44.2830   -0.8080 O.2     1  non1       -0.3050
     13  C22      -40.8050  -43.0830   -0.5530 C.2     1  non1        0.1080
     14  C23      -40.0690  -43.1560    0.5950 C.2     1  non1        0.1270
     15  C24      -41.0330  -42.0130   -1.4880 C.2     1  non1       -0.0250
     16  C25      -41.8490  -40.9350   -1.1300 C.2     1  non1        0.0390
     17  C26      -42.0110  -39.8670   -2.0090 C.2     1  non1        0.0120
     18  C27      -41.3420  -39.8650   -3.2330 C.2     1  non1        0.0190
     19  C28      -40.5040  -40.9250   -3.5770 C.2     1  non1        0.0120
     20  C29      -40.3550  -42.0030   -2.7080 C.2     1  non1        0.0390
     21  C7       -36.5790  -42.9030    3.0420 C.3     1  non1        0.1330
     22  C1       -37.1210  -40.6690   -0.0040 C.2     1  non1        0.0370
     23  C2       -37.6840  -39.5460    0.5950 C.2     1  non1        0.0000
     24  C3       -37.7240  -39.4290    1.9820 C.2     1  non1        0.0370
     25  C4       -37.3010  -40.4930    2.7770 C.2     1  non1        0.0190
     26  C5       -36.8380  -41.6780    2.1870 C.2     1  non1       -0.0600
     27  C6       -36.6970  -41.7360    0.7920 C.2     1  non1        0.0190
     28  O2       -38.1590  -38.5230   -0.1820 O.2     1  non1       -0.2770
     29  C12      -38.6920  -37.4810    0.6430 C.3     1  non1        0.2030
     30  C14      -42.7000  -44.8310    4.3940 C.3     1  non1        0.1290
     31  C15      -43.8390  -44.0680    3.7490 C.2     1  non1       -0.0480
     32  C16      -43.5800  -42.9140    2.9920 C.2     1  non1        0.0160
     33  C17      -44.6240  -42.2200    2.3780 C.2     1  non1        0.0300
     34  C18      -45.9320  -42.6760    2.5180 C.2     1  non1       -0.0230
     35  C19      -46.2090  -43.8090    3.2810 C.2     1  non1        0.0300
     36  C20      -45.1650  -44.4990    3.9000 C.2     1  non1        0.0160
     37 Br1       -47.3430  -41.7560    1.6580 Br      1  non1       -0.0510
     38  CA       -37.0270  -42.6240   -3.9420 C.3    36  ARG36       0.1590
     39  CB       -36.7980  -42.9130   -2.4570 C.3    36  ARG36       0.0340
     40  CG       -37.7220  -43.9750   -1.8830 C.3    36  ARG36       0.0270
     41  CD       -36.9690  -45.2630   -1.5920 C.3    36  ARG36       0.1160
     42  NE       -37.5080  -46.3940   -2.3430 N.pl3  36  ARG36      -0.2120
     43  CZ       -38.7960  -46.7160   -2.3870 C.cat  36  ARG36       0.6660
     44  NH2      -39.1960  -47.7620   -3.0970 N.pl3  36  ARG36      -0.2350
     45  NH1      -39.6850  -45.9930   -1.7210 N.pl3  36  ARG36      -0.2350
     46 2HH2      -40.1850  -48.0100   -3.1300 H      36  ARG36       0.1740
     47 1HH2      -38.5120  -48.3190   -3.6090 H      36  ARG36       0.1740
     48 2HH1      -40.6740  -46.2400   -1.7540 H      36  ARG36       0.1740
     49 1HH1      -39.3770  -45.1880   -1.1750 H      36  ARG36       0.1740
     50  HE       -36.8530  -46.9730   -2.8680 H      36  ARG36       0.1780
     51  CA       -47.9570  -41.7460   -2.2680 C.3   109  LYS109      0.1590
     52  CB       -46.6690  -42.1990   -1.6220 C.3   109  LYS109      0.0320
     53  CG       -46.3060  -43.6260   -1.6000 C.3   109  LYS109      0.0040
     54  CD       -45.0380  -43.7930   -0.7580 C.3   109  LYS109      0.0320
     55  CE       -45.0820  -44.9920    0.1370 C.3   109  LYS109      0.2060
     56  NZ       -43.5780  -45.2200    0.4190 N.4   109  LYS109     -0.0640
     57  HZ1      -43.6140  -45.8110    1.2490 H     109  LYS109      0.2750
     58  HZ3      -43.0410  -45.5980   -0.3620 H     109  LYS109      0.2750
     59  HZ2      -43.0180  -44.3720    0.5130 H     109  LYS109      0.2750
@<TRIPOS>BOND
     1    38    39    1
     2    47    44    1
     3    19    18    2
     4    19    20    1
     5    18    17    1
     6    46    44    1
     7    44    43    2
     8    50    42    1
     9    20    15    2
    10    39    40    1
    11    43    42    1
    12    43    45    1
    13    42    41    1
    14    51    52    1
    15    17    16    2
    16    40    41    1
    17    48    45    1
    18    45    49    1
    19    52    53    1
    20    53    54    1
    21    15    16    1
    22    15    13    1
    23    12    13    1
    24    12    11    1
    25    54    55    1
    26    13    14    2
    27    58    56    1
    28    28    23    1
    29    28    29    1
    30    22    23    2
    31    22    27    1
    32    55    56    1
    33    11    10    2
    34    56    59    1
    35    56    57    1
    36    23    24    1
    37    14    10    1
    38    27    26    2
    39    10     3    1
    40     7     2    2
    41    37    34    1
    42    24    25    2
    43    26    25    1
    44    26    21    1
    45     2     3    1
    46     2     1   am
    47     3     4    1
    48    33    34    2
    49    33    32    1
    50    34    35    1
    51     9     8    2
    52    32    31    2
    53    21     1    1
    54     1     6    1
    55    35    36    2
    56     8     4   am
    57     8    30    1
    58     4     5    1
    59    31    36    1
    60    31    30    1
    61     6     5    2
@<TRIPOS>MOLECULE
53
 59 61 0 0 0
SMALL
GASTEIGER

@<TRIPOS>ATOM
      1  N1       -43.0330  -43.9890   -1.0060 N.am    1  non1        0.0230
      2  C8       -43.3890  -42.6730   -1.2940 C.2     1  non1        0.0770
      3  C9       -43.4420  -41.7240   -0.0890 C.3     1  non1        0.2040
      4  N2       -43.4160  -42.3260    1.2570 N.am    1  non1        0.0250
      5  C10      -43.2470  -43.6940    1.3530 C.2     1  non1       -0.0020
      6  C11      -43.0490  -44.4770    0.2830 C.2     1  non1       -0.0030
      7  O1       -43.5620  -42.2580   -2.4440 O.2     1  non1       -0.2830
      8  C13      -43.5240  -41.4390    2.3140 C.2     1  non1        0.0710
      9  O3       -43.9420  -40.2850    2.1200 O.2     1  non1       -0.2890
     10  C21      -42.2740  -40.7930   -0.2590 C.2     1  non1        0.0820
     11  N3       -42.0110  -40.1590   -1.4160 N.2     1  non1       -0.1410
     12  O4       -40.8590  -39.4220   -1.1790 O.2     1  non1       -0.3050
     13  C22      -40.4770  -39.6020    0.1110 C.2     1  non1        0.1080
     14  C23      -41.3500  -40.4410    0.7420 C.2     1  non1        0.1270
     15  C24      -39.2810  -38.9390    0.5570 C.2     1  non1       -0.0250
     16  C25      -38.1530  -39.6890    0.9050 C.2     1  non1        0.0390
     17  C26      -36.9750  -39.0430    1.2690 C.2     1  non1        0.0120
     18  C27      -36.9160  -37.6500    1.2640 C.2     1  non1        0.0190
     19  C28      -38.0290  -36.9000    0.8870 C.2     1  non1        0.0120
     20  C29      -39.2150  -37.5440    0.5410 C.2     1  non1        0.0390
     21  C7       -42.5850  -44.8330   -2.1090 C.3     1  non1        0.1330
     22  C1       -45.8720  -45.0430   -4.0360 C.2     1  non1        0.0370
     23  C2       -45.5000  -44.4650   -5.2470 C.2     1  non1        0.0000
     24  C3       -44.1640  -44.1760   -5.5120 C.2     1  non1        0.0370
     25  C4       -43.2070  -44.3600   -4.5150 C.2     1  non1        0.0190
     26  C5       -43.5840  -44.8330   -3.2490 C.2     1  non1       -0.0600
     27  C6       -44.9140  -45.2270   -3.0360 C.2     1  non1        0.0190
     28  O2       -46.4460  -44.2240   -6.2080 O.2     1  non1       -0.2770
     29  C12      -46.3200  -42.8850   -6.7010 C.3     1  non1        0.2030
     30  C14      -43.1550  -41.8820    3.7200 C.3     1  non1        0.1290
     31  C15      -41.6650  -41.8720    3.9950 C.2     1  non1       -0.0480
     32  C16      -40.7630  -42.3390    3.0270 C.2     1  non1        0.0160
     33  C17      -39.3880  -42.3110    3.2670 C.2     1  non1        0.0300
     34  C18      -38.9090  -41.8180    4.4780 C.2     1  non1       -0.0230
     35  C19      -39.7920  -41.3690    5.4580 C.2     1  non1        0.0300
     36  C20      -41.1670  -41.4020    5.2200 C.2     1  non1        0.0160
     37 Br1       -37.0450  -41.7500    4.7920 Br      1  non1       -0.0510
     38  CA       -37.0270  -42.6240   -3.9420 C.3    36  ARG36       0.1590
     39  CB       -36.7980  -42.9130   -2.4570 C.3    36  ARG36       0.0340
     40  CG       -37.8620  -42.3300   -1.5410 C.3    36  ARG36       0.0270
     41  CD       -39.1740  -43.0880   -1.6670 C.3    36  ARG36       0.1160
     42  NE       -40.2170  -42.2770   -2.2900 N.pl3  36  ARG36      -0.2120
     43  CZ       -40.5650  -42.3610   -3.5690 C.cat  36  ARG36       0.6660
     44  NH2      -41.5260  -41.5830   -4.0500 N.pl3  36  ARG36      -0.2350
     45  NH1      -39.9530  -43.2230   -4.3700 N.pl3  36  ARG36      -0.2350
     46 2HH2      -41.7930  -41.6480   -5.0320 H      36  ARG36       0.1740
     47 1HH2      -41.9960  -40.9200   -3.4340 H      36  ARG36       0.1740
     48 2HH1      -40.2200  -43.2870   -5.3520 H      36  ARG36       0.1740
     49 1HH1      -39.2140  -43.8210   -4.0000 H      36  ARG36       0.1740
     50  HE       -40.7100  -41.6020   -1.7050 H      36  ARG36       0.1780
     51  CA       -47.9570  -41.7460   -2.2680 C.3   109  LYS109      0.1590
     52  CB       -46.6690  -42.1990   -1.6220 C.3   109  LYS109      0.0320
     53  CG       -46.2810  -41.6940   -0.2940 C.3   109  LYS109      0.0040
     54  CD       -47.2430  -42.2720    0.7470 C.3   109  LYS109      0.0320
     55  CE       -46.6330  -42.3890    2.1090 C.3   109  LYS109      0.2060
     56  NZ       -46.9810  -41.0100    2.7200 N.4   109  LYS109     -0.0640
     57  HZ1      -46.1070  -40.5030    2.5850 H     109  LYS109      0.2750
     58  HZ3      -47.8100  -40.5590    2.3320 H     109  LYS109      0.2750
     59  HZ2      -47.3290  -41.0320    3.6790 H     109  LYS109      0.2750
@<TRIPOS>BOND
     1    29    28    1
     2    28    23    1
     3    24    23    1
     4    24    25    2
     5    48    45    1
     6    23    22    2
     7    46    44    1
     8    25    26    1
     9    45    49    1
    10    45    43    2
    11    44    43    1
    12    44    47    1
    13    22    27    1
    14    38    39    1
    15    43    42    1
    16    26    27    2
    17    26    21    1
    18    39    40    1
    19     7     2    2
    20    42    50    1
    21    42    41    1
    22    51    52    1
    23    21     1    1
    24    41    40    1
    25    52    53    1
    26    11    12    1
    27    11    10    2
    28     2     1   am
    29     2     3    1
    30    12    13    1
    31     1     6    1
    32    53    54    1
    33    10     3    1
    34    10    14    1
    35     3     4    1
    36    13    15    1
    37    13    14    2
    38     6     5    2
    39    20    15    2
    40    20    19    1
    41    15    16    1
    42    54    55    1
    43    19    18    2
    44    16    17    2
    45     4     5    1
    46     4     8   am
    47    18    17    1
    48    55    56    1
    49     9     8    2
    50     8    30    1
    51    58    56    1
    52    57    56    1
    53    56    59    1
    54    32    33    1
    55    32    31    2
    56    33    34    2
    57    30    31    1
    58    31    36    1
    59    34    37    1
    60    34    35    1
    61    36    35    2
@<TRIPOS>MOLECULE
30
 59 61 0 0 0
SMALL
GASTEIGER

@<TRIPOS>ATOM
      1  N1       -46.5880  -45.6850   -0.7060 N.am    1  non1        0.0230
      2  C8       -45.7130  -46.6720   -0.2570 C.2     1  non1        0.0770
      3  C9       -44.4740  -46.9050   -1.1340 C.3     1  non1        0.2040
      4  N2       -44.4710  -46.3100   -2.4830 N.am    1  non1        0.0250
      5  C10      -45.5320  -45.5010   -2.8380 C.2     1  non1       -0.0020
      6  C11      -46.5240  -45.1930   -1.9920 C.2     1  non1       -0.0030
      7  O1       -45.8560  -47.2630    0.8170 O.2     1  non1       -0.2830
      8  C13      -43.3620  -46.5940   -3.2610 C.2     1  non1        0.0710
      9  O3       -42.6100  -47.5370   -2.9590 O.2     1  non1       -0.2890
     10  C21      -43.3130  -46.3820   -0.3360 C.2     1  non1        0.0820
     11  N3       -42.6530  -45.2560   -0.6620 N.2     1  non1       -0.1410
     12  O4       -41.6510  -45.1270    0.2900 O.2     1  non1       -0.3050
     13  C22      -41.7490  -46.1490    1.1760 C.2     1  non1        0.1080
     14  C23      -42.7970  -46.9570    0.8400 C.2     1  non1        0.1270
     15  C24      -40.7810  -46.2150    2.2380 C.2     1  non1       -0.0250
     16  C25      -41.1820  -46.5770    3.5280 C.2     1  non1        0.0390
     17  C26      -40.2330  -46.7090    4.5380 C.2     1  non1        0.0120
     18  C27      -38.8830  -46.5010    4.2560 C.2     1  non1        0.0190
     19  C28      -38.4780  -46.1710    2.9630 C.2     1  non1        0.0120
     20  C29      -39.4280  -46.0200    1.9550 C.2     1  non1        0.0390
     21  C7       -47.5510  -45.1420    0.2460 C.3     1  non1        0.1330
     22  C1       -47.3310  -41.7980    2.0730 C.2     1  non1        0.0370
     23  C2       -46.0710  -41.9030    2.6550 C.2     1  non1        0.0000
     24  C3       -45.2220  -42.9560    2.3210 C.2     1  non1        0.0370
     25  C4       -45.6800  -43.9720    1.4830 C.2     1  non1        0.0190
     26  C5       -46.9890  -43.9400    0.9790 C.2     1  non1       -0.0600
     27  C6       -47.7910  -42.8160    1.2340 C.2     1  non1        0.0190
     28  O2       -45.6390  -40.9400    3.5280 O.2     1  non1       -0.2770
     29  C12      -44.4630  -40.3010    3.0170 C.3     1  non1        0.2030
     30  C14      -43.0710  -45.7670   -4.5030 C.3     1  non1        0.1290
     31  C15      -42.3940  -44.4430   -4.2140 C.2     1  non1       -0.0480
     32  C16      -43.1580  -43.2780   -4.0480 C.2     1  non1        0.0160
     33  C17      -42.5400  -42.0600   -3.7600 C.2     1  non1        0.0300
     34  C18      -41.1540  -42.0010   -3.6390 C.2     1  non1       -0.0230
     35  C19      -40.3790  -43.1440   -3.8200 C.2     1  non1        0.0300
     36  C20      -40.9970  -44.3610   -4.1130 C.2     1  non1        0.0160
     37 Br1       -40.3180  -40.3580   -3.2150 Br      1  non1       -0.0510
     38  CA       -37.0270  -42.6240   -3.9420 C.3    36  ARG36       0.1590
     39  CB       -36.7980  -42.9130   -2.4570 C.3    36  ARG36       0.0340
     40  CG       -36.7630  -44.3930   -2.1120 C.3    36  ARG36       0.0270
     41  CD       -38.1590  -44.9280   -1.8360 C.3    36  ARG36       0.1160
     42  NE       -38.3990  -46.2030   -2.5070 N.pl3  36  ARG36      -0.2120
     43  CZ       -39.5590  -46.8490   -2.4900 C.cat  36  ARG36       0.6660
     44  NH2      -39.6870  -48.0040   -3.1290 N.pl3  36  ARG36      -0.2350
     45  NH1      -40.5950  -46.3410   -1.8350 N.pl3  36  ARG36      -0.2350
     46 2HH2      -40.5780  -48.5010   -3.1170 H      36  ARG36       0.1740
     47 1HH2      -38.8910  -48.3950   -3.6330 H      36  ARG36       0.1740
     48 2HH1      -41.4860  -46.8380   -1.8230 H      36  ARG36       0.1740
     49 1HH1      -40.4960  -45.4530   -1.3440 H      36  ARG36       0.1740
     50  HE       -37.6260  -46.6250   -3.0210 H      36  ARG36       0.1780
     51  CA       -47.9570  -41.7460   -2.2680 C.3   109  LYS109      0.1590
     52  CB       -46.6690  -42.1990   -1.6220 C.3   109  LYS109      0.0320
     53  CG       -45.5790  -41.2400   -1.3760 C.3   109  LYS109      0.0040
     54  CD       -44.2620  -42.0140   -1.2750 C.3   109  LYS109      0.0320
     55  CE       -43.4550  -41.6440   -0.0690 C.3   109  LYS109      0.2060
     56  NZ       -42.6180  -42.9280    0.1450 N.4   109  LYS109     -0.0640
     57  HZ1      -43.3340  -43.5870    0.4510 H     109  LYS109      0.2750
     58  HZ3      -42.0670  -43.2280   -0.6590 H     109  LYS109      0.2750
     59  HZ2      -41.8200  -42.8290    0.7720 H     109  LYS109      0.2750
@<TRIPOS>BOND
     1    30    31    1
     2    30     8    1
     3    31    36    2
     4    31    32    1
     5    36    35    1
     6    32    33    2
     7    38    39    1
     8    35    34    2
     9    33    34    1
    10    34    37    1
    11    47    44    1
    12     8     9    2
    13     8     4   am
    14    44    46    1
    15    44    43    2
    16    50    42    1
    17     5     4    1
    18     5     6    2
    19    42    43    1
    20    42    41    1
    21    43    45    1
    22     4     3    1
    23    39    40    1
    24    51    52    1
    25    40    41    1
    26     6     1    1
    27    45    48    1
    28    45    49    1
    29    52    53    1
    30    53    54    1
    31    54    55    1
    32     3    10    1
    33     3     2    1
    34     1     2   am
    35     1    21    1
    36    11    10    2
    37    11    12    1
    38    58    56    1
    39    10    14    1
    40     2     7    2
    41    55    56    1
    42    56    57    1
    43    56    59    1
    44    21    26    1
    45    12    13    1
    46    14    13    2
    47    26    27    1
    48    26    25    2
    49    13    15    1
    50    27    22    2
    51    25    24    1
    52    20    15    2
    53    20    19    1
    54    22    23    1
    55    15    16    1
    56    24    23    2
    57    23    28    1
    58    19    18    2
    59    29    28    1
    60    16    17    2
    61    18    17    1
@<TRIPOS>MOLECULE
18
 59 61 0 0 0
SMALL
GASTEIGER

@<TRIPOS>ATOM
      1  N1       -41.1480  -46.7400    1.6480 N.am    1  non1        0.0230
      2  C8       -41.0280  -47.0650    0.2990 C.2     1  non1        0.0770
      3  C9       -42.3080  -46.9130   -0.5340 C.3     1  non1        0.2040
      4  N2       -43.5800  -46.7410    0.1930 N.am    1  non1        0.0250
      5  C10      -43.5300  -46.6280    1.5680 C.2     1  non1       -0.0020
      6  C11      -42.3790  -46.6110    2.2540 C.2     1  non1       -0.0030
      7  O1       -39.9530  -47.3670   -0.2290 O.2     1  non1       -0.2830
      8  C13      -44.7150  -46.6670   -0.5950 C.2     1  non1        0.0710
      9  O3       -44.6830  -47.0490   -1.7770 O.2     1  non1       -0.2890
     10  C21      -42.0650  -45.7340   -1.4340 C.2     1  non1        0.0820
     11  N3       -41.9480  -45.8470   -2.7690 N.2     1  non1       -0.1410
     12  O4       -41.7110  -44.5590   -3.2290 O.2     1  non1       -0.3050
     13  C22      -41.7230  -43.7040   -2.1760 C.2     1  non1        0.1080
     14  C23      -41.9650  -44.3920   -1.0210 C.2     1  non1        0.1270
     15  C24      -41.4720  -42.3120   -2.4370 C.2     1  non1       -0.0250
     16  C25      -42.4270  -41.3520   -2.0880 C.2     1  non1        0.0390
     17  C26      -42.1530  -40.0010   -2.2760 C.2     1  non1        0.0120
     18  C27      -40.9180  -39.6060   -2.7900 C.2     1  non1        0.0190
     19  C28      -39.9520  -40.5600   -3.1080 C.2     1  non1        0.0120
     20  C29      -40.2310  -41.9140   -2.9390 C.2     1  non1        0.0390
     21  C7       -39.9240  -46.4820    2.4000 C.3     1  non1        0.1330
     22  C1       -37.4060  -43.7640    1.4820 C.2     1  non1        0.0370
     23  C2       -38.2610  -42.7580    1.0390 C.2     1  non1        0.0000
     24  C3       -39.6390  -42.8780    1.2020 C.2     1  non1        0.0370
     25  C4       -40.1740  -44.0620    1.7080 C.2     1  non1        0.0190
     26  C5       -39.3320  -45.1300    2.0510 C.2     1  non1       -0.0600
     27  C6       -37.9420  -44.9510    1.9880 C.2     1  non1        0.0190
     28  O2       -37.7430  -41.6190    0.4840 O.2     1  non1       -0.2770
     29  C12      -38.7910  -40.6800    0.2130 C.3     1  non1        0.2030
     30  C14      -46.0150  -46.1390   -0.0080 C.3     1  non1        0.1290
     31  C15      -45.8680  -44.8170    0.7180 C.2     1  non1       -0.0480
     32  C16      -44.7780  -43.9760    0.4450 C.2     1  non1        0.0160
     33  C17      -44.6510  -42.7470    1.0950 C.2     1  non1        0.0300
     34  C18      -45.6130  -42.3540    2.0230 C.2     1  non1       -0.0230
     35  C19      -46.6910  -43.1860    2.3190 C.2     1  non1        0.0300
     36  C20      -46.8150  -44.4170    1.6730 C.2     1  non1        0.0160
     37 Br1       -45.4590  -40.6750    2.8790 Br      1  non1       -0.0510
     38  CA       -37.0270  -42.6240   -3.9420 C.3    36  ARG36       0.1590
     39  CB       -36.7980  -42.9130   -2.4570 C.3    36  ARG36       0.0340
     40  CG       -36.8670  -44.3880   -2.0950 C.3    36  ARG36       0.0270
     41  CD       -38.2120  -44.7430   -1.4810 C.3    36  ARG36       0.1160
     42  NE       -39.0620  -45.4790   -2.4140 N.pl3  36  ARG36      -0.2120
     43  CZ       -38.7900  -46.6960   -2.8710 C.cat  36  ARG36       0.6660
     44  NH2      -39.6210  -47.2900   -3.7160 N.pl3  36  ARG36      -0.2350
     45  NH1      -37.6870  -47.3220   -2.4820 N.pl3  36  ARG36      -0.2350
     46 2HH2      -39.4130  -48.2250   -4.0680 H      36  ARG36       0.1740
     47 1HH2      -40.4700  -46.8080   -4.0150 H      36  ARG36       0.1740
     48 2HH1      -37.4790  -48.2570   -2.8340 H      36  ARG36       0.1740
     49 1HH1      -37.0480  -46.8650   -1.8320 H      36  ARG36       0.1740
     50  HE       -39.9190  -45.0300   -2.7340 H      36  ARG36       0.1780
     51  CA       -47.9570  -41.7460   -2.2680 C.3   109  LYS109      0.1590
     52  CB       -46.6690  -42.1990   -1.6220 C.3   109  LYS109      0.0320
     53  CG       -45.5300  -42.6320   -2.4490 C.3   109  LYS109      0.0040
     54  CD       -45.9770  -43.8130   -3.3140 C.3   109  LYS109      0.0320
     55  CE       -45.0000  -44.1510   -4.3970 C.3   109  LYS109      0.2060
     56  NZ       -44.1970  -45.2980   -3.7380 N.4   109  LYS109     -0.0640
     57  HZ1      -43.3750  -45.3400   -4.3390 H     109  LYS109      0.2750
     58  HZ3      -44.0040  -45.1790   -2.7430 H     109  LYS109      0.2750
     59  HZ2      -44.7030  -46.1770   -3.6290 H     109  LYS109      0.2750
@<TRIPOS>BOND
     1    55    56    1
     2    55    54    1
     3    57    56    1
     4    46    44    1
     5    47    44    1
     6    38    39    1
     7    56    59    1
     8    56    58    1
     9    44    43    2
    10    54    53    1
    11    12    11    1
    12    12    13    1
    13    19    20    1
    14    19    18    2
    15    20    15    2
    16    43    45    1
    17    43    42    1
    18    48    45    1
    19    18    17    1
    20    11    10    2
    21    50    42    1
    22    45    49    1
    23    39    40    1
    24    53    52    1
    25    15    13    1
    26    15    16    1
    27    42    41    1
    28    17    16    2
    29    51    52    1
    30    13    14    2
    31    40    41    1
    32     9     8    2
    33    10    14    1
    34    10     3    1
    35     8    30    1
    36     8     4   am
    37     3     4    1
    38     3     2    1
    39     7     2    2
    40    30    31    1
    41     4     5    1
    42    29    28    1
    43     2     1   am
    44    32    31    2
    45    32    33    1
    46    28    23    1
    47    31    36    1
    48    23    24    1
    49    23    22    2
    50    33    34    2
    51    24    25    2
    52    22    27    1
    53     5     6    2
    54     1     6    1
    55     1    21    1
    56    36    35    2
    57    25    26    1
    58    27    26    2
    59    34    35    1
    60    34    37    1
    61    26    21    1
@<TRIPOS>MOLECULE
64
 59 61 0 0 0
SMALL
GASTEIGER

@<TRIPOS>ATOM
      1  N1       -45.6640  -45.2600    1.3020 N.am    1  non1        0.0230
      2  C8       -44.3710  -44.8460    1.6140 C.2     1  non1        0.0770
      3  C9       -43.3160  -45.1020    0.5280 C.3     1  non1        0.2040
      4  N2       -43.6790  -46.0060   -0.5780 N.am    1  non1        0.0250
      5  C10      -44.9730  -46.4870   -0.6250 C.2     1  non1       -0.0020
      6  C11      -45.9150  -46.1210    0.2560 C.2     1  non1       -0.0030
      7  O1       -44.0910  -44.2290    2.6460 O.2     1  non1       -0.2830
      8  C13      -42.6800  -46.2550   -1.5020 C.2     1  non1        0.0710
      9  O3       -41.4950  -46.0020   -1.2260 O.2     1  non1       -0.2890
     10  C21      -42.9570  -43.7460   -0.0100 C.2     1  non1        0.0820
     11  N3       -43.7730  -43.0410   -0.8150 N.2     1  non1       -0.1410
     12  O4       -43.0830  -41.8730   -1.1080 O.2     1  non1       -0.3050
     13  C22      -41.8940  -41.8850   -0.4550 C.2     1  non1        0.1080
     14  C23      -41.7750  -43.0360    0.2720 C.2     1  non1        0.1270
     15  C24      -41.0100  -40.7670   -0.6440 C.2     1  non1       -0.0250
     16  C25      -40.5080  -40.0770    0.4640 C.2     1  non1        0.0390
     17  C26      -39.5970  -39.0400    0.2810 C.2     1  non1        0.0120
     18  C27      -39.1710  -38.7070   -1.0040 C.2     1  non1        0.0190
     19  C28      -39.6470  -39.4140   -2.1080 C.2     1  non1        0.0120
     20  C29      -40.5720  -40.4390   -1.9290 C.2     1  non1        0.0390
     21  C7       -46.7650  -44.7120    2.0880 C.3     1  non1        0.1330
     22  C1       -46.6850  -44.2270    5.8720 C.2     1  non1        0.0370
     23  C2       -46.6300  -45.5500    6.3020 C.2     1  non1        0.0000
     24  C3       -46.4370  -46.5830    5.3880 C.2     1  non1        0.0370
     25  C4       -46.4120  -46.3010    4.0230 C.2     1  non1        0.0190
     26  C5       -46.5820  -44.9860    3.5670 C.2     1  non1       -0.0600
     27  C6       -46.6610  -43.9440    4.5040 C.2     1  non1        0.0190
     28  O2       -46.7160  -45.8380    7.6380 O.2     1  non1       -0.2770
     29  C12      -47.2000  -44.6990    8.3600 C.3     1  non1        0.2030
     30  C14      -43.0260  -46.8630   -2.8520 C.3     1  non1        0.1290
     31  C15      -43.7370  -45.9100   -3.7900 C.2     1  non1       -0.0480
     32  C16      -44.9410  -45.3020   -3.4030 C.2     1  non1        0.0160
     33  C17      -45.5890  -44.4060   -4.2560 C.2     1  non1        0.0300
     34  C18      -45.0360  -44.1140   -5.5000 C.2     1  non1       -0.0230
     35  C19      -43.8510  -44.7240   -5.9080 C.2     1  non1        0.0300
     36  C20      -43.2070  -45.6240   -5.0580 C.2     1  non1        0.0160
     37 Br1       -45.8950  -42.8750   -6.6420 Br      1  non1       -0.0510
     38  CA       -37.0270  -42.6240   -3.9420 C.3    36  ARG36       0.1590
     39  CB       -36.7980  -42.9130   -2.4570 C.3    36  ARG36       0.0340
     40  CG       -37.9270  -43.6860   -1.7950 C.3    36  ARG36       0.0270
     41  CD       -38.7840  -44.4030   -2.8260 C.3    36  ARG36       0.1160
     42  NE       -40.1930  -44.0320   -2.7210 N.pl3  36  ARG36      -0.2120
     43  CZ       -40.8250  -43.2480   -3.5860 C.cat  36  ARG36       0.6660
     44  NH2      -42.1090  -42.9630   -3.4110 N.pl3  36  ARG36      -0.2350
     45  NH1      -40.1760  -42.7470   -4.6290 N.pl3  36  ARG36      -0.2350
     46 2HH2      -42.5950  -42.3610   -4.0760 H      36  ARG36       0.1740
     47 1HH2      -42.6080  -43.3480   -2.6090 H      36  ARG36       0.1740
     48 2HH1      -40.6620  -42.1450   -5.2930 H      36  ARG36       0.1740
     49 1HH1      -39.1890  -42.9660   -4.7630 H      36  ARG36       0.1740
     50  HE       -40.7250  -44.3980   -1.9320 H      36  ARG36       0.1780
     51  CA       -47.9570  -41.7460   -2.2680 C.3   109  LYS109      0.1590
     52  CB       -46.6690  -42.1990   -1.6220 C.3   109  LYS109      0.0320
     53  CG       -46.6520  -42.6380   -0.2170 C.3   109  LYS109      0.0040
     54  CD       -46.6840  -41.4000    0.6820 C.3   109  LYS109      0.0320
     55  CE       -45.8840  -41.5630    1.9370 C.3   109  LYS109      0.2060
     56  NZ       -44.4410  -41.5920    1.3790 N.4   109  LYS109     -0.0640
     57  HZ1      -43.9730  -40.9280    1.9950 H     109  LYS109      0.2750
     58  HZ3      -44.0120  -42.5170    1.3290 H     109  LYS109      0.2750
     59  HZ2      -44.3550  -41.3970    0.3810 H     109  LYS109      0.2750
@<TRIPOS>BOND
     1    37    34    1
     2    35    34    2
     3    35    36    1
     4    34    33    1
     5    48    45    1
     6    36    31    2
     7    49    45    1
     8    45    43    2
     9    33    32    2
    10    46    44    1
    11    38    39    1
    12    31    32    1
    13    31    30    1
    14    43    44    1
    15    43    42    1
    16    44    47    1
    17    30     8    1
    18    41    42    1
    19    41    40    1
    20    42    50    1
    21    39    40    1
    22    51    52    1
    23    19    20    1
    24    19    18    2
    25    20    15    2
    26    52    53    1
    27     8     9    2
    28     8     4   am
    29    12    11    1
    30    12    13    1
    31    18    17    1
    32    11    10    2
    33    15    13    1
    34    15    16    1
    35     5     4    1
    36     5     6    2
    37     4     3    1
    38    13    14    2
    39    53    54    1
    40    10    14    1
    41    10     3    1
    42     6     1    1
    43    17    16    2
    44    59    56    1
    45     3     2    1
    46    54    55    1
    47     1     2   am
    48     1    21    1
    49    58    56    1
    50    56    55    1
    51    56    57    1
    52     2     7    2
    53    21    26    1
    54    26    25    2
    55    26    27    1
    56    25    24    1
    57    27    22    2
    58    24    23    2
    59    22    23    1
    60    23    28    1
    61    28    29    1
@<TRIPOS>MOLECULE
43
 59 61 0 0 0
SMALL
GASTEIGER

@<TRIPOS>ATOM
      1  N1       -41.1880  -40.9000    1.6140 N.am    1  non1        0.0230
      2  C8       -40.7590  -42.1900    1.3110 C.2     1  non1        0.0770
      3  C9       -41.7030  -43.3190    1.7440 C.3     1  non1        0.2040
      4  N2       -42.7900  -42.9800    2.6800 N.am    1  non1        0.0250
      5  C10      -42.9540  -41.6540    3.0320 C.2     1  non1       -0.0020
      6  C11      -42.2060  -40.6690    2.5140 C.2     1  non1       -0.0030
      7  O1       -39.7380  -42.4240    0.6570 O.2     1  non1       -0.2830
      8  C13      -43.5820  -44.0390    3.0900 C.2     1  non1        0.0710
      9  O3       -43.1900  -45.2080    2.9380 O.2     1  non1       -0.2890
     10  C21      -42.2740  -43.8760    0.4700 C.2     1  non1        0.0820
     11  N3       -42.1470  -45.1680    0.1180 N.2     1  non1       -0.1410
     12  O4       -42.7790  -45.2790   -1.1130 O.2     1  non1       -0.3050
     13  C22      -43.2960  -44.0710   -1.4550 C.2     1  non1        0.1080
     14  C23      -43.0250  -43.1560   -0.4780 C.2     1  non1        0.1270
     15  C24      -43.9780  -43.9640   -2.7170 C.2     1  non1       -0.0250
     16  C25      -43.3500  -43.3390   -3.7990 C.2     1  non1        0.0390
     17  C26      -43.9830  -43.2990   -5.0390 C.2     1  non1        0.0120
     18  C27      -45.2300  -43.9010   -5.2030 C.2     1  non1        0.0190
     19  C28      -45.8430  -44.5510   -4.1330 C.2     1  non1        0.0120
     20  C29      -45.2210  -44.5760   -2.8880 C.2     1  non1        0.0390
     21  C7       -40.5630  -39.7870    0.9060 C.3     1  non1        0.1330
     22  C1       -39.6430  -40.2630   -2.7670 C.2     1  non1        0.0370
     23  C2       -40.8790  -40.6210   -3.2990 C.2     1  non1        0.0000
     24  C3       -42.0340  -40.5340   -2.5260 C.2     1  non1        0.0370
     25  C4       -41.9380  -40.1960   -1.1770 C.2     1  non1        0.0190
     26  C5       -40.6860  -39.9460   -0.5970 C.2     1  non1       -0.0600
     27  C6       -39.5460  -39.9260   -1.4150 C.2     1  non1        0.0190
     28  O2       -40.9710  -41.0130   -4.6080 O.2     1  non1       -0.2770
     29  C12      -39.6870  -41.4220   -5.0940 C.3     1  non1        0.2030
     30  C14      -44.9260  -43.7740    3.7500 C.3     1  non1        0.1290
     31  C15      -46.1110  -44.2710    2.9500 C.2     1  non1       -0.0480
     32  C16      -45.9130  -44.9810    1.7560 C.2     1  non1        0.0160
     33  C17      -47.0020  -45.4610    1.0260 C.2     1  non1        0.0300
     34  C18      -48.2960  -45.2310    1.4870 C.2     1  non1       -0.0230
     35  C19      -48.5120  -44.5120    2.6610 C.2     1  non1        0.0300
     36  C20      -47.4220  -44.0270    3.3870 C.2     1  non1        0.0160
     37 Br1       -49.7720  -45.9100    0.5180 Br      1  non1       -0.0510
     38  CA       -37.0270  -42.6240   -3.9420 C.3    36  ARG36       0.1590
     39  CB       -36.7980  -42.9130   -2.4570 C.3    36  ARG36       0.0340
     40  CG       -37.8160  -43.8630   -1.8470 C.3    36  ARG36       0.0270
     41  CD       -39.1680  -43.7370   -2.5300 C.3    36  ARG36       0.1160
     42  NE       -40.0960  -44.7820   -2.1050 N.pl3  36  ARG36      -0.2120
     43  CZ       -40.0960  -46.0200   -2.5850 C.cat  36  ARG36       0.6660
     44  NH2      -40.9780  -46.9050   -2.1390 N.pl3  36  ARG36      -0.2350
     45  NH1      -39.2150  -46.3760   -3.5100 N.pl3  36  ARG36      -0.2350
     46 2HH2      -40.9780  -47.8570   -2.5070 H      36  ARG36       0.1740
     47 1HH2      -41.6550  -46.6320   -1.4280 H      36  ARG36       0.1740
     48 2HH1      -39.2160  -47.3270   -3.8780 H      36  ARG36       0.1740
     49 1HH1      -38.5370  -45.6950   -3.8520 H      36  ARG36       0.1740
     50  HE       -40.7880  -44.5450   -1.3950 H      36  ARG36       0.1780
     51  CA       -47.9570  -41.7460   -2.2680 C.3   109  LYS109      0.1590
     52  CB       -46.6690  -42.1990   -1.6220 C.3   109  LYS109      0.0320
     53  CG       -45.6660  -41.2140   -1.1850 C.3   109  LYS109      0.0040
     54  CD       -45.7680  -41.0540    0.3340 C.3   109  LYS109      0.0320
     55  CE       -46.6930  -42.0460    0.9680 C.3   109  LYS109      0.2060
     56  NZ       -47.7570  -41.1150    1.5960 N.4   109  LYS109     -0.0640
     57  HZ1      -47.9700  -40.4950    0.8150 H     109  LYS109      0.2750
     58  HZ3      -48.5610  -41.5880    2.0090 H     109  LYS109      0.2750
     59  HZ2      -47.4730  -40.6470    2.4580 H     109  LYS109      0.2750
@<TRIPOS>BOND
     1    18    17    2
     2    18    19    1
     3    29    28    1
     4    17    16    1
     5    28    23    1
     6    19    20    2
     7    38    39    1
     8    48    45    1
     9    49    45    1
    10    16    15    2
    11    45    43    2
    12    23    22    2
    13    23    24    1
    14    20    15    1
    15    22    27    1
    16    15    13    1
    17    43    44    1
    18    43    42    1
    19    41    42    1
    20    41    40    1
    21    24    25    2
    22    46    44    1
    23    39    40    1
    24    51    52    1
    25    44    47    1
    26    42    50    1
    27    52    53    1
    28    13    12    1
    29    13    14    2
    30    27    26    2
    31    53    54    1
    32    25    26    1
    33    12    11    1
    34    26    21    1
    35    14    10    1
    36    11    10    2
    37    54    55    1
    38    10     3    1
    39    37    34    1
    40     7     2    2
    41    57    56    1
    42    21     1    1
    43    55    56    1
    44    33    34    2
    45    33    32    1
    46     2     1   am
    47     2     3    1
    48    34    35    1
    49    56    58    1
    50    56    59    1
    51     1     6    1
    52     3     4    1
    53    32    31    2
    54     6     5    2
    55    35    36    2
    56     4     5    1
    57     4     8   am
    58     9     8    2
    59    31    36    1
    60    31    30    1
    61     8    30    1
