@<TRIPOS>MOLECULE
27
 32 36 0 0 0
SMALL
GASTEIGER

@<TRIPOS>ATOM
      1  N10       21.5480  -31.9770   42.4020 N.3     1  AWZ1        0.0000
      2  H         20.5560  -31.7940   42.4690 H       1  AWZ1        0.0000
      3  C4        22.3300  -30.8600   45.8210 C.2     1  AWZ1        0.0000
      4  C6        24.1250  -31.9220   44.8890 C.2     1  AWZ1        0.0000
      5  C7        25.5570  -32.3380   45.0100 C.3     1  AWZ1        0.0000
      6  C9        22.1950  -31.8060   43.6380 C.3     1  AWZ1        0.0000
      7  C3        21.5510  -31.1110   44.6820 C.2     1  AWZ1        0.0000
      8  N8        23.4760  -32.2010   43.7460 N.2     1  AWZ1        0.0000
      9  N5        23.5950  -31.2650   45.9310 N.pl3   1  AWZ1        0.0000
     10  C26       21.7670  -30.1680   46.8830 C.2     1  AWZ1        0.0000
     11  C2        20.1990  -30.6650   44.6670 C.2     1  AWZ1        0.0000
     12  C1        19.6360  -29.9880   45.7490 C.2     1  AWZ1        0.0000
     13  C27       20.4470  -29.7030   46.8490 C.2     1  AWZ1        0.0000
     14  O30       18.3450  -29.5350   45.7870 O.2     1  AWZ1        0.0000
     15  C31       17.3320  -30.4650   45.4090 C.3     1  AWZ1        0.0000
     16  O28       19.8960  -29.0560   47.9250 O.2     1  AWZ1        0.0000
     17  C29       20.2550  -29.6520   49.1710 C.3     1  AWZ1        0.0000
     18  C11       21.7480  -33.2570   41.7110 C.3     1  AWZ1        0.0000
     19  C12       21.0960  -33.1040   40.3230 C.3     1  AWZ1        0.0000
     20  C14       19.8200  -34.9020   42.4000 C.2     1  AWZ1        0.0000
     21  C13       21.1210  -34.4320   42.4480 C.2     1  AWZ1        0.0000
     22  C16       20.7430  -36.3670   43.9600 C.2     1  AWZ1        0.0000
     23  S17       22.0660  -35.3690   43.5330 S.3     1  AWZ1        0.0000
     24  C15       19.6090  -36.0230   43.2570 C.2     1  AWZ1        0.0000
     25  C23       19.5790  -38.9710   47.8370 C.3     1  AWZ1        0.0000
     26  C24       18.3070  -38.1820   47.4380 C.3     1  AWZ1        0.0000
     27  C25       18.7760  -37.0990   46.4490 C.3     1  AWZ1        0.0000
     28  N19       19.9970  -37.6740   45.9260 N.pl3   1  AWZ1        0.0000
     29  C20       20.4660  -38.7000   46.6890 C.2     1  AWZ1        0.0000
     30  N21       21.6030  -39.1570   46.2390 N.2     1  AWZ1        0.0000
     31  C22       21.8730  -38.3500   45.1440 C.2     1  AWZ1        0.0000
     32  C18       20.8750  -37.4050   44.9330 C.2     1  AWZ1        0.0000
@<TRIPOS>BOND
     1    19    18    1
     2    18     1    1
     3    18    21    1
     4    20    21    2
     5    20    24    1
     6     1     2    1
     7     1     6    1
     8    21    23    1
     9    24    22    2
    10    23    22    1
    11     6     8    1
    12     6     7    1
    13     8     4    2
    14    22    32    1
    15    11     7    1
    16    11    12    2
    17     7     3    2
    18     4     5    1
    19     4     9    1
    20    32    31    2
    21    32    28    1
    22    31    30    1
    23    15    14    1
    24    12    14    1
    25    12    13    1
    26     3     9    1
    27     3    10    1
    28    28    27    1
    29    28    29    1
    30    30    29    2
    31    27    26    1
    32    29    25    1
    33    13    10    2
    34    13    16    1
    35    26    25    1
    36    16    17    1
@<TRIPOS>MOLECULE
85
 32 36 0 0 0
SMALL
GASTEIGER

@<TRIPOS>ATOM
      1  N10       23.7070  -38.2980   46.6750 N.3     1  AWZ1        0.0000
      2  H         24.6240  -38.4290   47.0780 H       1  AWZ1        0.0000
      3  C4        21.0600  -36.1430   48.0520 C.2     1  AWZ1        0.0000
      4  C6        22.9820  -34.9520   47.7260 C.2     1  AWZ1        0.0000
      5  C7        23.6740  -33.6250   47.7590 C.3     1  AWZ1        0.0000
      6  C9        23.0360  -37.2030   47.2470 C.3     1  AWZ1        0.0000
      7  C3        21.6850  -37.3260   47.6310 C.2     1  AWZ1        0.0000
      8  N8        23.6720  -36.0200   47.2930 N.2     1  AWZ1        0.0000
      9  N5        21.6970  -34.9730   48.1080 N.pl3   1  AWZ1        0.0000
     10  C26       19.7260  -36.1830   48.4310 C.2     1  AWZ1        0.0000
     11  C2        20.9320  -38.5330   47.6320 C.2     1  AWZ1        0.0000
     12  C1        19.5970  -38.5680   48.0350 C.2     1  AWZ1        0.0000
     13  C27       18.9820  -37.3680   48.3980 C.2     1  AWZ1        0.0000
     14  O30       18.8270  -39.6990   48.0530 O.2     1  AWZ1        0.0000
     15  C31       19.4950  -40.9210   48.3570 C.3     1  AWZ1        0.0000
     16  O28       17.6760  -37.3960   48.8150 O.2     1  AWZ1        0.0000
     17  C29       17.3970  -36.4210   49.8190 C.3     1  AWZ1        0.0000
     18  C11       23.8240  -38.3230   45.2110 C.3     1  AWZ1        0.0000
     19  C12       25.2920  -37.9810   44.8900 C.3     1  AWZ1        0.0000
     20  C14       21.6380  -37.5260   43.9920 C.2     1  AWZ1        0.0000
     21  C13       22.9000  -37.3270   44.5260 C.2     1  AWZ1        0.0000
     22  C16       21.9610  -35.2740   43.4870 C.2     1  AWZ1        0.0000
     23  S17       23.3980  -35.6970   44.3140 S.3     1  AWZ1        0.0000
     24  C15       21.0950  -36.3430   43.4110 C.2     1  AWZ1        0.0000
     25  C23       20.8500  -31.9340   40.2040 C.3     1  AWZ1        0.0000
     26  C24       20.2690  -33.2730   39.6850 C.3     1  AWZ1        0.0000
     27  C25       20.9290  -34.3760   40.5330 C.3     1  AWZ1        0.0000
     28  N19       21.2940  -33.6570   41.7350 N.pl3   1  AWZ1        0.0000
     29  C20       21.2720  -32.3060   41.5690 C.2     1  AWZ1        0.0000
     30  N21       21.6700  -31.6790   42.6430 N.2     1  AWZ1        0.0000
     31  C22       21.9840  -32.7030   43.5240 C.2     1  AWZ1        0.0000
     32  C18       21.7590  -33.9580   42.9700 C.2     1  AWZ1        0.0000
@<TRIPOS>BOND
     1    26    25    1
     2    26    27    1
     3    25    29    1
     4    27    28    1
     5    29    28    1
     6    29    30    2
     7    28    32    1
     8    30    31    1
     9    32    22    1
    10    32    31    2
    11    24    22    2
    12    24    20    1
    13    22    23    1
    14    20    21    2
    15    23    21    1
    16    21    18    1
    17    19    18    1
    18    18     1    1
    19     1     2    1
    20     1     6    1
    21     6     8    1
    22     6     7    1
    23     8     4    2
    24     7    11    1
    25     7     3    2
    26    11    12    2
    27     4     5    1
    28     4     9    1
    29    12    14    1
    30    12    13    1
    31     3     9    1
    32     3    10    1
    33    14    15    1
    34    13    10    2
    35    13    16    1
    36    16    17    1
@<TRIPOS>MOLECULE
16
 32 36 0 0 0
SMALL
GASTEIGER

@<TRIPOS>ATOM
      1  N10       19.1560  -34.7590   43.2780 N.3     1  AWZ1        0.0000
      2  H         19.0740  -34.2980   44.1730 H       1  AWZ1        0.0000
      3  C4        22.2740  -33.0850   42.2680 C.2     1  AWZ1        0.0000
      4  C6        20.8800  -33.3410   40.4770 C.2     1  AWZ1        0.0000
      5  C7        20.6120  -33.0750   39.0290 C.3     1  AWZ1        0.0000
      6  C9        20.1820  -34.2030   42.4950 C.3     1  AWZ1        0.0000
      7  C3        21.3740  -33.7610   43.1050 C.2     1  AWZ1        0.0000
      8  N8        19.9420  -33.9860   41.1900 N.2     1  AWZ1        0.0000
      9  N5        22.0390  -32.8830   40.9720 N.pl3   1  AWZ1        0.0000
     10  C26       23.4620  -32.6080   42.8030 C.2     1  AWZ1        0.0000
     11  C2        21.7240  -33.9540   44.4710 C.2     1  AWZ1        0.0000
     12  C1        22.9310  -33.4890   44.9940 C.2     1  AWZ1        0.0000
     13  C27       23.7860  -32.7720   44.1540 C.2     1  AWZ1        0.0000
     14  O30       23.3170  -33.6450   46.2980 O.2     1  AWZ1        0.0000
     15  C31       23.0130  -34.8970   46.9080 C.3     1  AWZ1        0.0000
     16  O28       24.9830  -32.3290   44.6550 O.2     1  AWZ1        0.0000
     17  C29       25.5220  -31.2380   43.9100 C.3     1  AWZ1        0.0000
     18  C11       19.1890  -36.2110   43.4940 C.3     1  AWZ1        0.0000
     19  C12       18.3200  -36.4820   44.7380 C.3     1  AWZ1        0.0000
     20  C14       21.6110  -36.9550   42.8030 C.2     1  AWZ1        0.0000
     21  C13       20.5950  -36.7450   43.7200 C.2     1  AWZ1        0.0000
     22  C16       22.6410  -37.7040   44.7550 C.2     1  AWZ1        0.0000
     23  S17       21.0990  -37.1990   45.2980 S.3     1  AWZ1        0.0000
     24  C15       22.7900  -37.4910   43.4010 C.2     1  AWZ1        0.0000
     25  C23       24.2380  -40.4610   48.3620 C.3     1  AWZ1        0.0000
     26  C24       22.8500  -41.0190   47.9620 C.3     1  AWZ1        0.0000
     27  C25       22.1980  -39.9370   47.0820 C.3     1  AWZ1        0.0000
     28  N19       23.3500  -39.2210   46.5780 N.pl3   1  AWZ1        0.0000
     29  C20       24.4850  -39.4850   47.2830 C.2     1  AWZ1        0.0000
     30  N21       25.4960  -38.7770   46.8560 N.2     1  AWZ1        0.0000
     31  C22       24.9520  -38.0060   45.8400 C.2     1  AWZ1        0.0000
     32  C18       23.6000  -38.2670   45.6520 C.2     1  AWZ1        0.0000
@<TRIPOS>BOND
     1     5     4    1
     2     4     9    1
     3     4     8    2
     4     9     3    1
     5     8     6    1
     6     3    10    2
     7     3     7    1
     8     6     7    1
     9     6     1    1
    10    10    13    1
    11    20    24    1
    12    20    21    2
    13     7    11    2
    14     1    18    1
    15     1     2    1
    16    24    22    2
    17    18    21    1
    18    18    19    1
    19    21    23    1
    20    17    16    1
    21    13    16    1
    22    13    12    2
    23    11    12    1
    24    22    23    1
    25    22    32    1
    26    12    14    1
    27    32    31    2
    28    32    28    1
    29    31    30    1
    30    14    15    1
    31    28    27    1
    32    28    29    1
    33    30    29    2
    34    27    26    1
    35    29    25    1
    36    26    25    1
@<TRIPOS>MOLECULE
80
 32 36 0 0 0
SMALL
GASTEIGER

@<TRIPOS>ATOM
      1  N10       23.8640  -32.6120   42.8940 N.3     1  AWZ1        0.0000
      2  H         24.6950  -33.1850   42.8520 H       1  AWZ1        0.0000
      3  C4        21.5090  -35.3560   42.2040 C.2     1  AWZ1        0.0000
      4  C6        20.7800  -33.4090   41.2560 C.2     1  AWZ1        0.0000
      5  C7        19.7720  -32.7170   40.3930 C.3     1  AWZ1        0.0000
      6  C9        22.7190  -33.3240   42.4940 C.3     1  AWZ1        0.0000
      7  C3        22.6130  -34.7020   42.7710 C.2     1  AWZ1        0.0000
      8  N8        21.8070  -32.6900   41.7370 N.2     1  AWZ1        0.0000
      9  N5        20.5990  -34.7220   41.4640 N.pl3   1  AWZ1        0.0000
     10  C26       21.3470  -36.7160   42.4210 C.2     1  AWZ1        0.0000
     11  C2        23.5160  -35.4570   43.5710 C.2     1  AWZ1        0.0000
     12  C1        23.3330  -36.8210   43.8000 C.2     1  AWZ1        0.0000
     13  C27       22.2570  -37.4590   43.1810 C.2     1  AWZ1        0.0000
     14  O30       24.1710  -37.5940   44.5570 O.2     1  AWZ1        0.0000
     15  C31       24.2600  -37.2700   45.9430 C.3     1  AWZ1        0.0000
     16  O28       22.0580  -38.7960   43.4170 O.2     1  AWZ1        0.0000
     17  C29       21.8550  -39.0860   44.7990 C.3     1  AWZ1        0.0000
     18  C11       23.8150  -31.9420   44.2000 C.3     1  AWZ1        0.0000
     19  C12       25.1630  -31.2100   44.3590 C.3     1  AWZ1        0.0000
     20  C14       24.5480  -33.4250   46.2400 C.2     1  AWZ1        0.0000
     21  C13       23.6150  -32.9110   45.3560 C.2     1  AWZ1        0.0000
     22  C16       22.6220  -34.5050   46.9830 C.2     1  AWZ1        0.0000
     23  S17       22.0510  -33.5330   45.6960 S.3     1  AWZ1        0.0000
     24  C15       23.9740  -34.3280   47.1820 C.2     1  AWZ1        0.0000
     25  C23       18.9530  -37.5500   47.6430 C.3     1  AWZ1        0.0000
     26  C24       19.2480  -37.5390   46.1230 C.3     1  AWZ1        0.0000
     27  C25       20.1530  -36.3170   45.8780 C.3     1  AWZ1        0.0000
     28  N19       20.7550  -36.1200   47.1790 N.pl3   1  AWZ1        0.0000
     29  C20       20.0970  -36.7810   48.1710 C.2     1  AWZ1        0.0000
     30  N21       20.6150  -36.5340   49.3440 N.2     1  AWZ1        0.0000
     31  C22       21.6430  -35.6450   49.0690 C.2     1  AWZ1        0.0000
     32  C18       21.7450  -35.3680   47.7110 C.2     1  AWZ1        0.0000
@<TRIPOS>BOND
     1     5     4    1
     2     4     9    1
     3     4     8    2
     4     9     3    1
     5     8     6    1
     6     3    10    2
     7     3     7    1
     8    10    13    1
     9     6     7    1
    10     6     1    1
    11     7    11    2
    12     2     1    1
    13     1    18    1
    14    13    16    1
    15    13    12    2
    16    16    17    1
    17    11    12    1
    18    12    14    1
    19    18    19    1
    20    18    21    1
    21    14    15    1
    22    21    23    1
    23    21    20    2
    24    23    22    1
    25    27    26    1
    26    27    28    1
    27    26    25    1
    28    20    24    1
    29    22    24    2
    30    22    32    1
    31    28    32    1
    32    28    29    1
    33    25    29    1
    34    32    31    2
    35    29    30    2
    36    31    30    1
@<TRIPOS>MOLECULE
92
 32 36 0 0 0
SMALL
GASTEIGER

@<TRIPOS>ATOM
      1  N10       25.6030  -33.3120   46.9090 N.3     1  AWZ1        0.0000
      2  H         26.3160  -33.1320   47.6030 H       1  AWZ1        0.0000
      3  C4        22.5860  -35.3620   47.3970 C.2     1  AWZ1        0.0000
      4  C6        22.7530  -33.7720   49.0290 C.2     1  AWZ1        0.0000
      5  C7        22.1420  -33.1100   50.2240 C.3     1  AWZ1        0.0000
      6  C9        24.4520  -33.8830   47.4790 C.3     1  AWZ1        0.0000
      7  C3        23.8060  -34.9580   46.8350 C.2     1  AWZ1        0.0000
      8  N8        23.9200  -33.2960   48.5650 N.2     1  AWZ1        0.0000
      9  N5        22.0670  -34.7860   48.4820 N.pl3   1  AWZ1        0.0000
     10  C26       21.8850  -36.4050   46.8090 C.2     1  AWZ1        0.0000
     11  C2        24.2940  -35.6520   45.6930 C.2     1  AWZ1        0.0000
     12  C1        23.5930  -36.7140   45.1210 C.2     1  AWZ1        0.0000
     13  C27       22.3550  -37.0610   45.6660 C.2     1  AWZ1        0.0000
     14  O30       24.0140  -37.4130   44.0230 O.2     1  AWZ1        0.0000
     15  C31       23.3910  -37.0880   42.7820 C.3     1  AWZ1        0.0000
     16  O28       21.6680  -38.1170   45.1220 O.2     1  AWZ1        0.0000
     17  C29       22.1030  -39.3770   45.6300 C.3     1  AWZ1        0.0000
     18  C11       25.4200  -32.1030   46.0950 C.3     1  AWZ1        0.0000
     19  C12       25.4150  -30.9170   47.0790 C.3     1  AWZ1        0.0000
     20  C14       22.9790  -31.3600   45.4730 C.2     1  AWZ1        0.0000
     21  C13       24.1250  -32.1170   45.2970 C.2     1  AWZ1        0.0000
     22  C16       22.3360  -32.6870   43.6680 C.2     1  AWZ1        0.0000
     23  S17       23.9400  -33.1990   43.9750 S.3     1  AWZ1        0.0000
     24  C15       21.9600  -31.6780   44.5280 C.2     1  AWZ1        0.0000
     25  C23       19.3910  -35.9150   41.6500 C.3     1  AWZ1        0.0000
     26  C24       19.2630  -36.0990   43.1830 C.3     1  AWZ1        0.0000
     27  C25       20.4510  -35.3380   43.8000 C.3     1  AWZ1        0.0000
     28  N19       20.7600  -34.3710   42.7680 N.pl3   1  AWZ1        0.0000
     29  C20       20.1960  -34.6810   41.5680 C.2     1  AWZ1        0.0000
     30  N21       20.5430  -33.8340   40.6370 N.2     1  AWZ1        0.0000
     31  C22       21.3960  -32.9570   41.2910 C.2     1  AWZ1        0.0000
     32  C18       21.5500  -33.2810   42.6330 C.2     1  AWZ1        0.0000
@<TRIPOS>BOND
     1    30    31    1
     2    30    29    2
     3    31    32    2
     4    29    25    1
     5    29    28    1
     6    25    26    1
     7    32    28    1
     8    32    22    1
     9    28    27    1
    10    15    14    1
    11    26    27    1
    12    22    23    1
    13    22    24    2
    14    23    21    1
    15    14    12    1
    16    24    20    1
    17    12    13    2
    18    12    11    1
    19    16    17    1
    20    16    13    1
    21    21    20    2
    22    21    18    1
    23    13    10    1
    24    11     7    2
    25    18     1    1
    26    18    19    1
    27    10     3    2
    28     7     3    1
    29     7     6    1
    30     1     6    1
    31     1     2    1
    32     3     9    1
    33     6     8    1
    34     9     4    1
    35     8     4    2
    36     4     5    1
