#       Name:                CT1002167954
#       Creating user name   hitesit
#       Creation time:       Sun Apr 16 22:51:08 2023


#       File generated by GOLD software.
#

@<TRIPOS>MOLECULE
CT1002167954|ligand_prepared|mol2|1|dock3
    29    30     1
SMALL
NO_CHARGES


@<TRIPOS>ATOM
      1 C1         117.6267 246.2700 360.0280 C.3            1 RES1               0.0000
      2 C2         118.4526 247.4385 359.4524 C.ar           1 RES1               0.0000
      3 C3         118.3796 245.7799 361.2614 C.2            1 RES1               0.0000
      4 C4         116.2419 246.8332 360.3275 C.2            1 RES1               0.0000
      5 C5         117.4586 245.0829 359.0512 C.3            1 RES1               0.0000
      6 C6         119.5516 247.1940 358.6344 C.ar           1 RES1               0.0000
      7 C7         118.1267 248.7638 359.7279 C.ar           1 RES1               0.0000
      8 N8         117.8586 246.0879 362.4835 N.am           1 RES1               0.0000
      9 O9         119.4353 245.1665 361.1637 O.2            1 RES1               0.0000
     10 N10        115.8421 246.8922 361.6369 N.am           1 RES1               0.0000
     11 O11        115.4998 247.2418 359.4428 O.2            1 RES1               0.0000
     12 C12        116.4323 244.0565 359.5044 C.3            1 RES1               0.0000
     13 C13        120.2961 248.2368 358.1083 C.ar           1 RES1               0.0000
     14 C14        118.8727 249.8051 359.2010 C.ar           1 RES1               0.0000
     15 C15        116.5998 246.5736 362.7308 C.2            1 RES1               0.0000
     16 C16        119.9570 249.5428 358.3908 C.ar           1 RES1               0.0000
     17 O17        116.1892 246.7050 363.8803 O.2            1 RES1               0.0000
     18 H18        117.1591 245.4724 358.0704 H              1 RES1               0.0000
     19 H19        118.4282 244.5837 358.9319 H              1 RES1               0.0000
     20 H20        119.8351 246.1727 358.4030 H              1 RES1               0.0000
     21 H21        117.2784 248.9938 360.3636 H              1 RES1               0.0000
     22 H22        118.4607 245.9439 363.2879 H              1 RES1               0.0000
     23 H23        114.8917 247.2023 361.8124 H              1 RES1               0.0000
     24 H24        116.3537 243.2454 358.7836 H              1 RES1               0.0000
     25 H25        116.7119 243.6299 360.4655 H              1 RES1               0.0000
     26 H26        115.4503 244.5132 359.6091 H              1 RES1               0.0000
     27 H27        121.1494 248.0250 357.4724 H              1 RES1               0.0000
     28 H28        118.6026 250.8314 359.4265 H              1 RES1               0.0000
     29 H29        120.5402 250.3595 357.9783 H              1 RES1               0.0000
@<TRIPOS>BOND
    1    1    2 1     
    2    1    3 1     
    3    1    4 1     
    4    1    5 1     
    5    2    6 ar    
    6    2    7 ar    
    7    3    8 1     
    8    3    9 2     
    9    4   10 1     
   10    4   11 2     
   11    5   12 1     
   12    5   18 1     
   13    5   19 1     
   14    6   13 ar    
   15    6   20 1     
   16    7   14 ar    
   17    7   21 1     
   18    8   15 1     
   19    8   22 1     
   20   10   15 1     
   21   10   23 1     
   22   12   24 1     
   23   12   25 1     
   24   12   26 1     
   25   13   16 ar    
   26   13   27 1     
   27   14   16 ar    
   28   14   28 1     
   29   15   17 2     
   30   16   29 1     
@<TRIPOS>SUBSTRUCTURE
      1 RES1           1
@<TRIPOS>SET
DONOR_HYDROGENS      STATIC     ATOMS    <user>   **** ""
2 22 23
ATOM$RED        STATIC     ATOMS    COLORGROUP SYSTEM
2 22 23
@<TRIPOS>COMMENT
> <Gold.Version>
2022.3.0

> <Gold.Id.Protein>
unknown|5adg_clean|pdb

> <Gold.Protein.RotatedTorsions>
[ 5561 5545 5544 5541 ] final   15.07 input   60.03 | X-H torsion
[ 12885 12857 12856 12854 ] final  124.48 input   60.00 | X-H torsion
[ 9097 9067 9066 9064 ] final  -12.51 input   60.02 | X-H torsion
[ 8993 8977 8976 8973 ] final  -32.37 input   60.01 | X-H torsion

> <Gold.Protein.ActiveResidues>
 TRP311  MET341  HIS342  TRP414  ALA417  ARG419  CYS420  VAL421  GLY422  LEU460 
 SER462  SER482  GLN483  ARG486  ALA502  ASN503  TYR567  GLY568  LEU569  PRO570 
 ALA571  VAL572  SER573  ASN574  MET575  LEU576  PHE589  SER590  GLY591  TRP592 
 TYR593  MET594  GLY595  GLU597  ILE598  ARG601  ARG608  ILE653  VAL654  TRP683 
 PHE709  GLU710  TYR711  GLN712  ASP714  HEM750  H4B760 

> <Gold.Protein.RotatedAtoms>
  127.5460  248.7669  363.4212 H   0  0  0  0  0  0  0  0  0  0  0  0  # atno 5561 bound_to 5545
  115.1082  245.4140  368.5376 H   0  0  0  0  0  0  0  0  0  0  0  0  # atno 8993 bound_to 8977
  123.0337  241.4646  360.3275 H   0  0  0  0  0  0  0  0  0  0  0  0  # atno 9097 bound_to 9067
  119.7800  254.3940  354.3418 H   0  0  0  0  0  0  0  0  0  0  0  0  # atno 12885 bound_to 12857
  128.8194  249.4902  362.7113 LP  0  0  0  0  0  0  0  0  0  0  0  0  # atno 13468 bound_to 5545
  127.6063  248.8874  361.7993 LP  0  0  0  0  0  0  0  0  0  0  0  0  # atno 13469 bound_to 5545
  120.7257  253.5262  355.3424 LP  0  0  0  0  0  0  0  0  0  0  0  0  # atno 13474 bound_to 12857
  121.3630  254.2180  354.0076 LP  0  0  0  0  0  0  0  0  0  0  0  0  # atno 13475 bound_to 12857
  123.4022  240.2771  361.3775 LP  0  0  0  0  0  0  0  0  0  0  0  0  # atno 13500 bound_to 9067
  122.5246  241.5630  361.8701 LP  0  0  0  0  0  0  0  0  0  0  0  0  # atno 13501 bound_to 9067
  116.2215  244.4445  369.2226 LP  0  0  0  0  0  0  0  0  0  0  0  0  # atno 13514 bound_to 8977
  115.0635  243.8108  368.2613 LP  0  0  0  0  0  0  0  0  0  0  0  0  # atno 13515 bound_to 8977

> <Gold.Score>
     Fitness  S(hb_ext) S(vdw_ext)  S(hb_int)    S(int)      intcor
     59.07      10.32      36.07       0.00      -0.84      -0.76

> <Gold.Goldscore.Fitness>
59.0684

> <Gold.Goldscore.Internal.Vdw>
-1.0494

> <Gold.Goldscore.Internal.Torsion>
-0.5586

> <Gold.Goldscore.External.Vdw>
36.0654

> <Gold.Goldscore.Internal.HBond>
0.0000

> <Gold.Goldscore.External.HBond>
10.3216

> <Gold.Goldscore.Internal.Correction>
-0.7650

> <Gold.Goldscore.Hbonds>
donor molecule, donor type, donor heavy atom, donor atom, acceptor molecule, acceptor atom, score
      P1  H  8444  8467       L1    17  0.16
      P1  M 13289 13530       L1    11  1.00

> <Gold.Goldscore.Internal.Vdw.Weighted>
-1.0494

> <Gold.Goldscore.Internal.Torsion.Weighted>
-0.5586

> <Gold.Goldscore.External.Vdw.Weighted>
49.5899

> <Gold.Goldscore.Internal.HBond.Weighted>
0.0000

> <Gold.Goldscore.External.HBond.Weighted>
10.3216

> <Gold.Goldscore.Internal.Correction.Weighted>
-0.7650

> <Gold.Rescore>
     Score     S(PLP)   S(hbond)     S(cho)   S(metal)  DE(clash)   DE(tors)     intcor
     53.33     -48.92       0.04       0.00       1.00       0.00       0.85       ----

> <Gold.PLP.Fitness>
53.3274

> <Gold.PLP.PLP>
-48.9154

> <Gold.PLP.part.hbond>
-3.0000

> <Gold.PLP.part.metal>
-0.8359

> <Gold.PLP.part.buried>
10.4971

> <Gold.PLP.part.nonpolar>
-62.4481

> <Gold.PLP.part.repulsive>
3.9352

> <Gold.PLP.ligand.clash>
0.0000

> <Gold.PLP.ligand.torsion>
0.8534

> <Gold.PLP.Chemscore.Hbond>
0.0396

> <Gold.PLP.Chemscore.CHOScore>
0.0000

> <Gold.PLP.Chemscore.Metal>
1.0000

> <Gold.Chemscore.Hbonds>
donor molecule, donor type, donor heavy atom, donor atom, acceptor molecule, acceptor atom, score
      L1  H     8    22       P1  8399  0.07
      P1  M 13289 13289       L1    11  1.00

> <Gold.PLP.Chemscore.Internal.Correction>
   9.000000E+99

#       Name:                CT1002167954
#       Creating user name   hitesit
#       Creation time:       Sun Apr 16 22:51:09 2023


#       File generated by GOLD software.
#

@<TRIPOS>MOLECULE
CT1002167954|ligand_prepared|mol2|1|dock4
    29    30     1
SMALL
NO_CHARGES


@<TRIPOS>ATOM
      1 C1         117.4531 246.2643 359.9635 C.3            1 RES1               0.0000
      2 C2         118.2673 247.3687 359.2591 C.ar           1 RES1               0.0000
      3 C3         118.1827 245.9606 361.2687 C.2            1 RES1               0.0000
      4 C4         116.0478 246.8249 360.1521 C.2            1 RES1               0.0000
      5 C5         117.3397 244.9552 359.1480 C.3            1 RES1               0.0000
      6 C6         117.9458 248.7106 359.4398 C.ar           1 RES1               0.0000
      7 C7         119.3423 247.0618 358.4292 C.ar           1 RES1               0.0000
      8 N8         117.6210 246.4125 362.4264 N.am           1 RES1               0.0000
      9 O9         119.2546 245.3681 361.2787 O.2            1 RES1               0.0000
     10 N10        115.6107 247.0447 361.4321 N.am           1 RES1               0.0000
     11 O11        115.3213 247.0939 359.2034 O.2            1 RES1               0.0000
     12 C12        116.3020 243.9841 359.6886 C.3            1 RES1               0.0000
     13 C13        118.6744 249.7097 358.8159 C.ar           1 RES1               0.0000
     14 C14        120.0695 248.0625 357.8060 C.ar           1 RES1               0.0000
     15 C15        116.3449 246.8928 362.5767 C.2            1 RES1               0.0000
     16 C16        119.7369 249.3865 357.9990 C.ar           1 RES1               0.0000
     17 O17        115.8996 247.1630 363.6884 O.2            1 RES1               0.0000
     18 H18        117.0826 245.2060 358.1115 H              1 RES1               0.0000
     19 H19        118.3178 244.4584 359.1400 H              1 RES1               0.0000
     20 H20        117.1115 248.9841 360.0771 H              1 RES1               0.0000
     21 H21        119.6214 246.0271 358.2619 H              1 RES1               0.0000
     22 H22        118.2037 246.3915 363.2573 H              1 RES1               0.0000
     23 H23        114.6488 247.3497 361.5419 H              1 RES1               0.0000
     24 H24        116.2632 243.0830 359.0801 H              1 RES1               0.0000
     25 H25        116.5405 243.6936 360.7096 H              1 RES1               0.0000
     26 H26        115.3126 244.4368 359.6872 H              1 RES1               0.0000
     27 H27        118.4077 250.7501 358.9700 H              1 RES1               0.0000
     28 H28        120.9045 247.8035 357.1635 H              1 RES1               0.0000
     29 H29        120.3077 250.1694 357.5107 H              1 RES1               0.0000
@<TRIPOS>BOND
    1    1    2 1     
    2    1    3 1     
    3    1    4 1     
    4    1    5 1     
    5    2    6 ar    
    6    2    7 ar    
    7    3    8 1     
    8    3    9 2     
    9    4   10 1     
   10    4   11 2     
   11    5   12 1     
   12    5   18 1     
   13    5   19 1     
   14    6   13 ar    
   15    6   20 1     
   16    7   14 ar    
   17    7   21 1     
   18    8   15 1     
   19    8   22 1     
   20   10   15 1     
   21   10   23 1     
   22   12   24 1     
   23   12   25 1     
   24   12   26 1     
   25   13   16 ar    
   26   13   27 1     
   27   14   16 ar    
   28   14   28 1     
   29   15   17 2     
   30   16   29 1     
@<TRIPOS>SUBSTRUCTURE
      1 RES1           1
@<TRIPOS>SET
DONOR_HYDROGENS      STATIC     ATOMS    <user>   **** ""
2 22 23
ATOM$RED        STATIC     ATOMS    COLORGROUP SYSTEM
2 22 23
@<TRIPOS>COMMENT
> <Gold.Version>
2022.3.0

> <Gold.Id.Protein>
unknown|5adg_clean|pdb

> <Gold.Protein.RotatedTorsions>
[ 5561 5545 5544 5541 ] final  156.17 input   60.03 | X-H torsion
[ 12885 12857 12856 12854 ] final  -75.81 input   60.00 | X-H torsion
[ 9097 9067 9066 9064 ] final   59.65 input   60.02 | X-H torsion
[ 8993 8977 8976 8973 ] final  -46.83 input   60.01 | X-H torsion

> <Gold.Protein.ActiveResidues>
 TRP311  MET341  HIS342  TRP414  ALA417  ARG419  CYS420  VAL421  GLY422  LEU460 
 SER462  SER482  GLN483  ARG486  ALA502  ASN503  TYR567  GLY568  LEU569  PRO570 
 ALA571  VAL572  SER573  ASN574  MET575  LEU576  PHE589  SER590  GLY591  TRP592 
 TYR593  MET594  GLY595  GLU597  ILE598  ARG601  ARG608  ILE653  VAL654  TRP683 
 PHE709  GLU710  TYR711  GLN712  ASP714  HEM750  H4B760 

> <Gold.Protein.RotatedAtoms>
  127.8970  249.0508  361.7139 H   0  0  0  0  0  0  0  0  0  0  0  0  # atno 5561 bound_to 5545
  115.2853  245.4776  368.6794 H   0  0  0  0  0  0  0  0  0  0  0  0  # atno 8993 bound_to 8977
  122.5213  241.9148  361.1942 H   0  0  0  0  0  0  0  0  0  0  0  0  # atno 9097 bound_to 9067
  121.5368  253.8607  354.5071 H   0  0  0  0  0  0  0  0  0  0  0  0  # atno 12885 bound_to 12857
  127.3216  248.6571  363.1845 LP  0  0  0  0  0  0  0  0  0  0  0  0  # atno 13468 bound_to 5545
  128.7508  249.4346  363.0453 LP  0  0  0  0  0  0  0  0  0  0  0  0  # atno 13469 bound_to 5545
  120.2044  254.5698  353.8985 LP  0  0  0  0  0  0  0  0  0  0  0  0  # atno 13474 bound_to 12857
  120.1151  253.7116  355.2850 LP  0  0  0  0  0  0  0  0  0  0  0  0  # atno 13475 bound_to 12857
  123.3957  240.7977  360.3966 LP  0  0  0  0  0  0  0  0  0  0  0  0  # atno 13500 bound_to 9067
  123.0470  240.5891  361.9783 LP  0  0  0  0  0  0  0  0  0  0  0  0  # atno 13501 bound_to 9067
  116.1916  244.2163  369.1653 LP  0  0  0  0  0  0  0  0  0  0  0  0  # atno 13514 bound_to 8977
  114.9152  243.9750  368.1758 LP  0  0  0  0  0  0  0  0  0  0  0  0  # atno 13515 bound_to 8977

> <Gold.Score>
     Fitness  S(hb_ext) S(vdw_ext)  S(hb_int)    S(int)      intcor
     57.87      10.68      34.79       0.00      -0.65      -0.76

> <Gold.Goldscore.Fitness>
57.8699

> <Gold.Goldscore.Internal.Vdw>
-0.8084

> <Gold.Goldscore.Internal.Torsion>
-0.6095

> <Gold.Goldscore.External.Vdw>
34.7929

> <Gold.Goldscore.Internal.HBond>
0.0000

> <Gold.Goldscore.External.HBond>
10.6826

> <Gold.Goldscore.Internal.Correction>
-0.7650

> <Gold.Goldscore.Hbonds>
donor molecule, donor type, donor heavy atom, donor atom, acceptor molecule, acceptor atom, score
      P1  H  8444  8467       L1    17  0.34
      P1  M 13289 13530       L1    11  1.00

> <Gold.Goldscore.Internal.Vdw.Weighted>
-0.8084

> <Gold.Goldscore.Internal.Torsion.Weighted>
-0.6095

> <Gold.Goldscore.External.Vdw.Weighted>
47.8402

> <Gold.Goldscore.Internal.HBond.Weighted>
0.0000

> <Gold.Goldscore.External.HBond.Weighted>
10.6826

> <Gold.Goldscore.Internal.Correction.Weighted>
-0.7650

> <Gold.Rescore>
     Score     S(PLP)   S(hbond)     S(cho)   S(metal)  DE(clash)   DE(tors)     intcor
     49.96     -44.53       0.64       0.00       1.00       1.36       0.56       ----

> <Gold.PLP.Fitness>
49.9589

> <Gold.PLP.PLP>
-44.5290

> <Gold.PLP.part.hbond>
-2.3930

> <Gold.PLP.part.metal>
-1.0000

> <Gold.PLP.part.buried>
8.5058

> <Gold.PLP.part.nonpolar>
-61.0174

> <Gold.PLP.part.repulsive>
7.8808

> <Gold.PLP.ligand.clash>
1.3588

> <Gold.PLP.ligand.torsion>
0.5611

> <Gold.PLP.Chemscore.Hbond>
0.6370

> <Gold.PLP.Chemscore.CHOScore>
0.0000

> <Gold.PLP.Chemscore.Metal>
1.0000

> <Gold.Chemscore.Hbonds>
donor molecule, donor type, donor heavy atom, donor atom, acceptor molecule, acceptor atom, score
      P1  M 13289 13289       L1    11  1.00

> <Gold.PLP.Chemscore.Internal.Correction>
   9.000000E+99

#       Name:                CT1002167954
#       Creating user name   hitesit
#       Creation time:       Sun Apr 16 22:51:12 2023


#       File generated by GOLD software.
#

@<TRIPOS>MOLECULE
CT1002167954|ligand_prepared|mol2|1|dock7
    29    30     1
SMALL
NO_CHARGES


@<TRIPOS>ATOM
      1 C1         118.4371 245.9016 359.6087 C.3            1 RES1               0.0000
      2 C2         118.5590 247.4295 359.4376 C.ar           1 RES1               0.0000
      3 C3         118.9773 245.2821 358.3231 C.2            1 RES1               0.0000
      4 C4         119.2397 245.5465 360.8554 C.2            1 RES1               0.0000
      5 C5         116.9859 245.4101 359.8187 C.3            1 RES1               0.0000
      6 C6         117.6210 248.2837 360.0098 C.ar           1 RES1               0.0000
      7 C7         119.6034 247.9988 358.7139 C.ar           1 RES1               0.0000
      8 N8         120.2018 244.6839 358.3760 N.am           1 RES1               0.0000
      9 O9         118.3560 245.3520 357.2699 O.2            1 RES1               0.0000
     10 N10        120.3615 244.7753 360.6989 N.am           1 RES1               0.0000
     11 O11        118.9200 245.9415 361.9699 O.2            1 RES1               0.0000
     12 C12        116.8233 243.9041 359.6858 C.3            1 RES1               0.0000
     13 C13        117.7250 249.6573 359.8663 C.ar           1 RES1               0.0000
     14 C14        119.7054 249.3728 358.5715 C.ar           1 RES1               0.0000
     15 C15        120.8960 244.3536 359.5120 C.2            1 RES1               0.0000
     16 C16        118.7673 250.2028 359.1475 C.ar           1 RES1               0.0000
     17 O17        121.9388 243.7089 359.4487 O.2            1 RES1               0.0000
     18 H18        116.6511 245.7147 360.8180 H              1 RES1               0.0000
     19 H19        116.3368 245.9015 359.0834 H              1 RES1               0.0000
     20 H20        116.7925 247.8726 360.5769 H              1 RES1               0.0000
     21 H21        120.3523 247.3652 358.2511 H              1 RES1               0.0000
     22 H22        120.6420 244.4617 357.4887 H              1 RES1               0.0000
     23 H23        120.8427 244.4890 361.5455 H              1 RES1               0.0000
     24 H24        115.7867 243.6128 359.8423 H              1 RES1               0.0000
     25 H25        117.1234 243.5696 358.6950 H              1 RES1               0.0000
     26 H26        117.4359 243.3839 360.4193 H              1 RES1               0.0000
     27 H27        116.9834 250.3062 360.3205 H              1 RES1               0.0000
     28 H28        120.5270 249.7977 358.0044 H              1 RES1               0.0000
     29 H29        118.8487 251.2789 359.0356 H              1 RES1               0.0000
@<TRIPOS>BOND
    1    1    2 1     
    2    1    3 1     
    3    1    4 1     
    4    1    5 1     
    5    2    6 ar    
    6    2    7 ar    
    7    3    8 1     
    8    3    9 2     
    9    4   10 1     
   10    4   11 2     
   11    5   12 1     
   12    5   18 1     
   13    5   19 1     
   14    6   13 ar    
   15    6   20 1     
   16    7   14 ar    
   17    7   21 1     
   18    8   15 1     
   19    8   22 1     
   20   10   15 1     
   21   10   23 1     
   22   12   24 1     
   23   12   25 1     
   24   12   26 1     
   25   13   16 ar    
   26   13   27 1     
   27   14   16 ar    
   28   14   28 1     
   29   15   17 2     
   30   16   29 1     
@<TRIPOS>SUBSTRUCTURE
      1 RES1           1
@<TRIPOS>SET
DONOR_HYDROGENS      STATIC     ATOMS    <user>   **** ""
2 22 23
ATOM$RED        STATIC     ATOMS    COLORGROUP SYSTEM
2 22 23
@<TRIPOS>COMMENT
> <Gold.Version>
2022.3.0

> <Gold.Id.Protein>
unknown|5adg_clean|pdb

> <Gold.Protein.RotatedTorsions>
[ 5561 5545 5544 5541 ] final  155.63 input   60.03 | X-H torsion
[ 12885 12857 12856 12854 ] final  136.33 input   60.00 | X-H torsion
[ 9097 9067 9066 9064 ] final   30.84 input   60.02 | X-H torsion
[ 8993 8977 8976 8973 ] final  165.95 input   60.01 | X-H torsion

> <Gold.Protein.ActiveResidues>
 TRP311  MET341  HIS342  TRP414  ALA417  ARG419  CYS420  VAL421  GLY422  LEU460 
 SER462  SER482  GLN483  ARG486  ALA502  ASN503  TYR567  GLY568  LEU569  PRO570 
 ALA571  VAL572  SER573  ASN574  MET575  LEU576  PHE589  SER590  GLY591  TRP592 
 TYR593  MET594  GLY595  GLU597  ILE598  ARG601  ARG608  ILE653  VAL654  TRP683 
 PHE709  GLU710  TYR711  GLN712  ASP714  HEM750  H4B760 

> <Gold.Protein.RotatedAtoms>
  127.8892  249.0465  361.7147 H   0  0  0  0  0  0  0  0  0  0  0  0  # atno 5561 bound_to 5545
  116.0116  243.8608  368.9733 H   0  0  0  0  0  0  0  0  0  0  0  0  # atno 8993 bound_to 8977
  122.6751  241.8717  360.7565 H   0  0  0  0  0  0  0  0  0  0  0  0  # atno 9097 bound_to 9067
  119.8730  254.4681  354.1893 H   0  0  0  0  0  0  0  0  0  0  0  0  # atno 12885 bound_to 12857
  127.3263  248.6592  363.1918 LP  0  0  0  0  0  0  0  0  0  0  0  0  # atno 13468 bound_to 5545
  128.7539  249.4367  363.0372 LP  0  0  0  0  0  0  0  0  0  0  0  0  # atno 13469 bound_to 5545
  120.5350  253.5583  355.3652 LP  0  0  0  0  0  0  0  0  0  0  0  0  # atno 13474 bound_to 12857
  121.4601  254.1113  354.1384 LP  0  0  0  0  0  0  0  0  0  0  0  0  # atno 13475 bound_to 12857
  123.4918  240.4647  360.7129 LP  0  0  0  0  0  0  0  0  0  0  0  0  # atno 13500 bound_to 9067
  122.7960  240.9654  362.1028 LP  0  0  0  0  0  0  0  0  0  0  0  0  # atno 13501 bound_to 9067
  114.7358  244.3744  368.1032 LP  0  0  0  0  0  0  0  0  0  0  0  0  # atno 13514 bound_to 8977
  115.6397  245.4448  368.9421 LP  0  0  0  0  0  0  0  0  0  0  0  0  # atno 13515 bound_to 8977

> <Gold.Score>
     Fitness  S(hb_ext) S(vdw_ext)  S(hb_int)    S(int)      intcor
     38.11       0.38      27.94       0.00      -0.68      -0.76

> <Gold.Goldscore.Fitness>
38.1135

> <Gold.Goldscore.Internal.Vdw>
-0.8265

> <Gold.Goldscore.Internal.Torsion>
-0.6195

> <Gold.Goldscore.External.Vdw>
27.9364

> <Gold.Goldscore.Internal.HBond>
0.0000

> <Gold.Goldscore.External.HBond>
0.3820

> <Gold.Goldscore.Internal.Correction>
-0.7650

> <Gold.Goldscore.Hbonds>
donor molecule, donor type, donor heavy atom, donor atom, acceptor molecule, acceptor atom, score
      P1  H  5569  5594       L1    17  0.01
      P1  H  9067  9097       L1    17  0.18

> <Gold.Goldscore.Internal.Vdw.Weighted>
-0.8265

> <Gold.Goldscore.Internal.Torsion.Weighted>
-0.6195

> <Gold.Goldscore.External.Vdw.Weighted>
38.4126

> <Gold.Goldscore.Internal.HBond.Weighted>
0.0000

> <Gold.Goldscore.External.HBond.Weighted>
0.3820

> <Gold.Goldscore.Internal.Correction.Weighted>
-0.7650

> <Gold.Rescore>
     Score     S(PLP)   S(hbond)     S(cho)   S(metal)  DE(clash)   DE(tors)     intcor
     40.11     -38.36       1.26       0.00       0.00       0.00       1.01       ----

> <Gold.PLP.Fitness>
40.1060

> <Gold.PLP.PLP>
-38.3593

> <Gold.PLP.part.hbond>
-3.3521

> <Gold.PLP.part.metal>
0.0000

> <Gold.PLP.part.buried>
4.0796

> <Gold.PLP.part.nonpolar>
-46.7529

> <Gold.PLP.part.repulsive>
5.1023

> <Gold.PLP.ligand.clash>
0.0000

> <Gold.PLP.ligand.torsion>
1.0125

> <Gold.PLP.Chemscore.Hbond>
1.2572

> <Gold.PLP.Chemscore.CHOScore>
0.0000

> <Gold.PLP.Chemscore.Metal>
0.0000

> <Gold.Chemscore.Hbonds>
donor molecule, donor type, donor heavy atom, donor atom, acceptor molecule, acceptor atom, score
      P1  H  5569  5594       L1    17  0.37
      P1  H  9067  9097       L1    17  0.32

> <Gold.PLP.Chemscore.Internal.Correction>
   9.000000E+99

#       Name:                CT1002167954
#       Creating user name   hitesit
#       Creation time:       Sun Apr 16 22:51:11 2023


#       File generated by GOLD software.
#

@<TRIPOS>MOLECULE
CT1002167954|ligand_prepared|mol2|1|dock6
    29    30     1
SMALL
NO_CHARGES


@<TRIPOS>ATOM
      1 C1         122.9117 244.6667 357.0116 C.3            1 RES1               0.0000
      2 C2         122.3727 245.9853 357.6026 C.ar           1 RES1               0.0000
      3 C3         124.4081 244.8737 356.7963 C.2            1 RES1               0.0000
      4 C4         122.5736 243.5765 358.0225 C.2            1 RES1               0.0000
      5 C5         122.2698 244.2797 355.6590 C.3            1 RES1               0.0000
      6 C6         123.2429 246.9288 358.1404 C.ar           1 RES1               0.0000
      7 C7         121.0104 246.2731 357.6147 C.ar           1 RES1               0.0000
      8 N8         125.2625 244.2504 357.6573 N.am           1 RES1               0.0000
      9 O9         124.8309 245.6045 355.9090 O.2            1 RES1               0.0000
     10 N10        123.6111 242.9461 358.6581 N.am           1 RES1               0.0000
     11 O11        121.4177 243.2691 358.2865 O.2            1 RES1               0.0000
     12 C12        122.9690 243.1269 354.9559 C.3            1 RES1               0.0000
     13 C13        122.7689 248.1183 358.6685 C.ar           1 RES1               0.0000
     14 C14        120.5385 247.4631 358.1435 C.ar           1 RES1               0.0000
     15 C15        124.9392 243.2549 358.5440 C.2            1 RES1               0.0000
     16 C16        121.4166 248.3864 358.6700 C.ar           1 RES1               0.0000
     17 O17        125.8097 242.6787 359.1901 O.2            1 RES1               0.0000
     18 H18        121.2218 244.0048 355.8313 H              1 RES1               0.0000
     19 H19        122.2824 245.1557 354.9987 H              1 RES1               0.0000
     20 H20        124.3102 246.7342 358.1502 H              1 RES1               0.0000
     21 H21        120.3011 245.5610 357.2069 H              1 RES1               0.0000
     22 H22        126.2314 244.5524 357.6404 H              1 RES1               0.0000
     23 H23        123.3711 242.1752 359.2733 H              1 RES1               0.0000
     24 H24        122.4788 242.8961 354.0125 H              1 RES1               0.0000
     25 H25        124.0073 243.3756 354.7464 H              1 RES1               0.0000
     26 H26        122.9530 242.2316 355.5740 H              1 RES1               0.0000
     27 H27        123.4640 248.8410 359.0829 H              1 RES1               0.0000
     28 H28        119.4733 247.6697 358.1432 H              1 RES1               0.0000
     29 H29        121.0455 249.3184 359.0834 H              1 RES1               0.0000
@<TRIPOS>BOND
    1    1    2 1     
    2    1    3 1     
    3    1    4 1     
    4    1    5 1     
    5    2    6 ar    
    6    2    7 ar    
    7    3    8 1     
    8    3    9 2     
    9    4   10 1     
   10    4   11 2     
   11    5   12 1     
   12    5   18 1     
   13    5   19 1     
   14    6   13 ar    
   15    6   20 1     
   16    7   14 ar    
   17    7   21 1     
   18    8   15 1     
   19    8   22 1     
   20   10   15 1     
   21   10   23 1     
   22   12   24 1     
   23   12   25 1     
   24   12   26 1     
   25   13   16 ar    
   26   13   27 1     
   27   14   16 ar    
   28   14   28 1     
   29   15   17 2     
   30   16   29 1     
@<TRIPOS>SUBSTRUCTURE
      1 RES1           1
@<TRIPOS>SET
DONOR_HYDROGENS      STATIC     ATOMS    <user>   **** ""
2 22 23
ATOM$RED        STATIC     ATOMS    COLORGROUP SYSTEM
2 22 23
@<TRIPOS>COMMENT
> <Gold.Version>
2022.3.0

> <Gold.Id.Protein>
unknown|5adg_clean|pdb

> <Gold.Protein.RotatedTorsions>
[ 5561 5545 5544 5541 ] final  -94.51 input   60.03 | X-H torsion
[ 12885 12857 12856 12854 ] final  133.43 input   60.00 | X-H torsion
[ 9097 9067 9066 9064 ] final   90.02 input   60.02 | X-H torsion
[ 8993 8977 8976 8973 ] final  -59.23 input   60.01 | X-H torsion

> <Gold.Protein.ActiveResidues>
 TRP311  MET341  HIS342  TRP414  ALA417  ARG419  CYS420  VAL421  GLY422  LEU460 
 SER462  SER482  GLN483  ARG486  ALA502  ASN503  TYR567  GLY568  LEU569  PRO570 
 ALA571  VAL572  SER573  ASN574  MET575  LEU576  PHE589  SER590  GLY591  TRP592 
 TYR593  MET594  GLY595  GLU597  ILE598  ARG601  ARG608  ILE653  VAL654  TRP683 
 PHE709  GLU710  TYR711  GLN712  ASP714  HEM750  H4B760 

> <Gold.Protein.RotatedAtoms>
  128.7928  249.4686  362.8787 H   0  0  0  0  0  0  0  0  0  0  0  0  # atno 5561 bound_to 5545
  115.4466  245.4859  368.8011 H   0  0  0  0  0  0  0  0  0  0  0  0  # atno 8993 bound_to 8977
  122.4839  241.7428  361.6520 H   0  0  0  0  0  0  0  0  0  0  0  0  # atno 9097 bound_to 9067
  119.8471  254.4515  354.2254 H   0  0  0  0  0  0  0  0  0  0  0  0  # atno 12885 bound_to 12857
  127.7458  248.9659  361.7386 LP  0  0  0  0  0  0  0  0  0  0  0  0  # atno 13468 bound_to 5545
  127.4244  248.7050  363.3183 LP  0  0  0  0  0  0  0  0  0  0  0  0  # atno 13469 bound_to 5545
  120.5816  253.5485  355.3628 LP  0  0  0  0  0  0  0  0  0  0  0  0  # atno 13474 bound_to 12857
  121.4395  254.1379  354.1045 LP  0  0  0  0  0  0  0  0  0  0  0  0  # atno 13475 bound_to 12857
  123.1859  241.2284  360.2768 LP  0  0  0  0  0  0  0  0  0  0  0  0  # atno 13500 bound_to 9067
  123.2945  240.3316  361.6372 LP  0  0  0  0  0  0  0  0  0  0  0  0  # atno 13501 bound_to 9067
  116.1291  244.0372  369.0912 LP  0  0  0  0  0  0  0  0  0  0  0  0  # atno 13514 bound_to 8977
  114.8153  244.1457  368.1274 LP  0  0  0  0  0  0  0  0  0  0  0  0  # atno 13515 bound_to 8977

> <Gold.Score>
     Fitness  S(hb_ext) S(vdw_ext)  S(hb_int)    S(int)      intcor
     36.23       4.87      23.94       0.00      -1.55      -0.76

> <Gold.Goldscore.Fitness>
36.2304

> <Gold.Goldscore.Internal.Vdw>
-1.7683

> <Gold.Goldscore.Internal.Torsion>
-0.5431

> <Gold.Goldscore.External.Vdw>
23.9352

> <Gold.Goldscore.Internal.HBond>
0.0000

> <Gold.Goldscore.External.HBond>
4.8659

> <Gold.Goldscore.Internal.Correction>
-0.7650

> <Gold.Goldscore.Hbonds>
donor molecule, donor type, donor heavy atom, donor atom, acceptor molecule, acceptor atom, score
      P1  H  9508  9544       L1    17  0.59
      L1  H    10    23       P1  9067  0.65

> <Gold.Goldscore.Internal.Vdw.Weighted>
-1.7683

> <Gold.Goldscore.Internal.Torsion.Weighted>
-0.5431

> <Gold.Goldscore.External.Vdw.Weighted>
32.9109

> <Gold.Goldscore.Internal.HBond.Weighted>
0.0000

> <Gold.Goldscore.External.HBond.Weighted>
4.8659

> <Gold.Goldscore.Internal.Correction.Weighted>
-0.7650

> <Gold.Rescore>
     Score     S(PLP)   S(hbond)     S(cho)   S(metal)  DE(clash)   DE(tors)     intcor
     21.37     -21.38       0.86       0.00       0.00       1.94       0.33       ----

> <Gold.PLP.Fitness>
21.3706

> <Gold.PLP.PLP>
-21.3771

> <Gold.PLP.part.hbond>
-3.2520

> <Gold.PLP.part.metal>
0.0000

> <Gold.PLP.part.buried>
-2.7469

> <Gold.PLP.part.nonpolar>
-18.0747

> <Gold.PLP.part.repulsive>
1.2163

> <Gold.PLP.ligand.clash>
1.9375

> <Gold.PLP.ligand.torsion>
0.3304

> <Gold.PLP.Chemscore.Hbond>
0.8640

> <Gold.PLP.Chemscore.CHOScore>
0.0000

> <Gold.PLP.Chemscore.Metal>
0.0000

> <Gold.Chemscore.Hbonds>
donor molecule, donor type, donor heavy atom, donor atom, acceptor molecule, acceptor atom, score
      L1  H    10    23       P1  9067  0.34
      P1  H  9508  9544       L1    17  0.16

> <Gold.PLP.Chemscore.Internal.Correction>
   9.000000E+99

#       Name:                CT1002167954
#       Creating user name   hitesit
#       Creation time:       Sun Apr 16 22:51:06 2023


#       File generated by GOLD software.
#

@<TRIPOS>MOLECULE
CT1002167954|ligand_prepared|mol2|1|dock1
    29    30     1
SMALL
NO_CHARGES


@<TRIPOS>ATOM
      1 C1         122.1664 248.4433 358.0566 C.3            1 RES1               0.0000
      2 C2         120.9409 247.5600 358.3677 C.ar           1 RES1               0.0000
      3 C3         121.6588 249.5886 357.1854 C.2            1 RES1               0.0000
      4 C4         122.7254 248.8871 359.4039 C.2            1 RES1               0.0000
      5 C5         123.2904 247.7058 357.2924 C.3            1 RES1               0.0000
      6 C6         121.0950 246.2028 358.6339 C.ar           1 RES1               0.0000
      7 C7         119.6527 248.0876 358.3946 C.ar           1 RES1               0.0000
      8 N8         121.5489 250.8199 357.7614 N.am           1 RES1               0.0000
      9 O9         121.3227 249.4059 356.0218 O.2            1 RES1               0.0000
     10 N10        122.6709 250.2208 359.7139 N.am           1 RES1               0.0000
     11 O11        123.1976 248.0917 360.2068 O.2            1 RES1               0.0000
     12 C12        124.3522 248.6315 356.7199 C.3            1 RES1               0.0000
     13 C13        120.0013 245.4025 358.9197 C.ar           1 RES1               0.0000
     14 C14        118.5603 247.2854 358.6804 C.ar           1 RES1               0.0000
     15 C15        122.0801 251.2031 358.9667 C.2            1 RES1               0.0000
     16 C16        118.7334 245.9432 358.9436 C.ar           1 RES1               0.0000
     17 O17        122.0231 252.3719 359.3379 O.2            1 RES1               0.0000
     18 H18        123.7726 246.9942 357.9740 H              1 RES1               0.0000
     19 H19        122.8421 247.1326 356.4715 H              1 RES1               0.0000
     20 H20        122.0849 245.7590 358.6173 H              1 RES1               0.0000
     21 H21        119.4925 249.1406 358.1896 H              1 RES1               0.0000
     22 H22        121.0231 251.5205 357.2486 H              1 RES1               0.0000
     23 H23        123.1116 250.5079 360.5820 H              1 RES1               0.0000
     24 H24        125.1166 248.0632 356.1941 H              1 RES1               0.0000
     25 H25        123.9115 249.3367 356.0183 H              1 RES1               0.0000
     26 H26        124.8366 249.1991 357.5118 H              1 RES1               0.0000
     27 H27        120.1428 244.3465 359.1248 H              1 RES1               0.0000
     28 H28        117.5642 247.7152 358.6974 H              1 RES1               0.0000
     29 H29        117.8768 245.3162 359.1678 H              1 RES1               0.0000
@<TRIPOS>BOND
    1    1    2 1     
    2    1    3 1     
    3    1    4 1     
    4    1    5 1     
    5    2    6 ar    
    6    2    7 ar    
    7    3    8 1     
    8    3    9 2     
    9    4   10 1     
   10    4   11 2     
   11    5   12 1     
   12    5   18 1     
   13    5   19 1     
   14    6   13 ar    
   15    6   20 1     
   16    7   14 ar    
   17    7   21 1     
   18    8   15 1     
   19    8   22 1     
   20   10   15 1     
   21   10   23 1     
   22   12   24 1     
   23   12   25 1     
   24   12   26 1     
   25   13   16 ar    
   26   13   27 1     
   27   14   16 ar    
   28   14   28 1     
   29   15   17 2     
   30   16   29 1     
@<TRIPOS>SUBSTRUCTURE
      1 RES1           1
@<TRIPOS>SET
DONOR_HYDROGENS      STATIC     ATOMS    <user>   **** ""
2 22 23
ATOM$RED        STATIC     ATOMS    COLORGROUP SYSTEM
2 22 23
@<TRIPOS>COMMENT
> <Gold.Version>
2022.3.0

> <Gold.Id.Protein>
unknown|5adg_clean|pdb

> <Gold.Protein.RotatedTorsions>
[ 5561 5545 5544 5541 ] final -168.79 input   60.03 | X-H torsion
[ 12885 12857 12856 12854 ] final   11.37 input   60.00 | X-H torsion
[ 9097 9067 9066 9064 ] final   45.94 input   60.02 | X-H torsion
[ 8993 8977 8976 8973 ] final -105.48 input   60.01 | X-H torsion

> <Gold.Protein.ActiveResidues>
 TRP311  MET341  HIS342  TRP414  ALA417  ARG419  CYS420  VAL421  GLY422  LEU460 
 SER462  SER482  GLN483  ARG486  ALA502  ASN503  TYR567  GLY568  LEU569  PRO570 
 ALA571  VAL572  SER573  ASN574  MET575  LEU576  PHE589  SER590  GLY591  TRP592 
 TYR593  MET594  GLY595  GLU597  ILE598  ARG601  ARG608  ILE653  VAL654  TRP683 
 PHE709  GLU710  TYR711  GLN712  ASP714  HEM750  H4B760 

> <Gold.Protein.RotatedAtoms>
  128.3841  249.3063  361.8369 H   0  0  0  0  0  0  0  0  0  0  0  0  # atno 5561 bound_to 5545
  115.9964  245.1549  369.1605 H   0  0  0  0  0  0  0  0  0  0  0  0  # atno 8993 bound_to 8977
  122.5819  241.9200  360.9790 H   0  0  0  0  0  0  0  0  0  0  0  0  # atno 9097 bound_to 9067
  120.6151  253.5472  355.3552 H   0  0  0  0  0  0  0  0  0  0  0  0  # atno 12885 bound_to 12857
  127.1597  248.5999  362.6435 LP  0  0  0  0  0  0  0  0  0  0  0  0  # atno 13468 bound_to 5545
  128.4221  249.2344  363.4624 LP  0  0  0  0  0  0  0  0  0  0  0  0  # atno 13469 bound_to 5545
  121.4236  254.1567  354.0810 LP  0  0  0  0  0  0  0  0  0  0  0  0  # atno 13474 bound_to 12857
  119.8242  254.4404  354.2484 LP  0  0  0  0  0  0  0  0  0  0  0  0  # atno 13475 bound_to 12857
  123.4562  240.6240  360.5265 LP  0  0  0  0  0  0  0  0  0  0  0  0  # atno 13500 bound_to 9067
  122.9255  240.7576  362.0651 LP  0  0  0  0  0  0  0  0  0  0  0  0  # atno 13501 bound_to 9067
  115.6610  243.6365  368.6804 LP  0  0  0  0  0  0  0  0  0  0  0  0  # atno 13514 bound_to 8977
  114.7298  244.8797  368.1763 LP  0  0  0  0  0  0  0  0  0  0  0  0  # atno 13515 bound_to 8977

> <Gold.Score>
     Fitness  S(hb_ext) S(vdw_ext)  S(hb_int)    S(int)      intcor
     35.95       6.55      21.99       0.00      -0.83      -0.79

> <Gold.Goldscore.Fitness>
35.9521

> <Gold.Goldscore.Internal.Vdw>
-0.9876

> <Gold.Goldscore.Internal.Torsion>
-0.6256

> <Gold.Goldscore.External.Vdw>
21.9880

> <Gold.Goldscore.Internal.HBond>
0.0000

> <Gold.Goldscore.External.HBond>
6.5459

> <Gold.Goldscore.Internal.Correction>
-0.7860

> <Gold.Goldscore.Hbonds>
donor molecule, donor type, donor heavy atom, donor atom, acceptor molecule, acceptor atom, score
      P1  H  5569  5595       L1    11  0.27
      L1  H     8    22       P1 13273  1.00

> <Gold.Goldscore.Internal.Vdw.Weighted>
-0.9876

> <Gold.Goldscore.Internal.Torsion.Weighted>
-0.6256

> <Gold.Goldscore.External.Vdw.Weighted>
30.2334

> <Gold.Goldscore.Internal.HBond.Weighted>
0.0000

> <Gold.Goldscore.External.HBond.Weighted>
6.5459

> <Gold.Goldscore.Internal.Correction.Weighted>
-0.7860

> <Gold.Rescore>
     Score     S(PLP)   S(hbond)     S(cho)   S(metal)  DE(clash)   DE(tors)     intcor
     33.48     -30.82       1.54       0.00       0.00       0.00       0.98       ----

> <Gold.PLP.Fitness>
33.4795

> <Gold.PLP.PLP>
-30.8169

> <Gold.PLP.part.hbond>
-2.0000

> <Gold.PLP.part.metal>
0.0000

> <Gold.PLP.part.buried>
-2.7875

> <Gold.PLP.part.nonpolar>
-28.4227

> <Gold.PLP.part.repulsive>
2.3615

> <Gold.PLP.ligand.clash>
0.0000

> <Gold.PLP.ligand.torsion>
0.9831

> <Gold.PLP.Chemscore.Hbond>
1.5429

> <Gold.PLP.Chemscore.CHOScore>
0.0000

> <Gold.PLP.Chemscore.Metal>
0.0000

> <Gold.Chemscore.Hbonds>
donor molecule, donor type, donor heavy atom, donor atom, acceptor molecule, acceptor atom, score
      L1  H     8    22       P1 13273  1.00
      P1  H  5569  5595       L1    11  0.86

> <Gold.PLP.Chemscore.Internal.Correction>
   9.000000E+99

#       Name:                CT1002167954
#       Creating user name   hitesit
#       Creation time:       Sun Apr 16 22:51:07 2023


#       File generated by GOLD software.
#

@<TRIPOS>MOLECULE
CT1002167954|ligand_prepared|mol2|1|dock2
    29    30     1
SMALL
NO_CHARGES


@<TRIPOS>ATOM
      1 C1         121.9955 248.7841 358.6706 C.3            1 RES1               0.0000
      2 C2         120.8020 247.8172 358.8102 C.ar           1 RES1               0.0000
      3 C3         121.5783 249.8347 357.6458 C.2            1 RES1               0.0000
      4 C4         122.2563 249.3439 360.0646 C.2            1 RES1               0.0000
      5 C5         123.2948 248.1057 358.1775 C.3            1 RES1               0.0000
      6 C6         120.9440 246.6091 359.4862 C.ar           1 RES1               0.0000
      7 C7         119.5544 248.1203 358.2715 C.ar           1 RES1               0.0000
      8 N8         121.2712 251.0807 358.1075 N.am           1 RES1               0.0000
      9 O9         121.4819 249.5633 356.4553 O.2            1 RES1               0.0000
     10 N10        122.0461 250.6825 360.2687 N.am           1 RES1               0.0000
     11 O11        122.6260 248.6347 360.9924 O.2            1 RES1               0.0000
     12 C12        124.4098 249.0848 357.8455 C.3            1 RES1               0.0000
     13 C13        119.8767 245.7368 359.6215 C.ar           1 RES1               0.0000
     14 C14        118.4884 247.2464 358.4077 C.ar           1 RES1               0.0000
     15 C15        121.5359 251.5704 359.3612 C.2            1 RES1               0.0000
     16 C16        118.6482 246.0550 359.0828 C.ar           1 RES1               0.0000
     17 O17        121.3239 252.7480 359.6360 O.2            1 RES1               0.0000
     18 H18        123.6497 247.4163 358.9534 H              1 RES1               0.0000
     19 H19        123.0664 247.5141 357.2823 H              1 RES1               0.0000
     20 H20        121.9039 246.3406 359.9147 H              1 RES1               0.0000
     21 H21        119.4057 249.0514 357.7354 H              1 RES1               0.0000
     22 H22        120.8012 251.7062 357.4608 H              1 RES1               0.0000
     23 H23        122.2929 251.0512 361.1816 H              1 RES1               0.0000
     24 H24        125.2980 248.5569 357.5046 H              1 RES1               0.0000
     25 H25        124.1001 249.7700 357.0591 H              1 RES1               0.0000
     26 H26        124.6799 249.6728 358.7203 H              1 RES1               0.0000
     27 H27        120.0080 244.7998 360.1525 H              1 RES1               0.0000
     28 H28        117.5235 247.5006 357.9816 H              1 RES1               0.0000
     29 H29        117.8122 245.3717 359.1892 H              1 RES1               0.0000
@<TRIPOS>BOND
    1    1    2 1     
    2    1    3 1     
    3    1    4 1     
    4    1    5 1     
    5    2    6 ar    
    6    2    7 ar    
    7    3    8 1     
    8    3    9 2     
    9    4   10 1     
   10    4   11 2     
   11    5   12 1     
   12    5   18 1     
   13    5   19 1     
   14    6   13 ar    
   15    6   20 1     
   16    7   14 ar    
   17    7   21 1     
   18    8   15 1     
   19    8   22 1     
   20   10   15 1     
   21   10   23 1     
   22   12   24 1     
   23   12   25 1     
   24   12   26 1     
   25   13   16 ar    
   26   13   27 1     
   27   14   16 ar    
   28   14   28 1     
   29   15   17 2     
   30   16   29 1     
@<TRIPOS>SUBSTRUCTURE
      1 RES1           1
@<TRIPOS>SET
DONOR_HYDROGENS      STATIC     ATOMS    <user>   **** ""
2 22 23
ATOM$RED        STATIC     ATOMS    COLORGROUP SYSTEM
2 22 23
@<TRIPOS>COMMENT
> <Gold.Version>
2022.3.0

> <Gold.Id.Protein>
unknown|5adg_clean|pdb

> <Gold.Protein.RotatedTorsions>
[ 5561 5545 5544 5541 ] final -178.90 input   60.03 | X-H torsion
[ 12885 12857 12856 12854 ] final   -8.26 input   60.00 | X-H torsion
[ 9097 9067 9066 9064 ] final   49.32 input   60.02 | X-H torsion
[ 8993 8977 8976 8973 ] final -179.42 input   60.01 | X-H torsion

> <Gold.Protein.ActiveResidues>
 TRP311  MET341  HIS342  TRP414  ALA417  ARG419  CYS420  VAL421  GLY422  LEU460 
 SER462  SER482  GLN483  ARG486  ALA502  ASN503  TYR567  GLY568  LEU569  PRO570 
 ALA571  VAL572  SER573  ASN574  MET575  LEU576  PHE589  SER590  GLY591  TRP592 
 TYR593  MET594  GLY595  GLU597  ILE598  ARG601  ARG608  ILE653  VAL654  TRP683 
 PHE709  GLU710  TYR711  GLN712  ASP714  HEM750  H4B760 

> <Gold.Protein.RotatedAtoms>
  128.2510  249.2385  361.7671 H   0  0  0  0  0  0  0  0  0  0  0  0  # atno 5561 bound_to 5545
  116.1248  244.0385  369.0850 H   0  0  0  0  0  0  0  0  0  0  0  0  # atno 8993 bound_to 8977
  122.5647  241.9230  361.0314 H   0  0  0  0  0  0  0  0  0  0  0  0  # atno 9097 bound_to 9067
  120.9236  253.5216  355.2770 H   0  0  0  0  0  0  0  0  0  0  0  0  # atno 12885 bound_to 12857
  127.1761  248.5996  362.8088 LP  0  0  0  0  0  0  0  0  0  0  0  0  # atno 13468 bound_to 5545
  128.5398  249.3031  363.3675 LP  0  0  0  0  0  0  0  0  0  0  0  0  # atno 13469 bound_to 5545
  121.2235  254.3245  353.8935 LP  0  0  0  0  0  0  0  0  0  0  0  0  # atno 13474 bound_to 12857
  119.7135  254.2984  354.5147 LP  0  0  0  0  0  0  0  0  0  0  0  0  # atno 13475 bound_to 12857
  123.4436  240.6646  360.4907 LP  0  0  0  0  0  0  0  0  0  0  0  0  # atno 13500 bound_to 9067
  122.9554  240.7138  362.0482 LP  0  0  0  0  0  0  0  0  0  0  0  0  # atno 13501 bound_to 9067
  114.8140  244.1485  368.1269 LP  0  0  0  0  0  0  0  0  0  0  0  0  # atno 13514 bound_to 8977
  115.4476  245.4917  368.8059 LP  0  0  0  0  0  0  0  0  0  0  0  0  # atno 13515 bound_to 8977

> <Gold.Score>
     Fitness  S(hb_ext) S(vdw_ext)  S(hb_int)    S(int)      intcor
     35.69       6.52      22.27       0.00      -1.46      -0.79

> <Gold.Goldscore.Fitness>
35.6861

> <Gold.Goldscore.Internal.Vdw>
-1.7598

> <Gold.Goldscore.Internal.Torsion>
-0.4855

> <Gold.Goldscore.External.Vdw>
22.2723

> <Gold.Goldscore.Internal.HBond>
0.0000

> <Gold.Goldscore.External.HBond>
6.5211

> <Gold.Goldscore.Internal.Correction>
-0.7860

> <Gold.Goldscore.Hbonds>
donor molecule, donor type, donor heavy atom, donor atom, acceptor molecule, acceptor atom, score
      P1  H  5569  5595       L1    11  0.26
      L1  H     8    22       P1 13273  1.00

> <Gold.Goldscore.Internal.Vdw.Weighted>
-1.7598

> <Gold.Goldscore.Internal.Torsion.Weighted>
-0.4855

> <Gold.Goldscore.External.Vdw.Weighted>
30.6244

> <Gold.Goldscore.Internal.HBond.Weighted>
0.0000

> <Gold.Goldscore.External.HBond.Weighted>
6.5211

> <Gold.Goldscore.Internal.Correction.Weighted>
-0.7860

> <Gold.Rescore>
     Score     S(PLP)   S(hbond)     S(cho)   S(metal)  DE(clash)   DE(tors)     intcor
     32.15     -28.44       1.81       0.00       0.00       0.00       0.86       ----

> <Gold.PLP.Fitness>
32.1473

> <Gold.PLP.PLP>
-28.4353

> <Gold.PLP.part.hbond>
-2.0000

> <Gold.PLP.part.metal>
0.0000

> <Gold.PLP.part.buried>
-2.5234

> <Gold.PLP.part.nonpolar>
-27.6765

> <Gold.PLP.part.repulsive>
3.2200

> <Gold.PLP.ligand.clash>
0.0000

> <Gold.PLP.ligand.torsion>
0.8560

> <Gold.PLP.Chemscore.Hbond>
1.8080

> <Gold.PLP.Chemscore.CHOScore>
0.0000

> <Gold.PLP.Chemscore.Metal>
0.0000

> <Gold.Chemscore.Hbonds>
donor molecule, donor type, donor heavy atom, donor atom, acceptor molecule, acceptor atom, score
      L1  H     8    22       P1 13273  0.99

> <Gold.PLP.Chemscore.Internal.Correction>
   9.000000E+99

#       Name:                CT1002167954
#       Creating user name   hitesit
#       Creation time:       Sun Apr 16 22:51:10 2023


#       File generated by GOLD software.
#

@<TRIPOS>MOLECULE
CT1002167954|ligand_prepared|mol2|1|dock5
    29    30     1
SMALL
NO_CHARGES


@<TRIPOS>ATOM
      1 C1         123.2822 244.3202 357.4603 C.3            1 RES1               0.0000
      2 C2         122.0399 244.7356 358.2744 C.ar           1 RES1               0.0000
      3 C3         124.3641 245.3493 357.7743 C.2            1 RES1               0.0000
      4 C4         123.6262 242.9017 357.9009 C.2            1 RES1               0.0000
      5 C5         123.0501 244.3024 355.9314 C.3            1 RES1               0.0000
      6 C6         121.1385 245.6663 357.7664 C.ar           1 RES1               0.0000
      7 C7         121.7809 244.1959 359.5315 C.ar           1 RES1               0.0000
      8 N8         125.3890 244.9610 358.5860 N.am           1 RES1               0.0000
      9 O9         124.2983 246.4959 357.3485 O.2            1 RES1               0.0000
     10 N10        124.8102 242.7040 358.5620 N.am           1 RES1               0.0000
     11 O11        122.8750 241.9561 357.6964 O.2            1 RES1               0.0000
     12 C12        124.1415 243.5839 355.1539 C.3            1 RES1               0.0000
     13 C13        120.0172 246.0416 358.4876 C.ar           1 RES1               0.0000
     14 C14        120.6591 244.5728 360.2511 C.ar           1 RES1               0.0000
     15 C15        125.6928 243.6743 358.9516 C.2            1 RES1               0.0000
     16 C16        119.7765 245.4949 359.7301 C.ar           1 RES1               0.0000
     17 O17        126.7103 243.4240 359.5913 O.2            1 RES1               0.0000
     18 H18        122.0898 243.8137 355.7257 H              1 RES1               0.0000
     19 H19        122.9835 245.3369 355.5724 H              1 RES1               0.0000
     20 H20        121.3126 246.1090 356.7914 H              1 RES1               0.0000
     21 H21        122.4620 243.4696 359.9617 H              1 RES1               0.0000
     22 H22        125.9845 245.6953 358.9554 H              1 RES1               0.0000
     23 H23        125.0564 241.7446 358.7841 H              1 RES1               0.0000
     24 H24        123.9298 243.6007 354.0868 H              1 RES1               0.0000
     25 H25        125.1069 244.0592 355.3153 H              1 RES1               0.0000
     26 H26        124.2185 242.5450 355.4678 H              1 RES1               0.0000
     27 H27        119.3264 246.7687 358.0736 H              1 RES1               0.0000
     28 H28        120.4739 244.1405 361.2289 H              1 RES1               0.0000
     29 H29        118.8978 245.7888 360.2947 H              1 RES1               0.0000
@<TRIPOS>BOND
    1    1    2 1     
    2    1    3 1     
    3    1    4 1     
    4    1    5 1     
    5    2    6 ar    
    6    2    7 ar    
    7    3    8 1     
    8    3    9 2     
    9    4   10 1     
   10    4   11 2     
   11    5   12 1     
   12    5   18 1     
   13    5   19 1     
   14    6   13 ar    
   15    6   20 1     
   16    7   14 ar    
   17    7   21 1     
   18    8   15 1     
   19    8   22 1     
   20   10   15 1     
   21   10   23 1     
   22   12   24 1     
   23   12   25 1     
   24   12   26 1     
   25   13   16 ar    
   26   13   27 1     
   27   14   16 ar    
   28   14   28 1     
   29   15   17 2     
   30   16   29 1     
@<TRIPOS>SUBSTRUCTURE
      1 RES1           1
@<TRIPOS>SET
DONOR_HYDROGENS      STATIC     ATOMS    <user>   **** ""
2 22 23
ATOM$RED        STATIC     ATOMS    COLORGROUP SYSTEM
2 22 23
@<TRIPOS>COMMENT
> <Gold.Version>
2022.3.0

> <Gold.Id.Protein>
unknown|5adg_clean|pdb

> <Gold.Protein.RotatedTorsions>
[ 5561 5545 5544 5541 ] final   57.61 input   60.03 | X-H torsion
[ 12885 12857 12856 12854 ] final   72.45 input   60.00 | X-H torsion
[ 9097 9067 9066 9064 ] final  -65.27 input   60.02 | X-H torsion
[ 8993 8977 8976 8973 ] final   31.91 input   60.01 | X-H torsion

> <Gold.Protein.ActiveResidues>
 TRP311  MET341  HIS342  TRP414  ALA417  ARG419  CYS420  VAL421  GLY422  LEU460 
 SER462  SER482  GLN483  ARG486  ALA502  ASN503  TYR567  GLY568  LEU569  PRO570 
 ALA571  VAL572  SER573  ASN574  MET575  LEU576  PHE589  SER590  GLY591  TRP592 
 TYR593  MET594  GLY595  GLU597  ILE598  ARG601  ARG608  ILE653  VAL654  TRP683 
 PHE709  GLU710  TYR711  GLN712  ASP714  HEM750  H4B760 

> <Gold.Protein.RotatedAtoms>
  127.1923  248.6073  362.8635 H   0  0  0  0  0  0  0  0  0  0  0  0  # atno 5561 bound_to 5545
  114.7118  244.6023  368.1171 H   0  0  0  0  0  0  0  0  0  0  0  0  # atno 8993 bound_to 8977
  123.4154  240.7343  360.4429 H   0  0  0  0  0  0  0  0  0  0  0  0  # atno 9097 bound_to 9067
  119.8156  253.9481  355.0307 H   0  0  0  0  0  0  0  0  0  0  0  0  # atno 12885 bound_to 12857
  128.5767  249.3251  363.3292 LP  0  0  0  0  0  0  0  0  0  0  0  0  # atno 13468 bound_to 5545
  128.2053  249.2131  361.7430 LP  0  0  0  0  0  0  0  0  0  0  0  0  # atno 13469 bound_to 5545
  121.4086  253.6459  354.8915 LP  0  0  0  0  0  0  0  0  0  0  0  0  # atno 13474 bound_to 12857
  120.6443  254.5474  353.7647 LP  0  0  0  0  0  0  0  0  0  0  0  0  # atno 13475 bound_to 12857
  123.0035  240.6466  362.0149 LP  0  0  0  0  0  0  0  0  0  0  0  0  # atno 13500 bound_to 9067
  122.5390  241.9287  361.1165 LP  0  0  0  0  0  0  0  0  0  0  0  0  # atno 13501 bound_to 9067
  115.8133  245.3458  369.0564 LP  0  0  0  0  0  0  0  0  0  0  0  0  # atno 13514 bound_to 8977
  115.8709  243.7268  368.8508 LP  0  0  0  0  0  0  0  0  0  0  0  0  # atno 13515 bound_to 8977

> <Gold.Score>
     Fitness  S(hb_ext) S(vdw_ext)  S(hb_int)    S(int)      intcor
     33.64       0.13      24.92       0.00      -0.75      -0.76

> <Gold.Goldscore.Fitness>
33.6412

> <Gold.Goldscore.Internal.Vdw>
-0.8540

> <Gold.Goldscore.Internal.Torsion>
-0.6604

> <Gold.Goldscore.External.Vdw>
24.9151

> <Gold.Goldscore.Internal.HBond>
0.0000

> <Gold.Goldscore.External.HBond>
0.1325

> <Gold.Goldscore.Internal.Correction>
-0.7650

> <Gold.Goldscore.Hbonds>
donor molecule, donor type, donor heavy atom, donor atom, acceptor molecule, acceptor atom, score
      P1  H  9508  9544       L1    17  0.02

> <Gold.Goldscore.Internal.Vdw.Weighted>
-0.8540

> <Gold.Goldscore.Internal.Torsion.Weighted>
-0.6604

> <Gold.Goldscore.External.Vdw.Weighted>
34.2582

> <Gold.Goldscore.Internal.HBond.Weighted>
0.0000

> <Gold.Goldscore.External.HBond.Weighted>
0.1325

> <Gold.Goldscore.Internal.Correction.Weighted>
-0.7650

> <Gold.Rescore>
     Score     S(PLP)   S(hbond)     S(cho)   S(metal)  DE(clash)   DE(tors)     intcor
     23.57     -23.90       0.47       0.00       0.00       1.08       0.32       ----

> <Gold.PLP.Fitness>
23.5738

> <Gold.PLP.PLP>
-23.8958

> <Gold.PLP.part.hbond>
-3.9580

> <Gold.PLP.part.metal>
0.0000

> <Gold.PLP.part.buried>
4.5031

> <Gold.PLP.part.nonpolar>
-29.5591

> <Gold.PLP.part.repulsive>
2.7950

> <Gold.PLP.ligand.clash>
1.0811

> <Gold.PLP.ligand.torsion>
0.3224

> <Gold.PLP.Chemscore.Hbond>
0.4680

> <Gold.PLP.Chemscore.CHOScore>
0.0000

> <Gold.PLP.Chemscore.Metal>
0.0000

> <Gold.Chemscore.Hbonds>
donor molecule, donor type, donor heavy atom, donor atom, acceptor molecule, acceptor atom, score
      P1  H  5682  5713       L1    17  0.10
      P1  H  9508  9544       L1    17  0.37

> <Gold.PLP.Chemscore.Internal.Correction>
   9.000000E+99

#       Name:                CT1002167954
#       Creating user name   hitesit
#       Creation time:       Sun Apr 16 22:51:13 2023


#       File generated by GOLD software.
#

@<TRIPOS>MOLECULE
CT1002167954|ligand_prepared|mol2|1|dock9
    29    30     1
SMALL
NO_CHARGES


@<TRIPOS>ATOM
      1 C1         123.6739 245.6715 355.6799 C.3            1 RES1               0.0000
      2 C2         122.7676 245.9448 356.8976 C.ar           1 RES1               0.0000
      3 C3         123.3058 244.2792 355.1757 C.2            1 RES1               0.0000
      4 C4         123.3945 246.7889 354.6809 C.2            1 RES1               0.0000
      5 C5         125.1849 245.6913 356.0087 C.3            1 RES1               0.0000
      6 C6         121.7599 245.0504 357.2458 C.ar           1 RES1               0.0000
      7 C7         122.9286 247.0835 357.6824 C.ar           1 RES1               0.0000
      8 N8         122.5839 244.1955 354.0218 N.am           1 RES1               0.0000
      9 O9         123.6104 243.2716 355.8021 O.2            1 RES1               0.0000
     10 N10        122.8101 246.4524 353.4880 N.am           1 RES1               0.0000
     11 O11        123.6600 247.9599 354.9227 O.2            1 RES1               0.0000
     12 C12        126.0791 245.7416 354.7798 C.3            1 RES1               0.0000
     13 C13        120.9445 245.2843 358.3407 C.ar           1 RES1               0.0000
     14 C14        122.1120 247.3156 358.7768 C.ar           1 RES1               0.0000
     15 C15        122.3640 245.2106 353.1257 C.2            1 RES1               0.0000
     16 C16        121.1202 246.4167 359.1071 C.ar           1 RES1               0.0000
     17 O17        121.7987 244.9971 352.0571 O.2            1 RES1               0.0000
     18 H18        125.3982 246.5652 356.6366 H              1 RES1               0.0000
     19 H19        125.4319 244.7934 356.5885 H              1 RES1               0.0000
     20 H20        121.6051 244.1550 356.6530 H              1 RES1               0.0000
     21 H21        123.7017 247.8050 357.4408 H              1 RES1               0.0000
     22 H22        122.1690 243.2948 353.8050 H              1 RES1               0.0000
     23 H23        122.6972 247.1965 352.8070 H              1 RES1               0.0000
     24 H24        127.1285 245.7537 355.0667 H              1 RES1               0.0000
     25 H25        125.9114 244.8740 354.1450 H              1 RES1               0.0000
     26 H26        125.8779 246.6353 354.1927 H              1 RES1               0.0000
     27 H27        120.1646 244.5744 358.5956 H              1 RES1               0.0000
     28 H28        122.2535 248.2085 359.3769 H              1 RES1               0.0000
     29 H29        120.4816 246.5995 359.9650 H              1 RES1               0.0000
@<TRIPOS>BOND
    1    1    2 1     
    2    1    3 1     
    3    1    4 1     
    4    1    5 1     
    5    2    6 ar    
    6    2    7 ar    
    7    3    8 1     
    8    3    9 2     
    9    4   10 1     
   10    4   11 2     
   11    5   12 1     
   12    5   18 1     
   13    5   19 1     
   14    6   13 ar    
   15    6   20 1     
   16    7   14 ar    
   17    7   21 1     
   18    8   15 1     
   19    8   22 1     
   20   10   15 1     
   21   10   23 1     
   22   12   24 1     
   23   12   25 1     
   24   12   26 1     
   25   13   16 ar    
   26   13   27 1     
   27   14   16 ar    
   28   14   28 1     
   29   15   17 2     
   30   16   29 1     
@<TRIPOS>SUBSTRUCTURE
      1 RES1           1
@<TRIPOS>SET
DONOR_HYDROGENS      STATIC     ATOMS    <user>   **** ""
2 22 23
ATOM$RED        STATIC     ATOMS    COLORGROUP SYSTEM
2 22 23
@<TRIPOS>COMMENT
> <Gold.Version>
2022.3.0

> <Gold.Id.Protein>
unknown|5adg_clean|pdb

> <Gold.Protein.RotatedTorsions>
[ 5561 5545 5544 5541 ] final  -11.97 input   60.03 | X-H torsion
[ 12885 12857 12856 12854 ] final  -18.83 input   60.00 | X-H torsion
[ 9097 9067 9066 9064 ] final   22.70 input   60.02 | X-H torsion
[ 8993 8977 8976 8973 ] final  110.88 input   60.01 | X-H torsion

> <Gold.Protein.ActiveResidues>
 TRP311  MET341  HIS342  TRP414  ALA417  ARG419  CYS420  VAL421  GLY422  LEU460 
 SER462  SER482  GLN483  ARG486  ALA502  ASN503  TYR567  GLY568  LEU569  PRO570 
 ALA571  VAL572  SER573  ASN574  MET575  LEU576  PHE589  SER590  GLY591  TRP592 
 TYR593  MET594  GLY595  GLU597  ILE598  ARG601  ARG608  ILE653  VAL654  TRP683 
 PHE709  GLU710  TYR711  GLN712  ASP714  HEM750  H4B760 

> <Gold.Protein.RotatedAtoms>
  127.9106  248.9548  363.5742 H   0  0  0  0  0  0  0  0  0  0  0  0  # atno 5561 bound_to 5545
  115.3529  243.6558  368.4503 H   0  0  0  0  0  0  0  0  0  0  0  0  # atno 8993 bound_to 8977
  122.7347  241.8234  360.6480 H   0  0  0  0  0  0  0  0  0  0  0  0  # atno 9097 bound_to 9067
  121.0773  253.5333  355.1995 H   0  0  0  0  0  0  0  0  0  0  0  0  # atno 12885 bound_to 12857
  128.7452  249.4743  362.2771 LP  0  0  0  0  0  0  0  0  0  0  0  0  # atno 13468 bound_to 5545
  127.3135  248.7141  362.0794 LP  0  0  0  0  0  0  0  0  0  0  0  0  # atno 13469 bound_to 5545
  121.0849  254.4025  353.8237 LP  0  0  0  0  0  0  0  0  0  0  0  0  # atno 13474 bound_to 12857
  119.6973  254.2085  354.6625 LP  0  0  0  0  0  0  0  0  0  0  0  0  # atno 13475 bound_to 12857
  123.4966  240.3965  360.8279 LP  0  0  0  0  0  0  0  0  0  0  0  0  # atno 13500 bound_to 9067
  122.7312  241.0823  362.0970 LP  0  0  0  0  0  0  0  0  0  0  0  0  # atno 13501 bound_to 9067
  114.8695  245.2051  368.3305 LP  0  0  0  0  0  0  0  0  0  0  0  0  # atno 13514 bound_to 8977
  116.1692  244.8204  369.2413 LP  0  0  0  0  0  0  0  0  0  0  0  0  # atno 13515 bound_to 8977

> <Gold.Score>
     Fitness  S(hb_ext) S(vdw_ext)  S(hb_int)    S(int)      intcor
     31.07       6.00      21.13       0.00      -3.99      -0.76

> <Gold.Goldscore.Fitness>
31.0731

> <Gold.Goldscore.Internal.Vdw>
-4.1180

> <Gold.Goldscore.Internal.Torsion>
-0.6338

> <Gold.Goldscore.External.Vdw>
21.1346

> <Gold.Goldscore.Internal.HBond>
0.0000

> <Gold.Goldscore.External.HBond>
6.0000

> <Gold.Goldscore.Internal.Correction>
-0.7650

> <Gold.Goldscore.Hbonds>
donor molecule, donor type, donor heavy atom, donor atom, acceptor molecule, acceptor atom, score
      L1  H    10    23       P1 13407  1.00

> <Gold.Goldscore.Internal.Vdw.Weighted>
-4.1180

> <Gold.Goldscore.Internal.Torsion.Weighted>
-0.6338

> <Gold.Goldscore.External.Vdw.Weighted>
29.0600

> <Gold.Goldscore.Internal.HBond.Weighted>
0.0000

> <Gold.Goldscore.External.HBond.Weighted>
6.0000

> <Gold.Goldscore.Internal.Correction.Weighted>
-0.7650

> <Gold.Rescore>
     Score     S(PLP)   S(hbond)     S(cho)   S(metal)  DE(clash)   DE(tors)     intcor
     16.70     -17.34       0.64       0.00       0.00       1.29       0.63       ----

> <Gold.PLP.Fitness>
16.7041

> <Gold.PLP.PLP>
-17.3424

> <Gold.PLP.part.hbond>
-2.2993

> <Gold.PLP.part.metal>
0.0000

> <Gold.PLP.part.buried>
-2.3622

> <Gold.PLP.part.nonpolar>
-14.7329

> <Gold.PLP.part.repulsive>
1.5206

> <Gold.PLP.ligand.clash>
1.2910

> <Gold.PLP.ligand.torsion>
0.6337

> <Gold.PLP.Chemscore.Hbond>
0.6400

> <Gold.PLP.Chemscore.CHOScore>
0.0000

> <Gold.PLP.Chemscore.Metal>
0.0000

> <Gold.Chemscore.Hbonds>
donor molecule, donor type, donor heavy atom, donor atom, acceptor molecule, acceptor atom, score
      L1  H    10    23       P1 13407  0.99
      P1  H  9297  9320       L1    17  0.06

> <Gold.PLP.Chemscore.Internal.Correction>
   9.000000E+99

#       Name:                CT1002167954
#       Creating user name   hitesit
#       Creation time:       Sun Apr 16 22:51:12 2023


#       File generated by GOLD software.
#

@<TRIPOS>MOLECULE
CT1002167954|ligand_prepared|mol2|1|dock8
    29    30     1
SMALL
NO_CHARGES


@<TRIPOS>ATOM
      1 C1         126.5067 249.7530 353.7917 C.3            1 RES1               0.0000
      2 C2         125.9980 251.0399 354.4728 C.ar           1 RES1               0.0000
      3 C3         125.2706 249.0298 353.2650 C.2            1 RES1               0.0000
      4 C4         127.4764 250.2008 352.7037 C.2            1 RES1               0.0000
      5 C5         127.2648 248.7996 354.7445 C.3            1 RES1               0.0000
      6 C6         124.7424 251.5555 354.1655 C.ar           1 RES1               0.0000
      7 C7         126.7705 251.7199 355.4106 C.ar           1 RES1               0.0000
      8 N8         125.0502 249.0536 351.9193 N.am           1 RES1               0.0000
      9 O9         124.4802 248.4807 354.0226 O.2            1 RES1               0.0000
     10 N10        127.1302 249.9660 351.3988 N.am           1 RES1               0.0000
     11 O11        128.5294 250.7697 352.9639 O.2            1 RES1               0.0000
     12 C12        127.5595 247.4356 354.1404 C.3            1 RES1               0.0000
     13 C13        124.2747 252.7075 354.7758 C.ar           1 RES1               0.0000
     14 C14        126.3009 252.8719 356.0196 C.ar           1 RES1               0.0000
     15 C15        125.9470 249.4403 350.9561 C.2            1 RES1               0.0000
     16 C16        125.0533 253.3662 355.7035 C.ar           1 RES1               0.0000
     17 O17        125.6866 249.3103 349.7634 O.2            1 RES1               0.0000
     18 H18        128.2127 249.2698 355.0339 H              1 RES1               0.0000
     19 H19        126.6677 248.6612 355.6543 H              1 RES1               0.0000
     20 H20        124.1166 251.0522 353.4362 H              1 RES1               0.0000
     21 H21        127.7556 251.3500 355.6740 H              1 RES1               0.0000
     22 H22        124.1338 248.7564 351.5997 H              1 RES1               0.0000
     23 H23        127.8183 250.2051 350.6919 H              1 RES1               0.0000
     24 H24        128.0923 246.8064 354.8502 H              1 RES1               0.0000
     25 H25        126.6372 246.9288 353.8640 H              1 RES1               0.0000
     26 H26        128.1731 247.5338 353.2473 H              1 RES1               0.0000
     27 H27        123.2927 253.0932 354.5226 H              1 RES1               0.0000
     28 H28        126.9174 253.3874 356.7486 H              1 RES1               0.0000
     29 H29        124.6865 254.2684 356.1817 H              1 RES1               0.0000
@<TRIPOS>BOND
    1    1    2 1     
    2    1    3 1     
    3    1    4 1     
    4    1    5 1     
    5    2    6 ar    
    6    2    7 ar    
    7    3    8 1     
    8    3    9 2     
    9    4   10 1     
   10    4   11 2     
   11    5   12 1     
   12    5   18 1     
   13    5   19 1     
   14    6   13 ar    
   15    6   20 1     
   16    7   14 ar    
   17    7   21 1     
   18    8   15 1     
   19    8   22 1     
   20   10   15 1     
   21   10   23 1     
   22   12   24 1     
   23   12   25 1     
   24   12   26 1     
   25   13   16 ar    
   26   13   27 1     
   27   14   16 ar    
   28   14   28 1     
   29   15   17 2     
   30   16   29 1     
@<TRIPOS>SUBSTRUCTURE
      1 RES1           1
@<TRIPOS>SET
DONOR_HYDROGENS      STATIC     ATOMS    <user>   **** ""
2 22 23
ATOM$RED        STATIC     ATOMS    COLORGROUP SYSTEM
2 22 23
@<TRIPOS>COMMENT
> <Gold.Version>
2022.3.0

> <Gold.Id.Protein>
unknown|5adg_clean|pdb

> <Gold.Protein.RotatedTorsions>
[ 5561 5545 5544 5541 ] final  157.26 input   60.03 | X-H torsion
[ 12885 12857 12856 12854 ] final  159.78 input   60.00 | X-H torsion
[ 9097 9067 9066 9064 ] final   39.00 input   60.02 | X-H torsion
[ 8993 8977 8976 8973 ] final -135.05 input   60.01 | X-H torsion

> <Gold.Protein.ActiveResidues>
 TRP311  MET341  HIS342  TRP414  ALA417  ARG419  CYS420  VAL421  GLY422  LEU460 
 SER462  SER482  GLN483  ARG486  ALA502  ASN503  TYR567  GLY568  LEU569  PRO570 
 ALA571  VAL572  SER573  ASN574  MET575  LEU576  PHE589  SER590  GLY591  TRP592 
 TYR593  MET594  GLY595  GLU597  ILE598  ARG601  ARG608  ILE653  VAL654  TRP683 
 PHE709  GLU710  TYR711  GLN712  ASP714  HEM750  H4B760 

> <Gold.Protein.RotatedAtoms>
  127.9125  249.0592  361.7126 H   0  0  0  0  0  0  0  0  0  0  0  0  # atno 5561 bound_to 5545
  116.1906  244.7254  369.2396 H   0  0  0  0  0  0  0  0  0  0  0  0  # atno 8993 bound_to 8977
  122.6216  241.9047  360.8740 H   0  0  0  0  0  0  0  0  0  0  0  0  # atno 9097 bound_to 9067
  120.1458  254.5596  353.9404 H   0  0  0  0  0  0  0  0  0  0  0  0  # atno 12885 bound_to 12857
  127.3124  248.6529  363.1698 LP  0  0  0  0  0  0  0  0  0  0  0  0  # atno 13468 bound_to 5545
  128.7443  249.4303  363.0613 LP  0  0  0  0  0  0  0  0  0  0  0  0  # atno 13469 bound_to 5545
  120.1762  253.6809  355.3099 LP  0  0  0  0  0  0  0  0  0  0  0  0  # atno 13474 bound_to 12857
  121.5441  253.8967  354.4444 LP  0  0  0  0  0  0  0  0  0  0  0  0  # atno 13475 bound_to 12857
  123.4768  240.5460  360.6071 LP  0  0  0  0  0  0  0  0  0  0  0  0  # atno 13500 bound_to 9067
  122.8649  240.8509  362.0901 LP  0  0  0  0  0  0  0  0  0  0  0  0  # atno 13501 bound_to 9067
  115.2738  243.6771  368.3976 LP  0  0  0  0  0  0  0  0  0  0  0  0  # atno 13514 bound_to 8977
  114.9215  245.2715  368.3795 LP  0  0  0  0  0  0  0  0  0  0  0  0  # atno 13515 bound_to 8977

> <Gold.Score>
     Fitness  S(hb_ext) S(vdw_ext)  S(hb_int)    S(int)      intcor
     27.89       7.63      15.58       0.00      -1.16      -0.76

> <Gold.Goldscore.Fitness>
27.8860

> <Gold.Goldscore.Internal.Vdw>
-1.4077

> <Gold.Goldscore.Internal.Torsion>
-0.5217

> <Gold.Goldscore.External.Vdw>
15.5797

> <Gold.Goldscore.Internal.HBond>
0.0000

> <Gold.Goldscore.External.HBond>
7.6284

> <Gold.Goldscore.Internal.Correction>
-0.7650

> <Gold.Goldscore.Hbonds>
donor molecule, donor type, donor heavy atom, donor atom, acceptor molecule, acceptor atom, score
      P1  H 13408 13435       L1    17  0.74
      P1  H  9298  9321       L1    17  0.03
      L1  H     8    22       P1 13407  1.00

> <Gold.Goldscore.Internal.Vdw.Weighted>
-1.4077

> <Gold.Goldscore.Internal.Torsion.Weighted>
-0.5217

> <Gold.Goldscore.External.Vdw.Weighted>
21.4221

> <Gold.Goldscore.Internal.HBond.Weighted>
0.0000

> <Gold.Goldscore.External.HBond.Weighted>
7.6284

> <Gold.Goldscore.Internal.Correction.Weighted>
-0.7650

> <Gold.Rescore>
     Score     S(PLP)   S(hbond)     S(cho)   S(metal)  DE(clash)   DE(tors)     intcor
     28.35     -24.12       2.17       0.00       0.00       2.06       0.12       ----

> <Gold.PLP.Fitness>
28.3505

> <Gold.PLP.PLP>
-24.1190

> <Gold.PLP.part.hbond>
-2.0915

> <Gold.PLP.part.metal>
0.0000

> <Gold.PLP.part.buried>
-2.7324

> <Gold.PLP.part.nonpolar>
-19.7079

> <Gold.PLP.part.repulsive>
0.5482

> <Gold.PLP.ligand.clash>
2.0568

> <Gold.PLP.ligand.torsion>
0.1161

> <Gold.PLP.Chemscore.Hbond>
2.1735

> <Gold.PLP.Chemscore.CHOScore>
0.0000

> <Gold.PLP.Chemscore.Metal>
0.0000

> <Gold.Chemscore.Hbonds>
donor molecule, donor type, donor heavy atom, donor atom, acceptor molecule, acceptor atom, score
      L1  H     8    22       P1 13407  0.52
      P1  H 13408 13435       L1    17  0.91

> <Gold.PLP.Chemscore.Internal.Correction>
   9.000000E+99

#       Name:                CT1002167954
#       Creating user name   hitesit
#       Creation time:       Sun Apr 16 22:51:14 2023


#       File generated by GOLD software.
#

@<TRIPOS>MOLECULE
CT1002167954|ligand_prepared|mol2|1|dock10
    29    30     1
SMALL
NO_CHARGES


@<TRIPOS>ATOM
      1 C1         124.9960 248.1552 357.1758 C.3            1 RES1               0.0000
      2 C2         124.5718 248.9238 358.4440 C.ar           1 RES1               0.0000
      3 C3         123.7512 247.4242 356.6814 C.2            1 RES1               0.0000
      4 C4         125.5314 249.2000 356.2029 C.2            1 RES1               0.0000
      5 C5         126.1126 247.1137 357.4206 C.3            1 RES1               0.0000
      6 C6         125.1111 248.5965 359.6845 C.ar           1 RES1               0.0000
      7 C7         123.6460 249.9622 358.3889 C.ar           1 RES1               0.0000
      8 N8         123.1321 247.9121 355.5685 N.am           1 RES1               0.0000
      9 O9         123.2970 246.4579 357.2817 O.2            1 RES1               0.0000
     10 N10        124.8357 249.4120 355.0415 N.am           1 RES1               0.0000
     11 O11        126.5402 249.8533 356.4392 O.2            1 RES1               0.0000
     12 C12        126.5920 246.4200 356.1553 C.3            1 RES1               0.0000
     13 C13        124.7405 249.2844 360.8281 C.ar           1 RES1               0.0000
     14 C14        123.2767 250.6487 359.5338 C.ar           1 RES1               0.0000
     15 C15        123.6435 248.8373 354.6944 C.2            1 RES1               0.0000
     16 C16        123.8235 250.3111 360.7535 C.ar           1 RES1               0.0000
     17 O17        123.0508 249.1197 353.6570 O.2            1 RES1               0.0000
     18 H18        126.9660 247.6154 357.8932 H              1 RES1               0.0000
     19 H19        125.7405 246.3548 358.1199 H              1 RES1               0.0000
     20 H20        125.8323 247.7898 359.7631 H              1 RES1               0.0000
     21 H21        123.2019 250.2445 357.4403 H              1 RES1               0.0000
     22 H22        122.2030 247.5562 355.3677 H              1 RES1               0.0000
     23 H23        125.2446 250.0581 354.3738 H              1 RES1               0.0000
     24 H24        127.3750 245.6998 356.3833 H              1 RES1               0.0000
     25 H25        125.7738 245.8896 355.6725 H              1 RES1               0.0000
     26 H26        126.9921 247.1427 355.4471 H              1 RES1               0.0000
     27 H27        125.1728 249.0139 361.7858 H              1 RES1               0.0000
     28 H28        122.5541 251.4557 359.4705 H              1 RES1               0.0000
     29 H29        123.5337 250.8501 361.6495 H              1 RES1               0.0000
@<TRIPOS>BOND
    1    1    2 1     
    2    1    3 1     
    3    1    4 1     
    4    1    5 1     
    5    2    6 ar    
    6    2    7 ar    
    7    3    8 1     
    8    3    9 2     
    9    4   10 1     
   10    4   11 2     
   11    5   12 1     
   12    5   18 1     
   13    5   19 1     
   14    6   13 ar    
   15    6   20 1     
   16    7   14 ar    
   17    7   21 1     
   18    8   15 1     
   19    8   22 1     
   20   10   15 1     
   21   10   23 1     
   22   12   24 1     
   23   12   25 1     
   24   12   26 1     
   25   13   16 ar    
   26   13   27 1     
   27   14   16 ar    
   28   14   28 1     
   29   15   17 2     
   30   16   29 1     
@<TRIPOS>SUBSTRUCTURE
      1 RES1           1
@<TRIPOS>SET
DONOR_HYDROGENS      STATIC     ATOMS    <user>   **** ""
2 22 23
ATOM$RED        STATIC     ATOMS    COLORGROUP SYSTEM
2 22 23
@<TRIPOS>COMMENT
> <Gold.Version>
2022.3.0

> <Gold.Id.Protein>
unknown|5adg_clean|pdb

> <Gold.Protein.RotatedTorsions>
[ 5561 5545 5544 5541 ] final   47.48 input   60.03 | X-H torsion
[ 12885 12857 12856 12854 ] final  -35.71 input   60.00 | X-H torsion
[ 9097 9067 9066 9064 ] final  -16.91 input   60.02 | X-H torsion
[ 8993 8977 8976 8973 ] final   33.07 input   60.01 | X-H torsion

> <Gold.Protein.ActiveResidues>
 TRP311  MET341  HIS342  TRP414  ALA417  ARG419  CYS420  VAL421  GLY422  LEU460 
 SER462  SER482  GLN483  ARG486  ALA502  ASN503  TYR567  GLY568  LEU569  PRO570 
 ALA571  VAL572  SER573  ASN574  MET575  LEU576  PHE589  SER590  GLY591  TRP592 
 TYR593  MET594  GLY595  GLU597  ILE598  ARG601  ARG608  ILE653  VAL654  TRP683 
 PHE709  GLU710  TYR711  GLN712  ASP714  HEM750  H4B760 

> <Gold.Protein.RotatedAtoms>
  127.2421  248.6255  363.0201 H   0  0  0  0  0  0  0  0  0  0  0  0  # atno 5561 bound_to 5545
  114.7126  244.5835  368.1148 H   0  0  0  0  0  0  0  0  0  0  0  0  # atno 8993 bound_to 8977
  123.0722  241.4069  360.3083 H   0  0  0  0  0  0  0  0  0  0  0  0  # atno 9097 bound_to 9067
  121.2886  253.5877  355.0326 H   0  0  0  0  0  0  0  0  0  0  0  0  # atno 12885 bound_to 12857
  128.6709  249.3827  363.2047 LP  0  0  0  0  0  0  0  0  0  0  0  0  # atno 13468 bound_to 5545
  128.0609  249.1372  361.7099 LP  0  0  0  0  0  0  0  0  0  0  0  0  # atno 13469 bound_to 5545
  120.8332  254.5012  353.7650 LP  0  0  0  0  0  0  0  0  0  0  0  0  # atno 13474 bound_to 12857
  119.7363  254.0550  354.8894 LP  0  0  0  0  0  0  0  0  0  0  0  0  # atno 13475 bound_to 12857
  123.3783  240.2837  361.4456 LP  0  0  0  0  0  0  0  0  0  0  0  0  # atno 13500 bound_to 9067
  122.5097  241.6145  361.8213 LP  0  0  0  0  0  0  0  0  0  0  0  0  # atno 13501 bound_to 9067
  115.7996  245.3558  369.0477 LP  0  0  0  0  0  0  0  0  0  0  0  0  # atno 13514 bound_to 8977
  115.8837  243.7357  368.8618 LP  0  0  0  0  0  0  0  0  0  0  0  0  # atno 13515 bound_to 8977

> <Gold.Score>
     Fitness  S(hb_ext) S(vdw_ext)  S(hb_int)    S(int)      intcor
     26.34       4.09      16.75       0.00      -0.78      -0.76

> <Gold.Goldscore.Fitness>
26.3423

> <Gold.Goldscore.Internal.Vdw>
-1.1479

> <Gold.Goldscore.Internal.Torsion>
-0.3873

> <Gold.Goldscore.External.Vdw>
16.7505

> <Gold.Goldscore.Internal.HBond>
0.0000

> <Gold.Goldscore.External.HBond>
4.0871

> <Gold.Goldscore.Internal.Correction>
-0.7585

> <Gold.Goldscore.Hbonds>
donor molecule, donor type, donor heavy atom, donor atom, acceptor molecule, acceptor atom, score
      L1  H     8    22       P1 13278  0.68

> <Gold.Goldscore.Internal.Vdw.Weighted>
-1.1479

> <Gold.Goldscore.Internal.Torsion.Weighted>
-0.3873

> <Gold.Goldscore.External.Vdw.Weighted>
23.0319

> <Gold.Goldscore.Internal.HBond.Weighted>
0.0000

> <Gold.Goldscore.External.HBond.Weighted>
4.0871

> <Gold.Goldscore.Internal.Correction.Weighted>
-0.7585

> <Gold.Rescore>
     Score     S(PLP)   S(hbond)     S(cho)   S(metal)  DE(clash)   DE(tors)     intcor
     21.30     -18.33       0.99       0.00       0.00       0.00       0.00       ----

> <Gold.PLP.Fitness>
21.2963

> <Gold.PLP.PLP>
-18.3314

> <Gold.PLP.part.hbond>
-1.0000

> <Gold.PLP.part.metal>
0.0000

> <Gold.PLP.part.buried>
-2.0555

> <Gold.PLP.part.nonpolar>
-16.1591

> <Gold.PLP.part.repulsive>
0.8818

> <Gold.PLP.ligand.clash>
0.0000

> <Gold.PLP.ligand.torsion>
0.0044

> <Gold.PLP.Chemscore.Hbond>
0.9913

> <Gold.PLP.Chemscore.CHOScore>
0.0000

> <Gold.PLP.Chemscore.Metal>
0.0000

> <Gold.Chemscore.Hbonds>
donor molecule, donor type, donor heavy atom, donor atom, acceptor molecule, acceptor atom, score
      L1  H     8    22       P1 13278  0.75

> <Gold.PLP.Chemscore.Internal.Correction>
   9.000000E+99

