#       Name:                CT1002167954
#       Creating user name   hitesit
#       Creation time:       Sun Apr 16 22:51:09 2023


#       File generated by GOLD software.
#

@<TRIPOS>MOLECULE
CT1002167954|ligand_prepared|mol2|1|dock4
    29    30     1
SMALL
NO_CHARGES


@<TRIPOS>ATOM
      1 C1         117.4531 246.2643 359.9635 C.3            1 RES1               0.0000
      2 C2         118.2673 247.3687 359.2591 C.ar           1 RES1               0.0000
      3 C3         118.1827 245.9606 361.2687 C.2            1 RES1               0.0000
      4 C4         116.0478 246.8249 360.1521 C.2            1 RES1               0.0000
      5 C5         117.3397 244.9552 359.1480 C.3            1 RES1               0.0000
      6 C6         117.9458 248.7106 359.4398 C.ar           1 RES1               0.0000
      7 C7         119.3423 247.0618 358.4292 C.ar           1 RES1               0.0000
      8 N8         117.6210 246.4125 362.4264 N.am           1 RES1               0.0000
      9 O9         119.2546 245.3681 361.2787 O.2            1 RES1               0.0000
     10 N10        115.6107 247.0447 361.4321 N.am           1 RES1               0.0000
     11 O11        115.3213 247.0939 359.2034 O.2            1 RES1               0.0000
     12 C12        116.3020 243.9841 359.6886 C.3            1 RES1               0.0000
     13 C13        118.6744 249.7097 358.8159 C.ar           1 RES1               0.0000
     14 C14        120.0695 248.0625 357.8060 C.ar           1 RES1               0.0000
     15 C15        116.3449 246.8928 362.5767 C.2            1 RES1               0.0000
     16 C16        119.7369 249.3865 357.9990 C.ar           1 RES1               0.0000
     17 O17        115.8996 247.1630 363.6884 O.2            1 RES1               0.0000
     18 H18        117.0826 245.2060 358.1115 H              1 RES1               0.0000
     19 H19        118.3178 244.4584 359.1400 H              1 RES1               0.0000
     20 H20        117.1115 248.9841 360.0771 H              1 RES1               0.0000
     21 H21        119.6214 246.0271 358.2619 H              1 RES1               0.0000
     22 H22        118.2037 246.3915 363.2573 H              1 RES1               0.0000
     23 H23        114.6488 247.3497 361.5419 H              1 RES1               0.0000
     24 H24        116.2632 243.0830 359.0801 H              1 RES1               0.0000
     25 H25        116.5405 243.6936 360.7096 H              1 RES1               0.0000
     26 H26        115.3126 244.4368 359.6872 H              1 RES1               0.0000
     27 H27        118.4077 250.7501 358.9700 H              1 RES1               0.0000
     28 H28        120.9045 247.8035 357.1635 H              1 RES1               0.0000
     29 H29        120.3077 250.1694 357.5107 H              1 RES1               0.0000
@<TRIPOS>BOND
    1    1    2 1     
    2    1    3 1     
    3    1    4 1     
    4    1    5 1     
    5    2    6 ar    
    6    2    7 ar    
    7    3    8 1     
    8    3    9 2     
    9    4   10 1     
   10    4   11 2     
   11    5   12 1     
   12    5   18 1     
   13    5   19 1     
   14    6   13 ar    
   15    6   20 1     
   16    7   14 ar    
   17    7   21 1     
   18    8   15 1     
   19    8   22 1     
   20   10   15 1     
   21   10   23 1     
   22   12   24 1     
   23   12   25 1     
   24   12   26 1     
   25   13   16 ar    
   26   13   27 1     
   27   14   16 ar    
   28   14   28 1     
   29   15   17 2     
   30   16   29 1     
@<TRIPOS>SUBSTRUCTURE
      1 RES1           1
@<TRIPOS>SET
DONOR_HYDROGENS      STATIC     ATOMS    <user>   **** ""
2 22 23
ATOM$RED        STATIC     ATOMS    COLORGROUP SYSTEM
2 22 23
@<TRIPOS>COMMENT
> <Gold.Version>
2022.3.0

> <Gold.Id.Protein>
unknown|5adg_clean|pdb

> <Gold.Protein.RotatedTorsions>
[ 5561 5545 5544 5541 ] final  156.17 input   60.03 | X-H torsion
[ 12885 12857 12856 12854 ] final  -75.81 input   60.00 | X-H torsion
[ 9097 9067 9066 9064 ] final   59.65 input   60.02 | X-H torsion
[ 8993 8977 8976 8973 ] final  -46.83 input   60.01 | X-H torsion

> <Gold.Protein.ActiveResidues>
 TRP311  MET341  HIS342  TRP414  ALA417  ARG419  CYS420  VAL421  GLY422  LEU460 
 SER462  SER482  GLN483  ARG486  ALA502  ASN503  TYR567  GLY568  LEU569  PRO570 
 ALA571  VAL572  SER573  ASN574  MET575  LEU576  PHE589  SER590  GLY591  TRP592 
 TYR593  MET594  GLY595  GLU597  ILE598  ARG601  ARG608  ILE653  VAL654  TRP683 
 PHE709  GLU710  TYR711  GLN712  ASP714  HEM750  H4B760 

> <Gold.Protein.RotatedAtoms>
  127.8970  249.0508  361.7139 H   0  0  0  0  0  0  0  0  0  0  0  0  # atno 5561 bound_to 5545
  115.2853  245.4776  368.6794 H   0  0  0  0  0  0  0  0  0  0  0  0  # atno 8993 bound_to 8977
  122.5213  241.9148  361.1942 H   0  0  0  0  0  0  0  0  0  0  0  0  # atno 9097 bound_to 9067
  121.5368  253.8607  354.5071 H   0  0  0  0  0  0  0  0  0  0  0  0  # atno 12885 bound_to 12857
  127.3216  248.6571  363.1845 LP  0  0  0  0  0  0  0  0  0  0  0  0  # atno 13468 bound_to 5545
  128.7508  249.4346  363.0453 LP  0  0  0  0  0  0  0  0  0  0  0  0  # atno 13469 bound_to 5545
  120.2044  254.5698  353.8985 LP  0  0  0  0  0  0  0  0  0  0  0  0  # atno 13474 bound_to 12857
  120.1151  253.7116  355.2850 LP  0  0  0  0  0  0  0  0  0  0  0  0  # atno 13475 bound_to 12857
  123.3957  240.7977  360.3966 LP  0  0  0  0  0  0  0  0  0  0  0  0  # atno 13500 bound_to 9067
  123.0470  240.5891  361.9783 LP  0  0  0  0  0  0  0  0  0  0  0  0  # atno 13501 bound_to 9067
  116.1916  244.2163  369.1653 LP  0  0  0  0  0  0  0  0  0  0  0  0  # atno 13514 bound_to 8977
  114.9152  243.9750  368.1758 LP  0  0  0  0  0  0  0  0  0  0  0  0  # atno 13515 bound_to 8977

> <Gold.Score>
     Fitness  S(hb_ext) S(vdw_ext)  S(hb_int)    S(int)      intcor
     57.87      10.68      34.79       0.00      -0.65      -0.76

> <Gold.Goldscore.Fitness>
57.8699

> <Gold.Goldscore.Internal.Vdw>
-0.8084

> <Gold.Goldscore.Internal.Torsion>
-0.6095

> <Gold.Goldscore.External.Vdw>
34.7929

> <Gold.Goldscore.Internal.HBond>
0.0000

> <Gold.Goldscore.External.HBond>
10.6826

> <Gold.Goldscore.Internal.Correction>
-0.7650

> <Gold.Goldscore.Hbonds>
donor molecule, donor type, donor heavy atom, donor atom, acceptor molecule, acceptor atom, score
      P1  H  8444  8467       L1    17  0.34
      P1  M 13289 13530       L1    11  1.00

> <Gold.Goldscore.Internal.Vdw.Weighted>
-0.8084

> <Gold.Goldscore.Internal.Torsion.Weighted>
-0.6095

> <Gold.Goldscore.External.Vdw.Weighted>
47.8402

> <Gold.Goldscore.Internal.HBond.Weighted>
0.0000

> <Gold.Goldscore.External.HBond.Weighted>
10.6826

> <Gold.Goldscore.Internal.Correction.Weighted>
-0.7650

> <Gold.Rescore>
     Score     S(PLP)   S(hbond)     S(cho)   S(metal)  DE(clash)   DE(tors)     intcor
     49.96     -44.53       0.64       0.00       1.00       1.36       0.56       ----

> <Gold.PLP.Fitness>
49.9589

> <Gold.PLP.PLP>
-44.5290

> <Gold.PLP.part.hbond>
-2.3930

> <Gold.PLP.part.metal>
-1.0000

> <Gold.PLP.part.buried>
8.5058

> <Gold.PLP.part.nonpolar>
-61.0174

> <Gold.PLP.part.repulsive>
7.8808

> <Gold.PLP.ligand.clash>
1.3588

> <Gold.PLP.ligand.torsion>
0.5611

> <Gold.PLP.Chemscore.Hbond>
0.6370

> <Gold.PLP.Chemscore.CHOScore>
0.0000

> <Gold.PLP.Chemscore.Metal>
1.0000

> <Gold.Chemscore.Hbonds>
donor molecule, donor type, donor heavy atom, donor atom, acceptor molecule, acceptor atom, score
      P1  M 13289 13289       L1    11  1.00

> <Gold.PLP.Chemscore.Internal.Correction>
   9.000000E+99

