#       Name:                CT1002167954
#       Creating user name   hitesit
#       Creation time:       Sun Apr 16 22:51:06 2023


#       File generated by GOLD software.
#

@<TRIPOS>MOLECULE
CT1002167954|ligand_prepared|mol2|1|dock1
    29    30     1
SMALL
NO_CHARGES


@<TRIPOS>ATOM
      1 C1         122.1664 248.4433 358.0566 C.3            1 RES1               0.0000
      2 C2         120.9409 247.5600 358.3677 C.ar           1 RES1               0.0000
      3 C3         121.6588 249.5886 357.1854 C.2            1 RES1               0.0000
      4 C4         122.7254 248.8871 359.4039 C.2            1 RES1               0.0000
      5 C5         123.2904 247.7058 357.2924 C.3            1 RES1               0.0000
      6 C6         121.0950 246.2028 358.6339 C.ar           1 RES1               0.0000
      7 C7         119.6527 248.0876 358.3946 C.ar           1 RES1               0.0000
      8 N8         121.5489 250.8199 357.7614 N.am           1 RES1               0.0000
      9 O9         121.3227 249.4059 356.0218 O.2            1 RES1               0.0000
     10 N10        122.6709 250.2208 359.7139 N.am           1 RES1               0.0000
     11 O11        123.1976 248.0917 360.2068 O.2            1 RES1               0.0000
     12 C12        124.3522 248.6315 356.7199 C.3            1 RES1               0.0000
     13 C13        120.0013 245.4025 358.9197 C.ar           1 RES1               0.0000
     14 C14        118.5603 247.2854 358.6804 C.ar           1 RES1               0.0000
     15 C15        122.0801 251.2031 358.9667 C.2            1 RES1               0.0000
     16 C16        118.7334 245.9432 358.9436 C.ar           1 RES1               0.0000
     17 O17        122.0231 252.3719 359.3379 O.2            1 RES1               0.0000
     18 H18        123.7726 246.9942 357.9740 H              1 RES1               0.0000
     19 H19        122.8421 247.1326 356.4715 H              1 RES1               0.0000
     20 H20        122.0849 245.7590 358.6173 H              1 RES1               0.0000
     21 H21        119.4925 249.1406 358.1896 H              1 RES1               0.0000
     22 H22        121.0231 251.5205 357.2486 H              1 RES1               0.0000
     23 H23        123.1116 250.5079 360.5820 H              1 RES1               0.0000
     24 H24        125.1166 248.0632 356.1941 H              1 RES1               0.0000
     25 H25        123.9115 249.3367 356.0183 H              1 RES1               0.0000
     26 H26        124.8366 249.1991 357.5118 H              1 RES1               0.0000
     27 H27        120.1428 244.3465 359.1248 H              1 RES1               0.0000
     28 H28        117.5642 247.7152 358.6974 H              1 RES1               0.0000
     29 H29        117.8768 245.3162 359.1678 H              1 RES1               0.0000
@<TRIPOS>BOND
    1    1    2 1     
    2    1    3 1     
    3    1    4 1     
    4    1    5 1     
    5    2    6 ar    
    6    2    7 ar    
    7    3    8 1     
    8    3    9 2     
    9    4   10 1     
   10    4   11 2     
   11    5   12 1     
   12    5   18 1     
   13    5   19 1     
   14    6   13 ar    
   15    6   20 1     
   16    7   14 ar    
   17    7   21 1     
   18    8   15 1     
   19    8   22 1     
   20   10   15 1     
   21   10   23 1     
   22   12   24 1     
   23   12   25 1     
   24   12   26 1     
   25   13   16 ar    
   26   13   27 1     
   27   14   16 ar    
   28   14   28 1     
   29   15   17 2     
   30   16   29 1     
@<TRIPOS>SUBSTRUCTURE
      1 RES1           1
@<TRIPOS>SET
DONOR_HYDROGENS      STATIC     ATOMS    <user>   **** ""
2 22 23
ATOM$RED        STATIC     ATOMS    COLORGROUP SYSTEM
2 22 23
@<TRIPOS>COMMENT
> <Gold.Version>
2022.3.0

> <Gold.Id.Protein>
unknown|5adg_clean|pdb

> <Gold.Protein.RotatedTorsions>
[ 5561 5545 5544 5541 ] final -168.79 input   60.03 | X-H torsion
[ 12885 12857 12856 12854 ] final   11.37 input   60.00 | X-H torsion
[ 9097 9067 9066 9064 ] final   45.94 input   60.02 | X-H torsion
[ 8993 8977 8976 8973 ] final -105.48 input   60.01 | X-H torsion

> <Gold.Protein.ActiveResidues>
 TRP311  MET341  HIS342  TRP414  ALA417  ARG419  CYS420  VAL421  GLY422  LEU460 
 SER462  SER482  GLN483  ARG486  ALA502  ASN503  TYR567  GLY568  LEU569  PRO570 
 ALA571  VAL572  SER573  ASN574  MET575  LEU576  PHE589  SER590  GLY591  TRP592 
 TYR593  MET594  GLY595  GLU597  ILE598  ARG601  ARG608  ILE653  VAL654  TRP683 
 PHE709  GLU710  TYR711  GLN712  ASP714  HEM750  H4B760 

> <Gold.Protein.RotatedAtoms>
  128.3841  249.3063  361.8369 H   0  0  0  0  0  0  0  0  0  0  0  0  # atno 5561 bound_to 5545
  115.9964  245.1549  369.1605 H   0  0  0  0  0  0  0  0  0  0  0  0  # atno 8993 bound_to 8977
  122.5819  241.9200  360.9790 H   0  0  0  0  0  0  0  0  0  0  0  0  # atno 9097 bound_to 9067
  120.6151  253.5472  355.3552 H   0  0  0  0  0  0  0  0  0  0  0  0  # atno 12885 bound_to 12857
  127.1597  248.5999  362.6435 LP  0  0  0  0  0  0  0  0  0  0  0  0  # atno 13468 bound_to 5545
  128.4221  249.2344  363.4624 LP  0  0  0  0  0  0  0  0  0  0  0  0  # atno 13469 bound_to 5545
  121.4236  254.1567  354.0810 LP  0  0  0  0  0  0  0  0  0  0  0  0  # atno 13474 bound_to 12857
  119.8242  254.4404  354.2484 LP  0  0  0  0  0  0  0  0  0  0  0  0  # atno 13475 bound_to 12857
  123.4562  240.6240  360.5265 LP  0  0  0  0  0  0  0  0  0  0  0  0  # atno 13500 bound_to 9067
  122.9255  240.7576  362.0651 LP  0  0  0  0  0  0  0  0  0  0  0  0  # atno 13501 bound_to 9067
  115.6610  243.6365  368.6804 LP  0  0  0  0  0  0  0  0  0  0  0  0  # atno 13514 bound_to 8977
  114.7298  244.8797  368.1763 LP  0  0  0  0  0  0  0  0  0  0  0  0  # atno 13515 bound_to 8977

> <Gold.Score>
     Fitness  S(hb_ext) S(vdw_ext)  S(hb_int)    S(int)      intcor
     35.95       6.55      21.99       0.00      -0.83      -0.79

> <Gold.Goldscore.Fitness>
35.9521

> <Gold.Goldscore.Internal.Vdw>
-0.9876

> <Gold.Goldscore.Internal.Torsion>
-0.6256

> <Gold.Goldscore.External.Vdw>
21.9880

> <Gold.Goldscore.Internal.HBond>
0.0000

> <Gold.Goldscore.External.HBond>
6.5459

> <Gold.Goldscore.Internal.Correction>
-0.7860

> <Gold.Goldscore.Hbonds>
donor molecule, donor type, donor heavy atom, donor atom, acceptor molecule, acceptor atom, score
      P1  H  5569  5595       L1    11  0.27
      L1  H     8    22       P1 13273  1.00

> <Gold.Goldscore.Internal.Vdw.Weighted>
-0.9876

> <Gold.Goldscore.Internal.Torsion.Weighted>
-0.6256

> <Gold.Goldscore.External.Vdw.Weighted>
30.2334

> <Gold.Goldscore.Internal.HBond.Weighted>
0.0000

> <Gold.Goldscore.External.HBond.Weighted>
6.5459

> <Gold.Goldscore.Internal.Correction.Weighted>
-0.7860

> <Gold.Rescore>
     Score     S(PLP)   S(hbond)     S(cho)   S(metal)  DE(clash)   DE(tors)     intcor
     33.48     -30.82       1.54       0.00       0.00       0.00       0.98       ----

> <Gold.PLP.Fitness>
33.4795

> <Gold.PLP.PLP>
-30.8169

> <Gold.PLP.part.hbond>
-2.0000

> <Gold.PLP.part.metal>
0.0000

> <Gold.PLP.part.buried>
-2.7875

> <Gold.PLP.part.nonpolar>
-28.4227

> <Gold.PLP.part.repulsive>
2.3615

> <Gold.PLP.ligand.clash>
0.0000

> <Gold.PLP.ligand.torsion>
0.9831

> <Gold.PLP.Chemscore.Hbond>
1.5429

> <Gold.PLP.Chemscore.CHOScore>
0.0000

> <Gold.PLP.Chemscore.Metal>
0.0000

> <Gold.Chemscore.Hbonds>
donor molecule, donor type, donor heavy atom, donor atom, acceptor molecule, acceptor atom, score
      L1  H     8    22       P1 13273  1.00
      P1  H  5569  5595       L1    11  0.86

> <Gold.PLP.Chemscore.Internal.Correction>
   9.000000E+99

