#       Name:                CT1002167954
#       Creating user name   hitesit
#       Creation time:       Sun Apr 16 22:51:13 2023


#       File generated by GOLD software.
#

@<TRIPOS>MOLECULE
CT1002167954|ligand_prepared|mol2|1|dock9
    29    30     1
SMALL
NO_CHARGES


@<TRIPOS>ATOM
      1 C1         123.6739 245.6715 355.6799 C.3            1 RES1               0.0000
      2 C2         122.7676 245.9448 356.8976 C.ar           1 RES1               0.0000
      3 C3         123.3058 244.2792 355.1757 C.2            1 RES1               0.0000
      4 C4         123.3945 246.7889 354.6809 C.2            1 RES1               0.0000
      5 C5         125.1849 245.6913 356.0087 C.3            1 RES1               0.0000
      6 C6         121.7599 245.0504 357.2458 C.ar           1 RES1               0.0000
      7 C7         122.9286 247.0835 357.6824 C.ar           1 RES1               0.0000
      8 N8         122.5839 244.1955 354.0218 N.am           1 RES1               0.0000
      9 O9         123.6104 243.2716 355.8021 O.2            1 RES1               0.0000
     10 N10        122.8101 246.4524 353.4880 N.am           1 RES1               0.0000
     11 O11        123.6600 247.9599 354.9227 O.2            1 RES1               0.0000
     12 C12        126.0791 245.7416 354.7798 C.3            1 RES1               0.0000
     13 C13        120.9445 245.2843 358.3407 C.ar           1 RES1               0.0000
     14 C14        122.1120 247.3156 358.7768 C.ar           1 RES1               0.0000
     15 C15        122.3640 245.2106 353.1257 C.2            1 RES1               0.0000
     16 C16        121.1202 246.4167 359.1071 C.ar           1 RES1               0.0000
     17 O17        121.7987 244.9971 352.0571 O.2            1 RES1               0.0000
     18 H18        125.3982 246.5652 356.6366 H              1 RES1               0.0000
     19 H19        125.4319 244.7934 356.5885 H              1 RES1               0.0000
     20 H20        121.6051 244.1550 356.6530 H              1 RES1               0.0000
     21 H21        123.7017 247.8050 357.4408 H              1 RES1               0.0000
     22 H22        122.1690 243.2948 353.8050 H              1 RES1               0.0000
     23 H23        122.6972 247.1965 352.8070 H              1 RES1               0.0000
     24 H24        127.1285 245.7537 355.0667 H              1 RES1               0.0000
     25 H25        125.9114 244.8740 354.1450 H              1 RES1               0.0000
     26 H26        125.8779 246.6353 354.1927 H              1 RES1               0.0000
     27 H27        120.1646 244.5744 358.5956 H              1 RES1               0.0000
     28 H28        122.2535 248.2085 359.3769 H              1 RES1               0.0000
     29 H29        120.4816 246.5995 359.9650 H              1 RES1               0.0000
@<TRIPOS>BOND
    1    1    2 1     
    2    1    3 1     
    3    1    4 1     
    4    1    5 1     
    5    2    6 ar    
    6    2    7 ar    
    7    3    8 1     
    8    3    9 2     
    9    4   10 1     
   10    4   11 2     
   11    5   12 1     
   12    5   18 1     
   13    5   19 1     
   14    6   13 ar    
   15    6   20 1     
   16    7   14 ar    
   17    7   21 1     
   18    8   15 1     
   19    8   22 1     
   20   10   15 1     
   21   10   23 1     
   22   12   24 1     
   23   12   25 1     
   24   12   26 1     
   25   13   16 ar    
   26   13   27 1     
   27   14   16 ar    
   28   14   28 1     
   29   15   17 2     
   30   16   29 1     
@<TRIPOS>SUBSTRUCTURE
      1 RES1           1
@<TRIPOS>SET
DONOR_HYDROGENS      STATIC     ATOMS    <user>   **** ""
2 22 23
ATOM$RED        STATIC     ATOMS    COLORGROUP SYSTEM
2 22 23
@<TRIPOS>COMMENT
> <Gold.Version>
2022.3.0

> <Gold.Id.Protein>
unknown|5adg_clean|pdb

> <Gold.Protein.RotatedTorsions>
[ 5561 5545 5544 5541 ] final  -11.97 input   60.03 | X-H torsion
[ 12885 12857 12856 12854 ] final  -18.83 input   60.00 | X-H torsion
[ 9097 9067 9066 9064 ] final   22.70 input   60.02 | X-H torsion
[ 8993 8977 8976 8973 ] final  110.88 input   60.01 | X-H torsion

> <Gold.Protein.ActiveResidues>
 TRP311  MET341  HIS342  TRP414  ALA417  ARG419  CYS420  VAL421  GLY422  LEU460 
 SER462  SER482  GLN483  ARG486  ALA502  ASN503  TYR567  GLY568  LEU569  PRO570 
 ALA571  VAL572  SER573  ASN574  MET575  LEU576  PHE589  SER590  GLY591  TRP592 
 TYR593  MET594  GLY595  GLU597  ILE598  ARG601  ARG608  ILE653  VAL654  TRP683 
 PHE709  GLU710  TYR711  GLN712  ASP714  HEM750  H4B760 

> <Gold.Protein.RotatedAtoms>
  127.9106  248.9548  363.5742 H   0  0  0  0  0  0  0  0  0  0  0  0  # atno 5561 bound_to 5545
  115.3529  243.6558  368.4503 H   0  0  0  0  0  0  0  0  0  0  0  0  # atno 8993 bound_to 8977
  122.7347  241.8234  360.6480 H   0  0  0  0  0  0  0  0  0  0  0  0  # atno 9097 bound_to 9067
  121.0773  253.5333  355.1995 H   0  0  0  0  0  0  0  0  0  0  0  0  # atno 12885 bound_to 12857
  128.7452  249.4743  362.2771 LP  0  0  0  0  0  0  0  0  0  0  0  0  # atno 13468 bound_to 5545
  127.3135  248.7141  362.0794 LP  0  0  0  0  0  0  0  0  0  0  0  0  # atno 13469 bound_to 5545
  121.0849  254.4025  353.8237 LP  0  0  0  0  0  0  0  0  0  0  0  0  # atno 13474 bound_to 12857
  119.6973  254.2085  354.6625 LP  0  0  0  0  0  0  0  0  0  0  0  0  # atno 13475 bound_to 12857
  123.4966  240.3965  360.8279 LP  0  0  0  0  0  0  0  0  0  0  0  0  # atno 13500 bound_to 9067
  122.7312  241.0823  362.0970 LP  0  0  0  0  0  0  0  0  0  0  0  0  # atno 13501 bound_to 9067
  114.8695  245.2051  368.3305 LP  0  0  0  0  0  0  0  0  0  0  0  0  # atno 13514 bound_to 8977
  116.1692  244.8204  369.2413 LP  0  0  0  0  0  0  0  0  0  0  0  0  # atno 13515 bound_to 8977

> <Gold.Score>
     Fitness  S(hb_ext) S(vdw_ext)  S(hb_int)    S(int)      intcor
     31.07       6.00      21.13       0.00      -3.99      -0.76

> <Gold.Goldscore.Fitness>
31.0731

> <Gold.Goldscore.Internal.Vdw>
-4.1180

> <Gold.Goldscore.Internal.Torsion>
-0.6338

> <Gold.Goldscore.External.Vdw>
21.1346

> <Gold.Goldscore.Internal.HBond>
0.0000

> <Gold.Goldscore.External.HBond>
6.0000

> <Gold.Goldscore.Internal.Correction>
-0.7650

> <Gold.Goldscore.Hbonds>
donor molecule, donor type, donor heavy atom, donor atom, acceptor molecule, acceptor atom, score
      L1  H    10    23       P1 13407  1.00

> <Gold.Goldscore.Internal.Vdw.Weighted>
-4.1180

> <Gold.Goldscore.Internal.Torsion.Weighted>
-0.6338

> <Gold.Goldscore.External.Vdw.Weighted>
29.0600

> <Gold.Goldscore.Internal.HBond.Weighted>
0.0000

> <Gold.Goldscore.External.HBond.Weighted>
6.0000

> <Gold.Goldscore.Internal.Correction.Weighted>
-0.7650

> <Gold.Rescore>
     Score     S(PLP)   S(hbond)     S(cho)   S(metal)  DE(clash)   DE(tors)     intcor
     16.70     -17.34       0.64       0.00       0.00       1.29       0.63       ----

> <Gold.PLP.Fitness>
16.7041

> <Gold.PLP.PLP>
-17.3424

> <Gold.PLP.part.hbond>
-2.2993

> <Gold.PLP.part.metal>
0.0000

> <Gold.PLP.part.buried>
-2.3622

> <Gold.PLP.part.nonpolar>
-14.7329

> <Gold.PLP.part.repulsive>
1.5206

> <Gold.PLP.ligand.clash>
1.2910

> <Gold.PLP.ligand.torsion>
0.6337

> <Gold.PLP.Chemscore.Hbond>
0.6400

> <Gold.PLP.Chemscore.CHOScore>
0.0000

> <Gold.PLP.Chemscore.Metal>
0.0000

> <Gold.Chemscore.Hbonds>
donor molecule, donor type, donor heavy atom, donor atom, acceptor molecule, acceptor atom, score
      L1  H    10    23       P1 13407  0.99
      P1  H  9297  9320       L1    17  0.06

> <Gold.PLP.Chemscore.Internal.Correction>
   9.000000E+99

