#       Name:                CT1002167954
#       Creating user name   hitesit
#       Creation time:       Sun Apr 16 22:51:10 2023


#       File generated by GOLD software.
#

@<TRIPOS>MOLECULE
CT1002167954|ligand_prepared|mol2|1|dock5
    29    30     1
SMALL
NO_CHARGES


@<TRIPOS>ATOM
      1 C1         123.2822 244.3202 357.4603 C.3            1 RES1               0.0000
      2 C2         122.0399 244.7356 358.2744 C.ar           1 RES1               0.0000
      3 C3         124.3641 245.3493 357.7743 C.2            1 RES1               0.0000
      4 C4         123.6262 242.9017 357.9009 C.2            1 RES1               0.0000
      5 C5         123.0501 244.3024 355.9314 C.3            1 RES1               0.0000
      6 C6         121.1385 245.6663 357.7664 C.ar           1 RES1               0.0000
      7 C7         121.7809 244.1959 359.5315 C.ar           1 RES1               0.0000
      8 N8         125.3890 244.9610 358.5860 N.am           1 RES1               0.0000
      9 O9         124.2983 246.4959 357.3485 O.2            1 RES1               0.0000
     10 N10        124.8102 242.7040 358.5620 N.am           1 RES1               0.0000
     11 O11        122.8750 241.9561 357.6964 O.2            1 RES1               0.0000
     12 C12        124.1415 243.5839 355.1539 C.3            1 RES1               0.0000
     13 C13        120.0172 246.0416 358.4876 C.ar           1 RES1               0.0000
     14 C14        120.6591 244.5728 360.2511 C.ar           1 RES1               0.0000
     15 C15        125.6928 243.6743 358.9516 C.2            1 RES1               0.0000
     16 C16        119.7765 245.4949 359.7301 C.ar           1 RES1               0.0000
     17 O17        126.7103 243.4240 359.5913 O.2            1 RES1               0.0000
     18 H18        122.0898 243.8137 355.7257 H              1 RES1               0.0000
     19 H19        122.9835 245.3369 355.5724 H              1 RES1               0.0000
     20 H20        121.3126 246.1090 356.7914 H              1 RES1               0.0000
     21 H21        122.4620 243.4696 359.9617 H              1 RES1               0.0000
     22 H22        125.9845 245.6953 358.9554 H              1 RES1               0.0000
     23 H23        125.0564 241.7446 358.7841 H              1 RES1               0.0000
     24 H24        123.9298 243.6007 354.0868 H              1 RES1               0.0000
     25 H25        125.1069 244.0592 355.3153 H              1 RES1               0.0000
     26 H26        124.2185 242.5450 355.4678 H              1 RES1               0.0000
     27 H27        119.3264 246.7687 358.0736 H              1 RES1               0.0000
     28 H28        120.4739 244.1405 361.2289 H              1 RES1               0.0000
     29 H29        118.8978 245.7888 360.2947 H              1 RES1               0.0000
@<TRIPOS>BOND
    1    1    2 1     
    2    1    3 1     
    3    1    4 1     
    4    1    5 1     
    5    2    6 ar    
    6    2    7 ar    
    7    3    8 1     
    8    3    9 2     
    9    4   10 1     
   10    4   11 2     
   11    5   12 1     
   12    5   18 1     
   13    5   19 1     
   14    6   13 ar    
   15    6   20 1     
   16    7   14 ar    
   17    7   21 1     
   18    8   15 1     
   19    8   22 1     
   20   10   15 1     
   21   10   23 1     
   22   12   24 1     
   23   12   25 1     
   24   12   26 1     
   25   13   16 ar    
   26   13   27 1     
   27   14   16 ar    
   28   14   28 1     
   29   15   17 2     
   30   16   29 1     
@<TRIPOS>SUBSTRUCTURE
      1 RES1           1
@<TRIPOS>SET
DONOR_HYDROGENS      STATIC     ATOMS    <user>   **** ""
2 22 23
ATOM$RED        STATIC     ATOMS    COLORGROUP SYSTEM
2 22 23
@<TRIPOS>COMMENT
> <Gold.Version>
2022.3.0

> <Gold.Id.Protein>
unknown|5adg_clean|pdb

> <Gold.Protein.RotatedTorsions>
[ 5561 5545 5544 5541 ] final   57.61 input   60.03 | X-H torsion
[ 12885 12857 12856 12854 ] final   72.45 input   60.00 | X-H torsion
[ 9097 9067 9066 9064 ] final  -65.27 input   60.02 | X-H torsion
[ 8993 8977 8976 8973 ] final   31.91 input   60.01 | X-H torsion

> <Gold.Protein.ActiveResidues>
 TRP311  MET341  HIS342  TRP414  ALA417  ARG419  CYS420  VAL421  GLY422  LEU460 
 SER462  SER482  GLN483  ARG486  ALA502  ASN503  TYR567  GLY568  LEU569  PRO570 
 ALA571  VAL572  SER573  ASN574  MET575  LEU576  PHE589  SER590  GLY591  TRP592 
 TYR593  MET594  GLY595  GLU597  ILE598  ARG601  ARG608  ILE653  VAL654  TRP683 
 PHE709  GLU710  TYR711  GLN712  ASP714  HEM750  H4B760 

> <Gold.Protein.RotatedAtoms>
  127.1923  248.6073  362.8635 H   0  0  0  0  0  0  0  0  0  0  0  0  # atno 5561 bound_to 5545
  114.7118  244.6023  368.1171 H   0  0  0  0  0  0  0  0  0  0  0  0  # atno 8993 bound_to 8977
  123.4154  240.7343  360.4429 H   0  0  0  0  0  0  0  0  0  0  0  0  # atno 9097 bound_to 9067
  119.8156  253.9481  355.0307 H   0  0  0  0  0  0  0  0  0  0  0  0  # atno 12885 bound_to 12857
  128.5767  249.3251  363.3292 LP  0  0  0  0  0  0  0  0  0  0  0  0  # atno 13468 bound_to 5545
  128.2053  249.2131  361.7430 LP  0  0  0  0  0  0  0  0  0  0  0  0  # atno 13469 bound_to 5545
  121.4086  253.6459  354.8915 LP  0  0  0  0  0  0  0  0  0  0  0  0  # atno 13474 bound_to 12857
  120.6443  254.5474  353.7647 LP  0  0  0  0  0  0  0  0  0  0  0  0  # atno 13475 bound_to 12857
  123.0035  240.6466  362.0149 LP  0  0  0  0  0  0  0  0  0  0  0  0  # atno 13500 bound_to 9067
  122.5390  241.9287  361.1165 LP  0  0  0  0  0  0  0  0  0  0  0  0  # atno 13501 bound_to 9067
  115.8133  245.3458  369.0564 LP  0  0  0  0  0  0  0  0  0  0  0  0  # atno 13514 bound_to 8977
  115.8709  243.7268  368.8508 LP  0  0  0  0  0  0  0  0  0  0  0  0  # atno 13515 bound_to 8977

> <Gold.Score>
     Fitness  S(hb_ext) S(vdw_ext)  S(hb_int)    S(int)      intcor
     33.64       0.13      24.92       0.00      -0.75      -0.76

> <Gold.Goldscore.Fitness>
33.6412

> <Gold.Goldscore.Internal.Vdw>
-0.8540

> <Gold.Goldscore.Internal.Torsion>
-0.6604

> <Gold.Goldscore.External.Vdw>
24.9151

> <Gold.Goldscore.Internal.HBond>
0.0000

> <Gold.Goldscore.External.HBond>
0.1325

> <Gold.Goldscore.Internal.Correction>
-0.7650

> <Gold.Goldscore.Hbonds>
donor molecule, donor type, donor heavy atom, donor atom, acceptor molecule, acceptor atom, score
      P1  H  9508  9544       L1    17  0.02

> <Gold.Goldscore.Internal.Vdw.Weighted>
-0.8540

> <Gold.Goldscore.Internal.Torsion.Weighted>
-0.6604

> <Gold.Goldscore.External.Vdw.Weighted>
34.2582

> <Gold.Goldscore.Internal.HBond.Weighted>
0.0000

> <Gold.Goldscore.External.HBond.Weighted>
0.1325

> <Gold.Goldscore.Internal.Correction.Weighted>
-0.7650

> <Gold.Rescore>
     Score     S(PLP)   S(hbond)     S(cho)   S(metal)  DE(clash)   DE(tors)     intcor
     23.57     -23.90       0.47       0.00       0.00       1.08       0.32       ----

> <Gold.PLP.Fitness>
23.5738

> <Gold.PLP.PLP>
-23.8958

> <Gold.PLP.part.hbond>
-3.9580

> <Gold.PLP.part.metal>
0.0000

> <Gold.PLP.part.buried>
4.5031

> <Gold.PLP.part.nonpolar>
-29.5591

> <Gold.PLP.part.repulsive>
2.7950

> <Gold.PLP.ligand.clash>
1.0811

> <Gold.PLP.ligand.torsion>
0.3224

> <Gold.PLP.Chemscore.Hbond>
0.4680

> <Gold.PLP.Chemscore.CHOScore>
0.0000

> <Gold.PLP.Chemscore.Metal>
0.0000

> <Gold.Chemscore.Hbonds>
donor molecule, donor type, donor heavy atom, donor atom, acceptor molecule, acceptor atom, score
      P1  H  5682  5713       L1    17  0.10
      P1  H  9508  9544       L1    17  0.37

> <Gold.PLP.Chemscore.Internal.Correction>
   9.000000E+99

