#       Name:                CT1002167954
#       Creating user name   hitesit
#       Creation time:       Sun Apr 16 22:51:12 2023


#       File generated by GOLD software.
#

@<TRIPOS>MOLECULE
CT1002167954|ligand_prepared|mol2|1|dock7
    29    30     1
SMALL
NO_CHARGES


@<TRIPOS>ATOM
      1 C1         118.4371 245.9016 359.6087 C.3            1 RES1               0.0000
      2 C2         118.5590 247.4295 359.4376 C.ar           1 RES1               0.0000
      3 C3         118.9773 245.2821 358.3231 C.2            1 RES1               0.0000
      4 C4         119.2397 245.5465 360.8554 C.2            1 RES1               0.0000
      5 C5         116.9859 245.4101 359.8187 C.3            1 RES1               0.0000
      6 C6         117.6210 248.2837 360.0098 C.ar           1 RES1               0.0000
      7 C7         119.6034 247.9988 358.7139 C.ar           1 RES1               0.0000
      8 N8         120.2018 244.6839 358.3760 N.am           1 RES1               0.0000
      9 O9         118.3560 245.3520 357.2699 O.2            1 RES1               0.0000
     10 N10        120.3615 244.7753 360.6989 N.am           1 RES1               0.0000
     11 O11        118.9200 245.9415 361.9699 O.2            1 RES1               0.0000
     12 C12        116.8233 243.9041 359.6858 C.3            1 RES1               0.0000
     13 C13        117.7250 249.6573 359.8663 C.ar           1 RES1               0.0000
     14 C14        119.7054 249.3728 358.5715 C.ar           1 RES1               0.0000
     15 C15        120.8960 244.3536 359.5120 C.2            1 RES1               0.0000
     16 C16        118.7673 250.2028 359.1475 C.ar           1 RES1               0.0000
     17 O17        121.9388 243.7089 359.4487 O.2            1 RES1               0.0000
     18 H18        116.6511 245.7147 360.8180 H              1 RES1               0.0000
     19 H19        116.3368 245.9015 359.0834 H              1 RES1               0.0000
     20 H20        116.7925 247.8726 360.5769 H              1 RES1               0.0000
     21 H21        120.3523 247.3652 358.2511 H              1 RES1               0.0000
     22 H22        120.6420 244.4617 357.4887 H              1 RES1               0.0000
     23 H23        120.8427 244.4890 361.5455 H              1 RES1               0.0000
     24 H24        115.7867 243.6128 359.8423 H              1 RES1               0.0000
     25 H25        117.1234 243.5696 358.6950 H              1 RES1               0.0000
     26 H26        117.4359 243.3839 360.4193 H              1 RES1               0.0000
     27 H27        116.9834 250.3062 360.3205 H              1 RES1               0.0000
     28 H28        120.5270 249.7977 358.0044 H              1 RES1               0.0000
     29 H29        118.8487 251.2789 359.0356 H              1 RES1               0.0000
@<TRIPOS>BOND
    1    1    2 1     
    2    1    3 1     
    3    1    4 1     
    4    1    5 1     
    5    2    6 ar    
    6    2    7 ar    
    7    3    8 1     
    8    3    9 2     
    9    4   10 1     
   10    4   11 2     
   11    5   12 1     
   12    5   18 1     
   13    5   19 1     
   14    6   13 ar    
   15    6   20 1     
   16    7   14 ar    
   17    7   21 1     
   18    8   15 1     
   19    8   22 1     
   20   10   15 1     
   21   10   23 1     
   22   12   24 1     
   23   12   25 1     
   24   12   26 1     
   25   13   16 ar    
   26   13   27 1     
   27   14   16 ar    
   28   14   28 1     
   29   15   17 2     
   30   16   29 1     
@<TRIPOS>SUBSTRUCTURE
      1 RES1           1
@<TRIPOS>SET
DONOR_HYDROGENS      STATIC     ATOMS    <user>   **** ""
2 22 23
ATOM$RED        STATIC     ATOMS    COLORGROUP SYSTEM
2 22 23
@<TRIPOS>COMMENT
> <Gold.Version>
2022.3.0

> <Gold.Id.Protein>
unknown|5adg_clean|pdb

> <Gold.Protein.RotatedTorsions>
[ 5561 5545 5544 5541 ] final  155.63 input   60.03 | X-H torsion
[ 12885 12857 12856 12854 ] final  136.33 input   60.00 | X-H torsion
[ 9097 9067 9066 9064 ] final   30.84 input   60.02 | X-H torsion
[ 8993 8977 8976 8973 ] final  165.95 input   60.01 | X-H torsion

> <Gold.Protein.ActiveResidues>
 TRP311  MET341  HIS342  TRP414  ALA417  ARG419  CYS420  VAL421  GLY422  LEU460 
 SER462  SER482  GLN483  ARG486  ALA502  ASN503  TYR567  GLY568  LEU569  PRO570 
 ALA571  VAL572  SER573  ASN574  MET575  LEU576  PHE589  SER590  GLY591  TRP592 
 TYR593  MET594  GLY595  GLU597  ILE598  ARG601  ARG608  ILE653  VAL654  TRP683 
 PHE709  GLU710  TYR711  GLN712  ASP714  HEM750  H4B760 

> <Gold.Protein.RotatedAtoms>
  127.8892  249.0465  361.7147 H   0  0  0  0  0  0  0  0  0  0  0  0  # atno 5561 bound_to 5545
  116.0116  243.8608  368.9733 H   0  0  0  0  0  0  0  0  0  0  0  0  # atno 8993 bound_to 8977
  122.6751  241.8717  360.7565 H   0  0  0  0  0  0  0  0  0  0  0  0  # atno 9097 bound_to 9067
  119.8730  254.4681  354.1893 H   0  0  0  0  0  0  0  0  0  0  0  0  # atno 12885 bound_to 12857
  127.3263  248.6592  363.1918 LP  0  0  0  0  0  0  0  0  0  0  0  0  # atno 13468 bound_to 5545
  128.7539  249.4367  363.0372 LP  0  0  0  0  0  0  0  0  0  0  0  0  # atno 13469 bound_to 5545
  120.5350  253.5583  355.3652 LP  0  0  0  0  0  0  0  0  0  0  0  0  # atno 13474 bound_to 12857
  121.4601  254.1113  354.1384 LP  0  0  0  0  0  0  0  0  0  0  0  0  # atno 13475 bound_to 12857
  123.4918  240.4647  360.7129 LP  0  0  0  0  0  0  0  0  0  0  0  0  # atno 13500 bound_to 9067
  122.7960  240.9654  362.1028 LP  0  0  0  0  0  0  0  0  0  0  0  0  # atno 13501 bound_to 9067
  114.7358  244.3744  368.1032 LP  0  0  0  0  0  0  0  0  0  0  0  0  # atno 13514 bound_to 8977
  115.6397  245.4448  368.9421 LP  0  0  0  0  0  0  0  0  0  0  0  0  # atno 13515 bound_to 8977

> <Gold.Score>
     Fitness  S(hb_ext) S(vdw_ext)  S(hb_int)    S(int)      intcor
     38.11       0.38      27.94       0.00      -0.68      -0.76

> <Gold.Goldscore.Fitness>
38.1135

> <Gold.Goldscore.Internal.Vdw>
-0.8265

> <Gold.Goldscore.Internal.Torsion>
-0.6195

> <Gold.Goldscore.External.Vdw>
27.9364

> <Gold.Goldscore.Internal.HBond>
0.0000

> <Gold.Goldscore.External.HBond>
0.3820

> <Gold.Goldscore.Internal.Correction>
-0.7650

> <Gold.Goldscore.Hbonds>
donor molecule, donor type, donor heavy atom, donor atom, acceptor molecule, acceptor atom, score
      P1  H  5569  5594       L1    17  0.01
      P1  H  9067  9097       L1    17  0.18

> <Gold.Goldscore.Internal.Vdw.Weighted>
-0.8265

> <Gold.Goldscore.Internal.Torsion.Weighted>
-0.6195

> <Gold.Goldscore.External.Vdw.Weighted>
38.4126

> <Gold.Goldscore.Internal.HBond.Weighted>
0.0000

> <Gold.Goldscore.External.HBond.Weighted>
0.3820

> <Gold.Goldscore.Internal.Correction.Weighted>
-0.7650

> <Gold.Rescore>
     Score     S(PLP)   S(hbond)     S(cho)   S(metal)  DE(clash)   DE(tors)     intcor
     40.11     -38.36       1.26       0.00       0.00       0.00       1.01       ----

> <Gold.PLP.Fitness>
40.1060

> <Gold.PLP.PLP>
-38.3593

> <Gold.PLP.part.hbond>
-3.3521

> <Gold.PLP.part.metal>
0.0000

> <Gold.PLP.part.buried>
4.0796

> <Gold.PLP.part.nonpolar>
-46.7529

> <Gold.PLP.part.repulsive>
5.1023

> <Gold.PLP.ligand.clash>
0.0000

> <Gold.PLP.ligand.torsion>
1.0125

> <Gold.PLP.Chemscore.Hbond>
1.2572

> <Gold.PLP.Chemscore.CHOScore>
0.0000

> <Gold.PLP.Chemscore.Metal>
0.0000

> <Gold.Chemscore.Hbonds>
donor molecule, donor type, donor heavy atom, donor atom, acceptor molecule, acceptor atom, score
      P1  H  5569  5594       L1    17  0.37
      P1  H  9067  9097       L1    17  0.32

> <Gold.PLP.Chemscore.Internal.Correction>
   9.000000E+99

