#       Name:                CT1002167954
#       Creating user name   hitesit
#       Creation time:       Sun Apr 16 22:51:12 2023


#       File generated by GOLD software.
#

@<TRIPOS>MOLECULE
CT1002167954|ligand_prepared|mol2|1|dock8
    29    30     1
SMALL
NO_CHARGES


@<TRIPOS>ATOM
      1 C1         126.5067 249.7530 353.7917 C.3            1 RES1               0.0000
      2 C2         125.9980 251.0399 354.4728 C.ar           1 RES1               0.0000
      3 C3         125.2706 249.0298 353.2650 C.2            1 RES1               0.0000
      4 C4         127.4764 250.2008 352.7037 C.2            1 RES1               0.0000
      5 C5         127.2648 248.7996 354.7445 C.3            1 RES1               0.0000
      6 C6         124.7424 251.5555 354.1655 C.ar           1 RES1               0.0000
      7 C7         126.7705 251.7199 355.4106 C.ar           1 RES1               0.0000
      8 N8         125.0502 249.0536 351.9193 N.am           1 RES1               0.0000
      9 O9         124.4802 248.4807 354.0226 O.2            1 RES1               0.0000
     10 N10        127.1302 249.9660 351.3988 N.am           1 RES1               0.0000
     11 O11        128.5294 250.7697 352.9639 O.2            1 RES1               0.0000
     12 C12        127.5595 247.4356 354.1404 C.3            1 RES1               0.0000
     13 C13        124.2747 252.7075 354.7758 C.ar           1 RES1               0.0000
     14 C14        126.3009 252.8719 356.0196 C.ar           1 RES1               0.0000
     15 C15        125.9470 249.4403 350.9561 C.2            1 RES1               0.0000
     16 C16        125.0533 253.3662 355.7035 C.ar           1 RES1               0.0000
     17 O17        125.6866 249.3103 349.7634 O.2            1 RES1               0.0000
     18 H18        128.2127 249.2698 355.0339 H              1 RES1               0.0000
     19 H19        126.6677 248.6612 355.6543 H              1 RES1               0.0000
     20 H20        124.1166 251.0522 353.4362 H              1 RES1               0.0000
     21 H21        127.7556 251.3500 355.6740 H              1 RES1               0.0000
     22 H22        124.1338 248.7564 351.5997 H              1 RES1               0.0000
     23 H23        127.8183 250.2051 350.6919 H              1 RES1               0.0000
     24 H24        128.0923 246.8064 354.8502 H              1 RES1               0.0000
     25 H25        126.6372 246.9288 353.8640 H              1 RES1               0.0000
     26 H26        128.1731 247.5338 353.2473 H              1 RES1               0.0000
     27 H27        123.2927 253.0932 354.5226 H              1 RES1               0.0000
     28 H28        126.9174 253.3874 356.7486 H              1 RES1               0.0000
     29 H29        124.6865 254.2684 356.1817 H              1 RES1               0.0000
@<TRIPOS>BOND
    1    1    2 1     
    2    1    3 1     
    3    1    4 1     
    4    1    5 1     
    5    2    6 ar    
    6    2    7 ar    
    7    3    8 1     
    8    3    9 2     
    9    4   10 1     
   10    4   11 2     
   11    5   12 1     
   12    5   18 1     
   13    5   19 1     
   14    6   13 ar    
   15    6   20 1     
   16    7   14 ar    
   17    7   21 1     
   18    8   15 1     
   19    8   22 1     
   20   10   15 1     
   21   10   23 1     
   22   12   24 1     
   23   12   25 1     
   24   12   26 1     
   25   13   16 ar    
   26   13   27 1     
   27   14   16 ar    
   28   14   28 1     
   29   15   17 2     
   30   16   29 1     
@<TRIPOS>SUBSTRUCTURE
      1 RES1           1
@<TRIPOS>SET
DONOR_HYDROGENS      STATIC     ATOMS    <user>   **** ""
2 22 23
ATOM$RED        STATIC     ATOMS    COLORGROUP SYSTEM
2 22 23
@<TRIPOS>COMMENT
> <Gold.Version>
2022.3.0

> <Gold.Id.Protein>
unknown|5adg_clean|pdb

> <Gold.Protein.RotatedTorsions>
[ 5561 5545 5544 5541 ] final  157.26 input   60.03 | X-H torsion
[ 12885 12857 12856 12854 ] final  159.78 input   60.00 | X-H torsion
[ 9097 9067 9066 9064 ] final   39.00 input   60.02 | X-H torsion
[ 8993 8977 8976 8973 ] final -135.05 input   60.01 | X-H torsion

> <Gold.Protein.ActiveResidues>
 TRP311  MET341  HIS342  TRP414  ALA417  ARG419  CYS420  VAL421  GLY422  LEU460 
 SER462  SER482  GLN483  ARG486  ALA502  ASN503  TYR567  GLY568  LEU569  PRO570 
 ALA571  VAL572  SER573  ASN574  MET575  LEU576  PHE589  SER590  GLY591  TRP592 
 TYR593  MET594  GLY595  GLU597  ILE598  ARG601  ARG608  ILE653  VAL654  TRP683 
 PHE709  GLU710  TYR711  GLN712  ASP714  HEM750  H4B760 

> <Gold.Protein.RotatedAtoms>
  127.9125  249.0592  361.7126 H   0  0  0  0  0  0  0  0  0  0  0  0  # atno 5561 bound_to 5545
  116.1906  244.7254  369.2396 H   0  0  0  0  0  0  0  0  0  0  0  0  # atno 8993 bound_to 8977
  122.6216  241.9047  360.8740 H   0  0  0  0  0  0  0  0  0  0  0  0  # atno 9097 bound_to 9067
  120.1458  254.5596  353.9404 H   0  0  0  0  0  0  0  0  0  0  0  0  # atno 12885 bound_to 12857
  127.3124  248.6529  363.1698 LP  0  0  0  0  0  0  0  0  0  0  0  0  # atno 13468 bound_to 5545
  128.7443  249.4303  363.0613 LP  0  0  0  0  0  0  0  0  0  0  0  0  # atno 13469 bound_to 5545
  120.1762  253.6809  355.3099 LP  0  0  0  0  0  0  0  0  0  0  0  0  # atno 13474 bound_to 12857
  121.5441  253.8967  354.4444 LP  0  0  0  0  0  0  0  0  0  0  0  0  # atno 13475 bound_to 12857
  123.4768  240.5460  360.6071 LP  0  0  0  0  0  0  0  0  0  0  0  0  # atno 13500 bound_to 9067
  122.8649  240.8509  362.0901 LP  0  0  0  0  0  0  0  0  0  0  0  0  # atno 13501 bound_to 9067
  115.2738  243.6771  368.3976 LP  0  0  0  0  0  0  0  0  0  0  0  0  # atno 13514 bound_to 8977
  114.9215  245.2715  368.3795 LP  0  0  0  0  0  0  0  0  0  0  0  0  # atno 13515 bound_to 8977

> <Gold.Score>
     Fitness  S(hb_ext) S(vdw_ext)  S(hb_int)    S(int)      intcor
     27.89       7.63      15.58       0.00      -1.16      -0.76

> <Gold.Goldscore.Fitness>
27.8860

> <Gold.Goldscore.Internal.Vdw>
-1.4077

> <Gold.Goldscore.Internal.Torsion>
-0.5217

> <Gold.Goldscore.External.Vdw>
15.5797

> <Gold.Goldscore.Internal.HBond>
0.0000

> <Gold.Goldscore.External.HBond>
7.6284

> <Gold.Goldscore.Internal.Correction>
-0.7650

> <Gold.Goldscore.Hbonds>
donor molecule, donor type, donor heavy atom, donor atom, acceptor molecule, acceptor atom, score
      P1  H 13408 13435       L1    17  0.74
      P1  H  9298  9321       L1    17  0.03
      L1  H     8    22       P1 13407  1.00

> <Gold.Goldscore.Internal.Vdw.Weighted>
-1.4077

> <Gold.Goldscore.Internal.Torsion.Weighted>
-0.5217

> <Gold.Goldscore.External.Vdw.Weighted>
21.4221

> <Gold.Goldscore.Internal.HBond.Weighted>
0.0000

> <Gold.Goldscore.External.HBond.Weighted>
7.6284

> <Gold.Goldscore.Internal.Correction.Weighted>
-0.7650

> <Gold.Rescore>
     Score     S(PLP)   S(hbond)     S(cho)   S(metal)  DE(clash)   DE(tors)     intcor
     28.35     -24.12       2.17       0.00       0.00       2.06       0.12       ----

> <Gold.PLP.Fitness>
28.3505

> <Gold.PLP.PLP>
-24.1190

> <Gold.PLP.part.hbond>
-2.0915

> <Gold.PLP.part.metal>
0.0000

> <Gold.PLP.part.buried>
-2.7324

> <Gold.PLP.part.nonpolar>
-19.7079

> <Gold.PLP.part.repulsive>
0.5482

> <Gold.PLP.ligand.clash>
2.0568

> <Gold.PLP.ligand.torsion>
0.1161

> <Gold.PLP.Chemscore.Hbond>
2.1735

> <Gold.PLP.Chemscore.CHOScore>
0.0000

> <Gold.PLP.Chemscore.Metal>
0.0000

> <Gold.Chemscore.Hbonds>
donor molecule, donor type, donor heavy atom, donor atom, acceptor molecule, acceptor atom, score
      L1  H     8    22       P1 13407  0.52
      P1  H 13408 13435       L1    17  0.91

> <Gold.PLP.Chemscore.Internal.Correction>
   9.000000E+99

