#       Name:                CT1002167954
#       Creating user name   hitesit
#       Creation time:       Sun Apr 16 22:51:08 2023


#       File generated by GOLD software.
#

@<TRIPOS>MOLECULE
CT1002167954|ligand_prepared|mol2|1|dock3
    29    30     1
SMALL
NO_CHARGES


@<TRIPOS>ATOM
      1 C1         117.6267 246.2700 360.0280 C.3            1 RES1               0.0000
      2 C2         118.4526 247.4385 359.4524 C.ar           1 RES1               0.0000
      3 C3         118.3796 245.7799 361.2614 C.2            1 RES1               0.0000
      4 C4         116.2419 246.8332 360.3275 C.2            1 RES1               0.0000
      5 C5         117.4586 245.0829 359.0512 C.3            1 RES1               0.0000
      6 C6         119.5516 247.1940 358.6344 C.ar           1 RES1               0.0000
      7 C7         118.1267 248.7638 359.7279 C.ar           1 RES1               0.0000
      8 N8         117.8586 246.0879 362.4835 N.am           1 RES1               0.0000
      9 O9         119.4353 245.1665 361.1637 O.2            1 RES1               0.0000
     10 N10        115.8421 246.8922 361.6369 N.am           1 RES1               0.0000
     11 O11        115.4998 247.2418 359.4428 O.2            1 RES1               0.0000
     12 C12        116.4323 244.0565 359.5044 C.3            1 RES1               0.0000
     13 C13        120.2961 248.2368 358.1083 C.ar           1 RES1               0.0000
     14 C14        118.8727 249.8051 359.2010 C.ar           1 RES1               0.0000
     15 C15        116.5998 246.5736 362.7308 C.2            1 RES1               0.0000
     16 C16        119.9570 249.5428 358.3908 C.ar           1 RES1               0.0000
     17 O17        116.1892 246.7050 363.8803 O.2            1 RES1               0.0000
     18 H18        117.1591 245.4724 358.0704 H              1 RES1               0.0000
     19 H19        118.4282 244.5837 358.9319 H              1 RES1               0.0000
     20 H20        119.8351 246.1727 358.4030 H              1 RES1               0.0000
     21 H21        117.2784 248.9938 360.3636 H              1 RES1               0.0000
     22 H22        118.4607 245.9439 363.2879 H              1 RES1               0.0000
     23 H23        114.8917 247.2023 361.8124 H              1 RES1               0.0000
     24 H24        116.3537 243.2454 358.7836 H              1 RES1               0.0000
     25 H25        116.7119 243.6299 360.4655 H              1 RES1               0.0000
     26 H26        115.4503 244.5132 359.6091 H              1 RES1               0.0000
     27 H27        121.1494 248.0250 357.4724 H              1 RES1               0.0000
     28 H28        118.6026 250.8314 359.4265 H              1 RES1               0.0000
     29 H29        120.5402 250.3595 357.9783 H              1 RES1               0.0000
@<TRIPOS>BOND
    1    1    2 1     
    2    1    3 1     
    3    1    4 1     
    4    1    5 1     
    5    2    6 ar    
    6    2    7 ar    
    7    3    8 1     
    8    3    9 2     
    9    4   10 1     
   10    4   11 2     
   11    5   12 1     
   12    5   18 1     
   13    5   19 1     
   14    6   13 ar    
   15    6   20 1     
   16    7   14 ar    
   17    7   21 1     
   18    8   15 1     
   19    8   22 1     
   20   10   15 1     
   21   10   23 1     
   22   12   24 1     
   23   12   25 1     
   24   12   26 1     
   25   13   16 ar    
   26   13   27 1     
   27   14   16 ar    
   28   14   28 1     
   29   15   17 2     
   30   16   29 1     
@<TRIPOS>SUBSTRUCTURE
      1 RES1           1
@<TRIPOS>SET
DONOR_HYDROGENS      STATIC     ATOMS    <user>   **** ""
2 22 23
ATOM$RED        STATIC     ATOMS    COLORGROUP SYSTEM
2 22 23
@<TRIPOS>COMMENT
> <Gold.Version>
2022.3.0

> <Gold.Id.Protein>
unknown|5adg_clean|pdb

> <Gold.Protein.RotatedTorsions>
[ 5561 5545 5544 5541 ] final   15.07 input   60.03 | X-H torsion
[ 12885 12857 12856 12854 ] final  124.48 input   60.00 | X-H torsion
[ 9097 9067 9066 9064 ] final  -12.51 input   60.02 | X-H torsion
[ 8993 8977 8976 8973 ] final  -32.37 input   60.01 | X-H torsion

> <Gold.Protein.ActiveResidues>
 TRP311  MET341  HIS342  TRP414  ALA417  ARG419  CYS420  VAL421  GLY422  LEU460 
 SER462  SER482  GLN483  ARG486  ALA502  ASN503  TYR567  GLY568  LEU569  PRO570 
 ALA571  VAL572  SER573  ASN574  MET575  LEU576  PHE589  SER590  GLY591  TRP592 
 TYR593  MET594  GLY595  GLU597  ILE598  ARG601  ARG608  ILE653  VAL654  TRP683 
 PHE709  GLU710  TYR711  GLN712  ASP714  HEM750  H4B760 

> <Gold.Protein.RotatedAtoms>
  127.5460  248.7669  363.4212 H   0  0  0  0  0  0  0  0  0  0  0  0  # atno 5561 bound_to 5545
  115.1082  245.4140  368.5376 H   0  0  0  0  0  0  0  0  0  0  0  0  # atno 8993 bound_to 8977
  123.0337  241.4646  360.3275 H   0  0  0  0  0  0  0  0  0  0  0  0  # atno 9097 bound_to 9067
  119.7800  254.3940  354.3418 H   0  0  0  0  0  0  0  0  0  0  0  0  # atno 12885 bound_to 12857
  128.8194  249.4902  362.7113 LP  0  0  0  0  0  0  0  0  0  0  0  0  # atno 13468 bound_to 5545
  127.6063  248.8874  361.7993 LP  0  0  0  0  0  0  0  0  0  0  0  0  # atno 13469 bound_to 5545
  120.7257  253.5262  355.3424 LP  0  0  0  0  0  0  0  0  0  0  0  0  # atno 13474 bound_to 12857
  121.3630  254.2180  354.0076 LP  0  0  0  0  0  0  0  0  0  0  0  0  # atno 13475 bound_to 12857
  123.4022  240.2771  361.3775 LP  0  0  0  0  0  0  0  0  0  0  0  0  # atno 13500 bound_to 9067
  122.5246  241.5630  361.8701 LP  0  0  0  0  0  0  0  0  0  0  0  0  # atno 13501 bound_to 9067
  116.2215  244.4445  369.2226 LP  0  0  0  0  0  0  0  0  0  0  0  0  # atno 13514 bound_to 8977
  115.0635  243.8108  368.2613 LP  0  0  0  0  0  0  0  0  0  0  0  0  # atno 13515 bound_to 8977

> <Gold.Score>
     Fitness  S(hb_ext) S(vdw_ext)  S(hb_int)    S(int)      intcor
     59.07      10.32      36.07       0.00      -0.84      -0.76

> <Gold.Goldscore.Fitness>
59.0684

> <Gold.Goldscore.Internal.Vdw>
-1.0494

> <Gold.Goldscore.Internal.Torsion>
-0.5586

> <Gold.Goldscore.External.Vdw>
36.0654

> <Gold.Goldscore.Internal.HBond>
0.0000

> <Gold.Goldscore.External.HBond>
10.3216

> <Gold.Goldscore.Internal.Correction>
-0.7650

> <Gold.Goldscore.Hbonds>
donor molecule, donor type, donor heavy atom, donor atom, acceptor molecule, acceptor atom, score
      P1  H  8444  8467       L1    17  0.16
      P1  M 13289 13530       L1    11  1.00

> <Gold.Goldscore.Internal.Vdw.Weighted>
-1.0494

> <Gold.Goldscore.Internal.Torsion.Weighted>
-0.5586

> <Gold.Goldscore.External.Vdw.Weighted>
49.5899

> <Gold.Goldscore.Internal.HBond.Weighted>
0.0000

> <Gold.Goldscore.External.HBond.Weighted>
10.3216

> <Gold.Goldscore.Internal.Correction.Weighted>
-0.7650

> <Gold.Rescore>
     Score     S(PLP)   S(hbond)     S(cho)   S(metal)  DE(clash)   DE(tors)     intcor
     53.33     -48.92       0.04       0.00       1.00       0.00       0.85       ----

> <Gold.PLP.Fitness>
53.3274

> <Gold.PLP.PLP>
-48.9154

> <Gold.PLP.part.hbond>
-3.0000

> <Gold.PLP.part.metal>
-0.8359

> <Gold.PLP.part.buried>
10.4971

> <Gold.PLP.part.nonpolar>
-62.4481

> <Gold.PLP.part.repulsive>
3.9352

> <Gold.PLP.ligand.clash>
0.0000

> <Gold.PLP.ligand.torsion>
0.8534

> <Gold.PLP.Chemscore.Hbond>
0.0396

> <Gold.PLP.Chemscore.CHOScore>
0.0000

> <Gold.PLP.Chemscore.Metal>
1.0000

> <Gold.Chemscore.Hbonds>
donor molecule, donor type, donor heavy atom, donor atom, acceptor molecule, acceptor atom, score
      L1  H     8    22       P1  8399  0.07
      P1  M 13289 13289       L1    11  1.00

> <Gold.PLP.Chemscore.Internal.Correction>
   9.000000E+99

