#       Name:                CT1002167954
#       Creating user name   hitesit
#       Creation time:       Sun Apr 16 22:51:14 2023


#       File generated by GOLD software.
#

@<TRIPOS>MOLECULE
CT1002167954|ligand_prepared|mol2|1|dock10
    29    30     1
SMALL
NO_CHARGES


@<TRIPOS>ATOM
      1 C1         124.9960 248.1552 357.1758 C.3            1 RES1               0.0000
      2 C2         124.5718 248.9238 358.4440 C.ar           1 RES1               0.0000
      3 C3         123.7512 247.4242 356.6814 C.2            1 RES1               0.0000
      4 C4         125.5314 249.2000 356.2029 C.2            1 RES1               0.0000
      5 C5         126.1126 247.1137 357.4206 C.3            1 RES1               0.0000
      6 C6         125.1111 248.5965 359.6845 C.ar           1 RES1               0.0000
      7 C7         123.6460 249.9622 358.3889 C.ar           1 RES1               0.0000
      8 N8         123.1321 247.9121 355.5685 N.am           1 RES1               0.0000
      9 O9         123.2970 246.4579 357.2817 O.2            1 RES1               0.0000
     10 N10        124.8357 249.4120 355.0415 N.am           1 RES1               0.0000
     11 O11        126.5402 249.8533 356.4392 O.2            1 RES1               0.0000
     12 C12        126.5920 246.4200 356.1553 C.3            1 RES1               0.0000
     13 C13        124.7405 249.2844 360.8281 C.ar           1 RES1               0.0000
     14 C14        123.2767 250.6487 359.5338 C.ar           1 RES1               0.0000
     15 C15        123.6435 248.8373 354.6944 C.2            1 RES1               0.0000
     16 C16        123.8235 250.3111 360.7535 C.ar           1 RES1               0.0000
     17 O17        123.0508 249.1197 353.6570 O.2            1 RES1               0.0000
     18 H18        126.9660 247.6154 357.8932 H              1 RES1               0.0000
     19 H19        125.7405 246.3548 358.1199 H              1 RES1               0.0000
     20 H20        125.8323 247.7898 359.7631 H              1 RES1               0.0000
     21 H21        123.2019 250.2445 357.4403 H              1 RES1               0.0000
     22 H22        122.2030 247.5562 355.3677 H              1 RES1               0.0000
     23 H23        125.2446 250.0581 354.3738 H              1 RES1               0.0000
     24 H24        127.3750 245.6998 356.3833 H              1 RES1               0.0000
     25 H25        125.7738 245.8896 355.6725 H              1 RES1               0.0000
     26 H26        126.9921 247.1427 355.4471 H              1 RES1               0.0000
     27 H27        125.1728 249.0139 361.7858 H              1 RES1               0.0000
     28 H28        122.5541 251.4557 359.4705 H              1 RES1               0.0000
     29 H29        123.5337 250.8501 361.6495 H              1 RES1               0.0000
@<TRIPOS>BOND
    1    1    2 1     
    2    1    3 1     
    3    1    4 1     
    4    1    5 1     
    5    2    6 ar    
    6    2    7 ar    
    7    3    8 1     
    8    3    9 2     
    9    4   10 1     
   10    4   11 2     
   11    5   12 1     
   12    5   18 1     
   13    5   19 1     
   14    6   13 ar    
   15    6   20 1     
   16    7   14 ar    
   17    7   21 1     
   18    8   15 1     
   19    8   22 1     
   20   10   15 1     
   21   10   23 1     
   22   12   24 1     
   23   12   25 1     
   24   12   26 1     
   25   13   16 ar    
   26   13   27 1     
   27   14   16 ar    
   28   14   28 1     
   29   15   17 2     
   30   16   29 1     
@<TRIPOS>SUBSTRUCTURE
      1 RES1           1
@<TRIPOS>SET
DONOR_HYDROGENS      STATIC     ATOMS    <user>   **** ""
2 22 23
ATOM$RED        STATIC     ATOMS    COLORGROUP SYSTEM
2 22 23
@<TRIPOS>COMMENT
> <Gold.Version>
2022.3.0

> <Gold.Id.Protein>
unknown|5adg_clean|pdb

> <Gold.Protein.RotatedTorsions>
[ 5561 5545 5544 5541 ] final   47.48 input   60.03 | X-H torsion
[ 12885 12857 12856 12854 ] final  -35.71 input   60.00 | X-H torsion
[ 9097 9067 9066 9064 ] final  -16.91 input   60.02 | X-H torsion
[ 8993 8977 8976 8973 ] final   33.07 input   60.01 | X-H torsion

> <Gold.Protein.ActiveResidues>
 TRP311  MET341  HIS342  TRP414  ALA417  ARG419  CYS420  VAL421  GLY422  LEU460 
 SER462  SER482  GLN483  ARG486  ALA502  ASN503  TYR567  GLY568  LEU569  PRO570 
 ALA571  VAL572  SER573  ASN574  MET575  LEU576  PHE589  SER590  GLY591  TRP592 
 TYR593  MET594  GLY595  GLU597  ILE598  ARG601  ARG608  ILE653  VAL654  TRP683 
 PHE709  GLU710  TYR711  GLN712  ASP714  HEM750  H4B760 

> <Gold.Protein.RotatedAtoms>
  127.2421  248.6255  363.0201 H   0  0  0  0  0  0  0  0  0  0  0  0  # atno 5561 bound_to 5545
  114.7126  244.5835  368.1148 H   0  0  0  0  0  0  0  0  0  0  0  0  # atno 8993 bound_to 8977
  123.0722  241.4069  360.3083 H   0  0  0  0  0  0  0  0  0  0  0  0  # atno 9097 bound_to 9067
  121.2886  253.5877  355.0326 H   0  0  0  0  0  0  0  0  0  0  0  0  # atno 12885 bound_to 12857
  128.6709  249.3827  363.2047 LP  0  0  0  0  0  0  0  0  0  0  0  0  # atno 13468 bound_to 5545
  128.0609  249.1372  361.7099 LP  0  0  0  0  0  0  0  0  0  0  0  0  # atno 13469 bound_to 5545
  120.8332  254.5012  353.7650 LP  0  0  0  0  0  0  0  0  0  0  0  0  # atno 13474 bound_to 12857
  119.7363  254.0550  354.8894 LP  0  0  0  0  0  0  0  0  0  0  0  0  # atno 13475 bound_to 12857
  123.3783  240.2837  361.4456 LP  0  0  0  0  0  0  0  0  0  0  0  0  # atno 13500 bound_to 9067
  122.5097  241.6145  361.8213 LP  0  0  0  0  0  0  0  0  0  0  0  0  # atno 13501 bound_to 9067
  115.7996  245.3558  369.0477 LP  0  0  0  0  0  0  0  0  0  0  0  0  # atno 13514 bound_to 8977
  115.8837  243.7357  368.8618 LP  0  0  0  0  0  0  0  0  0  0  0  0  # atno 13515 bound_to 8977

> <Gold.Score>
     Fitness  S(hb_ext) S(vdw_ext)  S(hb_int)    S(int)      intcor
     26.34       4.09      16.75       0.00      -0.78      -0.76

> <Gold.Goldscore.Fitness>
26.3423

> <Gold.Goldscore.Internal.Vdw>
-1.1479

> <Gold.Goldscore.Internal.Torsion>
-0.3873

> <Gold.Goldscore.External.Vdw>
16.7505

> <Gold.Goldscore.Internal.HBond>
0.0000

> <Gold.Goldscore.External.HBond>
4.0871

> <Gold.Goldscore.Internal.Correction>
-0.7585

> <Gold.Goldscore.Hbonds>
donor molecule, donor type, donor heavy atom, donor atom, acceptor molecule, acceptor atom, score
      L1  H     8    22       P1 13278  0.68

> <Gold.Goldscore.Internal.Vdw.Weighted>
-1.1479

> <Gold.Goldscore.Internal.Torsion.Weighted>
-0.3873

> <Gold.Goldscore.External.Vdw.Weighted>
23.0319

> <Gold.Goldscore.Internal.HBond.Weighted>
0.0000

> <Gold.Goldscore.External.HBond.Weighted>
4.0871

> <Gold.Goldscore.Internal.Correction.Weighted>
-0.7585

> <Gold.Rescore>
     Score     S(PLP)   S(hbond)     S(cho)   S(metal)  DE(clash)   DE(tors)     intcor
     21.30     -18.33       0.99       0.00       0.00       0.00       0.00       ----

> <Gold.PLP.Fitness>
21.2963

> <Gold.PLP.PLP>
-18.3314

> <Gold.PLP.part.hbond>
-1.0000

> <Gold.PLP.part.metal>
0.0000

> <Gold.PLP.part.buried>
-2.0555

> <Gold.PLP.part.nonpolar>
-16.1591

> <Gold.PLP.part.repulsive>
0.8818

> <Gold.PLP.ligand.clash>
0.0000

> <Gold.PLP.ligand.torsion>
0.0044

> <Gold.PLP.Chemscore.Hbond>
0.9913

> <Gold.PLP.Chemscore.CHOScore>
0.0000

> <Gold.PLP.Chemscore.Metal>
0.0000

> <Gold.Chemscore.Hbonds>
donor molecule, donor type, donor heavy atom, donor atom, acceptor molecule, acceptor atom, score
      L1  H     8    22       P1 13278  0.75

> <Gold.PLP.Chemscore.Internal.Correction>
   9.000000E+99

