#       Name:                CT1002167954
#       Creating user name   hitesit
#       Creation time:       Sun Apr 16 22:51:07 2023


#       File generated by GOLD software.
#

@<TRIPOS>MOLECULE
CT1002167954|ligand_prepared|mol2|1|dock2
    29    30     1
SMALL
NO_CHARGES


@<TRIPOS>ATOM
      1 C1         121.9955 248.7841 358.6706 C.3            1 RES1               0.0000
      2 C2         120.8020 247.8172 358.8102 C.ar           1 RES1               0.0000
      3 C3         121.5783 249.8347 357.6458 C.2            1 RES1               0.0000
      4 C4         122.2563 249.3439 360.0646 C.2            1 RES1               0.0000
      5 C5         123.2948 248.1057 358.1775 C.3            1 RES1               0.0000
      6 C6         120.9440 246.6091 359.4862 C.ar           1 RES1               0.0000
      7 C7         119.5544 248.1203 358.2715 C.ar           1 RES1               0.0000
      8 N8         121.2712 251.0807 358.1075 N.am           1 RES1               0.0000
      9 O9         121.4819 249.5633 356.4553 O.2            1 RES1               0.0000
     10 N10        122.0461 250.6825 360.2687 N.am           1 RES1               0.0000
     11 O11        122.6260 248.6347 360.9924 O.2            1 RES1               0.0000
     12 C12        124.4098 249.0848 357.8455 C.3            1 RES1               0.0000
     13 C13        119.8767 245.7368 359.6215 C.ar           1 RES1               0.0000
     14 C14        118.4884 247.2464 358.4077 C.ar           1 RES1               0.0000
     15 C15        121.5359 251.5704 359.3612 C.2            1 RES1               0.0000
     16 C16        118.6482 246.0550 359.0828 C.ar           1 RES1               0.0000
     17 O17        121.3239 252.7480 359.6360 O.2            1 RES1               0.0000
     18 H18        123.6497 247.4163 358.9534 H              1 RES1               0.0000
     19 H19        123.0664 247.5141 357.2823 H              1 RES1               0.0000
     20 H20        121.9039 246.3406 359.9147 H              1 RES1               0.0000
     21 H21        119.4057 249.0514 357.7354 H              1 RES1               0.0000
     22 H22        120.8012 251.7062 357.4608 H              1 RES1               0.0000
     23 H23        122.2929 251.0512 361.1816 H              1 RES1               0.0000
     24 H24        125.2980 248.5569 357.5046 H              1 RES1               0.0000
     25 H25        124.1001 249.7700 357.0591 H              1 RES1               0.0000
     26 H26        124.6799 249.6728 358.7203 H              1 RES1               0.0000
     27 H27        120.0080 244.7998 360.1525 H              1 RES1               0.0000
     28 H28        117.5235 247.5006 357.9816 H              1 RES1               0.0000
     29 H29        117.8122 245.3717 359.1892 H              1 RES1               0.0000
@<TRIPOS>BOND
    1    1    2 1     
    2    1    3 1     
    3    1    4 1     
    4    1    5 1     
    5    2    6 ar    
    6    2    7 ar    
    7    3    8 1     
    8    3    9 2     
    9    4   10 1     
   10    4   11 2     
   11    5   12 1     
   12    5   18 1     
   13    5   19 1     
   14    6   13 ar    
   15    6   20 1     
   16    7   14 ar    
   17    7   21 1     
   18    8   15 1     
   19    8   22 1     
   20   10   15 1     
   21   10   23 1     
   22   12   24 1     
   23   12   25 1     
   24   12   26 1     
   25   13   16 ar    
   26   13   27 1     
   27   14   16 ar    
   28   14   28 1     
   29   15   17 2     
   30   16   29 1     
@<TRIPOS>SUBSTRUCTURE
      1 RES1           1
@<TRIPOS>SET
DONOR_HYDROGENS      STATIC     ATOMS    <user>   **** ""
2 22 23
ATOM$RED        STATIC     ATOMS    COLORGROUP SYSTEM
2 22 23
@<TRIPOS>COMMENT
> <Gold.Version>
2022.3.0

> <Gold.Id.Protein>
unknown|5adg_clean|pdb

> <Gold.Protein.RotatedTorsions>
[ 5561 5545 5544 5541 ] final -178.90 input   60.03 | X-H torsion
[ 12885 12857 12856 12854 ] final   -8.26 input   60.00 | X-H torsion
[ 9097 9067 9066 9064 ] final   49.32 input   60.02 | X-H torsion
[ 8993 8977 8976 8973 ] final -179.42 input   60.01 | X-H torsion

> <Gold.Protein.ActiveResidues>
 TRP311  MET341  HIS342  TRP414  ALA417  ARG419  CYS420  VAL421  GLY422  LEU460 
 SER462  SER482  GLN483  ARG486  ALA502  ASN503  TYR567  GLY568  LEU569  PRO570 
 ALA571  VAL572  SER573  ASN574  MET575  LEU576  PHE589  SER590  GLY591  TRP592 
 TYR593  MET594  GLY595  GLU597  ILE598  ARG601  ARG608  ILE653  VAL654  TRP683 
 PHE709  GLU710  TYR711  GLN712  ASP714  HEM750  H4B760 

> <Gold.Protein.RotatedAtoms>
  128.2510  249.2385  361.7671 H   0  0  0  0  0  0  0  0  0  0  0  0  # atno 5561 bound_to 5545
  116.1248  244.0385  369.0850 H   0  0  0  0  0  0  0  0  0  0  0  0  # atno 8993 bound_to 8977
  122.5647  241.9230  361.0314 H   0  0  0  0  0  0  0  0  0  0  0  0  # atno 9097 bound_to 9067
  120.9236  253.5216  355.2770 H   0  0  0  0  0  0  0  0  0  0  0  0  # atno 12885 bound_to 12857
  127.1761  248.5996  362.8088 LP  0  0  0  0  0  0  0  0  0  0  0  0  # atno 13468 bound_to 5545
  128.5398  249.3031  363.3675 LP  0  0  0  0  0  0  0  0  0  0  0  0  # atno 13469 bound_to 5545
  121.2235  254.3245  353.8935 LP  0  0  0  0  0  0  0  0  0  0  0  0  # atno 13474 bound_to 12857
  119.7135  254.2984  354.5147 LP  0  0  0  0  0  0  0  0  0  0  0  0  # atno 13475 bound_to 12857
  123.4436  240.6646  360.4907 LP  0  0  0  0  0  0  0  0  0  0  0  0  # atno 13500 bound_to 9067
  122.9554  240.7138  362.0482 LP  0  0  0  0  0  0  0  0  0  0  0  0  # atno 13501 bound_to 9067
  114.8140  244.1485  368.1269 LP  0  0  0  0  0  0  0  0  0  0  0  0  # atno 13514 bound_to 8977
  115.4476  245.4917  368.8059 LP  0  0  0  0  0  0  0  0  0  0  0  0  # atno 13515 bound_to 8977

> <Gold.Score>
     Fitness  S(hb_ext) S(vdw_ext)  S(hb_int)    S(int)      intcor
     35.69       6.52      22.27       0.00      -1.46      -0.79

> <Gold.Goldscore.Fitness>
35.6861

> <Gold.Goldscore.Internal.Vdw>
-1.7598

> <Gold.Goldscore.Internal.Torsion>
-0.4855

> <Gold.Goldscore.External.Vdw>
22.2723

> <Gold.Goldscore.Internal.HBond>
0.0000

> <Gold.Goldscore.External.HBond>
6.5211

> <Gold.Goldscore.Internal.Correction>
-0.7860

> <Gold.Goldscore.Hbonds>
donor molecule, donor type, donor heavy atom, donor atom, acceptor molecule, acceptor atom, score
      P1  H  5569  5595       L1    11  0.26
      L1  H     8    22       P1 13273  1.00

> <Gold.Goldscore.Internal.Vdw.Weighted>
-1.7598

> <Gold.Goldscore.Internal.Torsion.Weighted>
-0.4855

> <Gold.Goldscore.External.Vdw.Weighted>
30.6244

> <Gold.Goldscore.Internal.HBond.Weighted>
0.0000

> <Gold.Goldscore.External.HBond.Weighted>
6.5211

> <Gold.Goldscore.Internal.Correction.Weighted>
-0.7860

> <Gold.Rescore>
     Score     S(PLP)   S(hbond)     S(cho)   S(metal)  DE(clash)   DE(tors)     intcor
     32.15     -28.44       1.81       0.00       0.00       0.00       0.86       ----

> <Gold.PLP.Fitness>
32.1473

> <Gold.PLP.PLP>
-28.4353

> <Gold.PLP.part.hbond>
-2.0000

> <Gold.PLP.part.metal>
0.0000

> <Gold.PLP.part.buried>
-2.5234

> <Gold.PLP.part.nonpolar>
-27.6765

> <Gold.PLP.part.repulsive>
3.2200

> <Gold.PLP.ligand.clash>
0.0000

> <Gold.PLP.ligand.torsion>
0.8560

> <Gold.PLP.Chemscore.Hbond>
1.8080

> <Gold.PLP.Chemscore.CHOScore>
0.0000

> <Gold.PLP.Chemscore.Metal>
0.0000

> <Gold.Chemscore.Hbonds>
donor molecule, donor type, donor heavy atom, donor atom, acceptor molecule, acceptor atom, score
      L1  H     8    22       P1 13273  0.99

> <Gold.PLP.Chemscore.Internal.Correction>
   9.000000E+99

