#       Name:                CT1002167954
#       Creating user name   hitesit
#       Creation time:       Sun Apr 16 22:51:11 2023


#       File generated by GOLD software.
#

@<TRIPOS>MOLECULE
CT1002167954|ligand_prepared|mol2|1|dock6
    29    30     1
SMALL
NO_CHARGES


@<TRIPOS>ATOM
      1 C1         122.9117 244.6667 357.0116 C.3            1 RES1               0.0000
      2 C2         122.3727 245.9853 357.6026 C.ar           1 RES1               0.0000
      3 C3         124.4081 244.8737 356.7963 C.2            1 RES1               0.0000
      4 C4         122.5736 243.5765 358.0225 C.2            1 RES1               0.0000
      5 C5         122.2698 244.2797 355.6590 C.3            1 RES1               0.0000
      6 C6         123.2429 246.9288 358.1404 C.ar           1 RES1               0.0000
      7 C7         121.0104 246.2731 357.6147 C.ar           1 RES1               0.0000
      8 N8         125.2625 244.2504 357.6573 N.am           1 RES1               0.0000
      9 O9         124.8309 245.6045 355.9090 O.2            1 RES1               0.0000
     10 N10        123.6111 242.9461 358.6581 N.am           1 RES1               0.0000
     11 O11        121.4177 243.2691 358.2865 O.2            1 RES1               0.0000
     12 C12        122.9690 243.1269 354.9559 C.3            1 RES1               0.0000
     13 C13        122.7689 248.1183 358.6685 C.ar           1 RES1               0.0000
     14 C14        120.5385 247.4631 358.1435 C.ar           1 RES1               0.0000
     15 C15        124.9392 243.2549 358.5440 C.2            1 RES1               0.0000
     16 C16        121.4166 248.3864 358.6700 C.ar           1 RES1               0.0000
     17 O17        125.8097 242.6787 359.1901 O.2            1 RES1               0.0000
     18 H18        121.2218 244.0048 355.8313 H              1 RES1               0.0000
     19 H19        122.2824 245.1557 354.9987 H              1 RES1               0.0000
     20 H20        124.3102 246.7342 358.1502 H              1 RES1               0.0000
     21 H21        120.3011 245.5610 357.2069 H              1 RES1               0.0000
     22 H22        126.2314 244.5524 357.6404 H              1 RES1               0.0000
     23 H23        123.3711 242.1752 359.2733 H              1 RES1               0.0000
     24 H24        122.4788 242.8961 354.0125 H              1 RES1               0.0000
     25 H25        124.0073 243.3756 354.7464 H              1 RES1               0.0000
     26 H26        122.9530 242.2316 355.5740 H              1 RES1               0.0000
     27 H27        123.4640 248.8410 359.0829 H              1 RES1               0.0000
     28 H28        119.4733 247.6697 358.1432 H              1 RES1               0.0000
     29 H29        121.0455 249.3184 359.0834 H              1 RES1               0.0000
@<TRIPOS>BOND
    1    1    2 1     
    2    1    3 1     
    3    1    4 1     
    4    1    5 1     
    5    2    6 ar    
    6    2    7 ar    
    7    3    8 1     
    8    3    9 2     
    9    4   10 1     
   10    4   11 2     
   11    5   12 1     
   12    5   18 1     
   13    5   19 1     
   14    6   13 ar    
   15    6   20 1     
   16    7   14 ar    
   17    7   21 1     
   18    8   15 1     
   19    8   22 1     
   20   10   15 1     
   21   10   23 1     
   22   12   24 1     
   23   12   25 1     
   24   12   26 1     
   25   13   16 ar    
   26   13   27 1     
   27   14   16 ar    
   28   14   28 1     
   29   15   17 2     
   30   16   29 1     
@<TRIPOS>SUBSTRUCTURE
      1 RES1           1
@<TRIPOS>SET
DONOR_HYDROGENS      STATIC     ATOMS    <user>   **** ""
2 22 23
ATOM$RED        STATIC     ATOMS    COLORGROUP SYSTEM
2 22 23
@<TRIPOS>COMMENT
> <Gold.Version>
2022.3.0

> <Gold.Id.Protein>
unknown|5adg_clean|pdb

> <Gold.Protein.RotatedTorsions>
[ 5561 5545 5544 5541 ] final  -94.51 input   60.03 | X-H torsion
[ 12885 12857 12856 12854 ] final  133.43 input   60.00 | X-H torsion
[ 9097 9067 9066 9064 ] final   90.02 input   60.02 | X-H torsion
[ 8993 8977 8976 8973 ] final  -59.23 input   60.01 | X-H torsion

> <Gold.Protein.ActiveResidues>
 TRP311  MET341  HIS342  TRP414  ALA417  ARG419  CYS420  VAL421  GLY422  LEU460 
 SER462  SER482  GLN483  ARG486  ALA502  ASN503  TYR567  GLY568  LEU569  PRO570 
 ALA571  VAL572  SER573  ASN574  MET575  LEU576  PHE589  SER590  GLY591  TRP592 
 TYR593  MET594  GLY595  GLU597  ILE598  ARG601  ARG608  ILE653  VAL654  TRP683 
 PHE709  GLU710  TYR711  GLN712  ASP714  HEM750  H4B760 

> <Gold.Protein.RotatedAtoms>
  128.7928  249.4686  362.8787 H   0  0  0  0  0  0  0  0  0  0  0  0  # atno 5561 bound_to 5545
  115.4466  245.4859  368.8011 H   0  0  0  0  0  0  0  0  0  0  0  0  # atno 8993 bound_to 8977
  122.4839  241.7428  361.6520 H   0  0  0  0  0  0  0  0  0  0  0  0  # atno 9097 bound_to 9067
  119.8471  254.4515  354.2254 H   0  0  0  0  0  0  0  0  0  0  0  0  # atno 12885 bound_to 12857
  127.7458  248.9659  361.7386 LP  0  0  0  0  0  0  0  0  0  0  0  0  # atno 13468 bound_to 5545
  127.4244  248.7050  363.3183 LP  0  0  0  0  0  0  0  0  0  0  0  0  # atno 13469 bound_to 5545
  120.5816  253.5485  355.3628 LP  0  0  0  0  0  0  0  0  0  0  0  0  # atno 13474 bound_to 12857
  121.4395  254.1379  354.1045 LP  0  0  0  0  0  0  0  0  0  0  0  0  # atno 13475 bound_to 12857
  123.1859  241.2284  360.2768 LP  0  0  0  0  0  0  0  0  0  0  0  0  # atno 13500 bound_to 9067
  123.2945  240.3316  361.6372 LP  0  0  0  0  0  0  0  0  0  0  0  0  # atno 13501 bound_to 9067
  116.1291  244.0372  369.0912 LP  0  0  0  0  0  0  0  0  0  0  0  0  # atno 13514 bound_to 8977
  114.8153  244.1457  368.1274 LP  0  0  0  0  0  0  0  0  0  0  0  0  # atno 13515 bound_to 8977

> <Gold.Score>
     Fitness  S(hb_ext) S(vdw_ext)  S(hb_int)    S(int)      intcor
     36.23       4.87      23.94       0.00      -1.55      -0.76

> <Gold.Goldscore.Fitness>
36.2304

> <Gold.Goldscore.Internal.Vdw>
-1.7683

> <Gold.Goldscore.Internal.Torsion>
-0.5431

> <Gold.Goldscore.External.Vdw>
23.9352

> <Gold.Goldscore.Internal.HBond>
0.0000

> <Gold.Goldscore.External.HBond>
4.8659

> <Gold.Goldscore.Internal.Correction>
-0.7650

> <Gold.Goldscore.Hbonds>
donor molecule, donor type, donor heavy atom, donor atom, acceptor molecule, acceptor atom, score
      P1  H  9508  9544       L1    17  0.59
      L1  H    10    23       P1  9067  0.65

> <Gold.Goldscore.Internal.Vdw.Weighted>
-1.7683

> <Gold.Goldscore.Internal.Torsion.Weighted>
-0.5431

> <Gold.Goldscore.External.Vdw.Weighted>
32.9109

> <Gold.Goldscore.Internal.HBond.Weighted>
0.0000

> <Gold.Goldscore.External.HBond.Weighted>
4.8659

> <Gold.Goldscore.Internal.Correction.Weighted>
-0.7650

> <Gold.Rescore>
     Score     S(PLP)   S(hbond)     S(cho)   S(metal)  DE(clash)   DE(tors)     intcor
     21.37     -21.38       0.86       0.00       0.00       1.94       0.33       ----

> <Gold.PLP.Fitness>
21.3706

> <Gold.PLP.PLP>
-21.3771

> <Gold.PLP.part.hbond>
-3.2520

> <Gold.PLP.part.metal>
0.0000

> <Gold.PLP.part.buried>
-2.7469

> <Gold.PLP.part.nonpolar>
-18.0747

> <Gold.PLP.part.repulsive>
1.2163

> <Gold.PLP.ligand.clash>
1.9375

> <Gold.PLP.ligand.torsion>
0.3304

> <Gold.PLP.Chemscore.Hbond>
0.8640

> <Gold.PLP.Chemscore.CHOScore>
0.0000

> <Gold.PLP.Chemscore.Metal>
0.0000

> <Gold.Chemscore.Hbonds>
donor molecule, donor type, donor heavy atom, donor atom, acceptor molecule, acceptor atom, score
      L1  H    10    23       P1  9067  0.34
      P1  H  9508  9544       L1    17  0.16

> <Gold.PLP.Chemscore.Internal.Correction>
   9.000000E+99

