@<TRIPOS>MOLECULE
A:XEB800
    41    43     1     0     1
SMALL
NO_CHARGES
****
Generated from the CSD

@<TRIPOS>ATOM
     1 CL     124.7450 253.6920 357.6270   Cl        1 XEB800   0.0000
     2 N01    117.5490 244.5620 358.9780   N.ar      1 XEB800   0.0000
     3 C02    116.5520 243.9240 359.6160   C.ar      1 XEB800   0.0000
     4 N02    116.3980 242.5890 359.4100   N.pl3     1 XEB800   0.0000
     5 C03    115.7080 244.6260 360.4760   C.ar      1 XEB800   0.0000
     6 C04    115.8890 245.9960 360.6540   C.ar      1 XEB800   0.0000
     7 C05    116.9250 246.6250 359.9660   C.ar      1 XEB800   0.0000
     8 C06    117.1470 247.9890 360.1030   C.ar      1 XEB800   0.0000
     9 C07    118.1870 248.5860 359.3930   C.ar      1 XEB800   0.0000
    10 C08    119.0150 247.8360 358.5580   C.ar      1 XEB800   0.0000
    11 C09    118.7870 246.4740 358.4340   C.ar      1 XEB800   0.0000
    12 C10    117.7490 245.8790 359.1260   C.ar      1 XEB800   0.0000
    13 C11    120.1590 248.4960 357.8040   C.3       1 XEB800   0.0000
    14 O12    120.3040 249.7980 358.3590   O.3       1 XEB800   0.0000
    15 C21    121.3510 250.6580 358.1400   C.ar      1 XEB800   0.0000
    16 C22    121.5720 251.6500 359.0950   C.ar      1 XEB800   0.0000
    17 C23    122.6030 252.5660 358.9420   C.ar      1 XEB800   0.0000
    18 C24    123.4140 252.4990 357.8130   C.ar      1 XEB800   0.0000
    19 C25    123.1990 251.5170 356.8480   C.ar      1 XEB800   0.0000
    20 C26    122.1640 250.5900 357.0060   C.ar      1 XEB800   0.0000
    21 C28    124.0840 251.4630 355.6210   C.3       1 XEB800   0.0000
    22 N29    124.7430 250.1530 355.5240   N.3       1 XEB800   0.0000
    23 C30    125.6940 250.0280 356.6410   C.3       1 XEB800   0.0000
    24 H1     120.9278 251.7064 359.9712   H         1 XEB800   0.0000
    25 H2     119.9227 248.5625 356.7430   H         1 XEB800   0.0000
    26 H3     121.0769 247.9252 357.9364   H         1 XEB800   0.0000
    27 H4     116.5148 248.5860 360.7586   H         1 XEB800   0.0000
    28 H5     118.3562 249.6572 359.4919   H         1 XEB800   0.0000
    29 H6     125.1572 250.1062 357.5853   H         1 XEB800   0.0000
    30 H7     126.1933 249.0618 356.5862   H         1 XEB800   0.0000
    31 H8     126.4349 250.8236 356.5777   H         1 XEB800   0.0000
    32 H9     125.2396 250.0835 354.6415   H         1 XEB800   0.0000
    33 H10    115.2356 246.5625 361.3159   H         1 XEB800   0.0000
    34 H11    114.9113 244.1059 361.0059   H         1 XEB800   0.0000
    35 H12    115.6527 242.0856 359.8804   H         1 XEB800   0.0000
    36 H13    117.0283 242.0958 358.7858   H         1 XEB800   0.0000
    37 H14    124.8418 252.2420 355.6902   H         1 XEB800   0.0000
    38 H15    123.4761 251.6259 354.7323   H         1 XEB800   0.0000
    39 H16    119.4268 245.8721 357.7903   H         1 XEB800   0.0000
    40 H17    121.9934 249.8226 356.2524   H         1 XEB800   0.0000
    41 H18    122.7759 253.3302 359.6983   H         1 XEB800   0.0000
@<TRIPOS>BOND
     1     2     3   ar
     2     3     4    1
     3     3     5   ar
     4     5     6   ar
     5     6     7   ar
     6     7     8   ar
     7     8     9   ar
     8     9    10   ar
     9    10    11   ar
    10     2    12   ar
    11     7    12   ar
    12    11    12   ar
    13    10    13    1
    14    13    14    1
    15    14    15    1
    16    15    16   ar
    17    16    17   ar
    18     1    18    1
    19    17    18   ar
    20    18    19   ar
    21    15    20   ar
    22    19    20   ar
    23    19    21    1
    24    21    22    1
    25    22    23    1
    26    16    24    1
    27    13    25    1
    28    13    26    1
    29     8    27    1
    30     9    28    1
    31    23    29    1
    32    23    30    1
    33    23    31    1
    34    22    32    1
    35     6    33    1
    36     5    34    1
    37     4    35    1
    38     4    36    1
    39    21    37    1
    40    21    38    1
    41    11    39    1
    42    20    40    1
    43    17    41    1
@<TRIPOS>SUBSTRUCTURE
     1 XEB800      1 GROUP             0 A     XEB     0  
@<TRIPOS>SET
CCDC_LIGAND STATIC ATOMS
41 1 2 3 4 5 6 7 8 9 \
10 11 12 13 14 15 16 17 18 19 \
20 21 22 23 24 25 26 27 28 29 \
30 31 32 33 34 35 36 37 38 39 \
40 41 
