@<TRIPOS>MOLECULE
B:XEB800
    41    43     1     0     1
SMALL
NO_CHARGES
****
Generated from the CSD

@<TRIPOS>ATOM
     1 CL     107.6870 248.9430 326.7270   Cl        1 XEB800   0.0000
     2 N01    118.1090 244.1760 324.6700   N.ar      1 XEB800   0.0000
     3 C02    119.2630 243.9930 324.0060   C.ar      1 XEB800   0.0000
     4 N02    119.9710 242.8540 324.2670   N.pl3     1 XEB800   0.0000
     5 C03    119.6970 244.9480 323.0800   C.ar      1 XEB800   0.0000
     6 C04    118.9400 246.1020 322.8700   C.ar      1 XEB800   0.0000
     7 C05    117.7590 246.2560 323.5920   C.ar      1 XEB800   0.0000
     8 C06    116.9640 247.3800 323.4300   C.ar      1 XEB800   0.0000
     9 C07    115.7890 247.5160 324.1650   C.ar      1 XEB800   0.0000
    10 C08    115.3900 246.5240 325.0550   C.ar      1 XEB800   0.0000
    11 C09    116.1870 245.4000 325.2110   C.ar      1 XEB800   0.0000
    12 C10    117.3640 245.2750 324.4910   C.ar      1 XEB800   0.0000
    13 C11    114.1040 246.6600 325.8450   C.3       1 XEB800   0.0000
    14 O12    113.2390 247.5210 325.1120   O.3       1 XEB800   0.0000
    15 C21    111.9650 247.8300 325.5150   C.ar      1 XEB800   0.0000
    16 C22    111.1420 248.5340 324.6370   C.ar      1 XEB800   0.0000
    17 C23    109.8420 248.8720 324.9980   C.ar      1 XEB800   0.0000
    18 C24    109.3650 248.5090 326.2540   C.ar      1 XEB800   0.0000
    19 C25    110.1790 247.8060 327.1370   C.ar      1 XEB800   0.0000
    20 C26    111.4860 247.4660 326.7730   C.ar      1 XEB800   0.0000
    21 C28    109.6380 247.4270 328.5010   C.3       1 XEB800   0.0000
    22 N29    109.6140 245.9660 328.6670   N.3       1 XEB800   0.0000
    23 C30    108.7050 245.3880 327.6690   C.3       1 XEB800   0.0000
    24 H1     114.3129 247.0889 326.8240   H         1 XEB800   0.0000
    25 H2     113.6387 245.6832 325.9684   H         1 XEB800   0.0000
    26 H3     109.2030 249.4159 324.3039   H         1 XEB800   0.0000
    27 H4     117.2587 248.1577 322.7270   H         1 XEB800   0.0000
    28 H5     111.5212 248.8224 323.6577   H         1 XEB800   0.0000
    29 H6     115.8868 244.6132 325.9015   H         1 XEB800   0.0000
    30 H7     109.0566 245.6389 326.6693   H         1 XEB800   0.0000
    31 H8     108.6806 244.3054 327.7841   H         1 XEB800   0.0000
    32 H9     107.7037 245.7911 327.8134   H         1 XEB800   0.0000
    33 H10    109.2874 245.7345 329.5997   H         1 XEB800   0.0000
    34 H11    108.6254 247.8144 328.6035   H         1 XEB800   0.0000
    35 H12    110.2732 247.8632 329.2706   H         1 XEB800   0.0000
    36 H13    112.1246 246.9212 327.4667   H         1 XEB800   0.0000
    37 H14    119.2643 246.8617 322.1604   H         1 XEB800   0.0000
    38 H15    120.6212 244.7917 322.5256   H         1 XEB800   0.0000
    39 H16    120.8475 242.6797 323.7857   H         1 XEB800   0.0000
    40 H17    119.6205 242.1821 324.9422   H         1 XEB800   0.0000
    41 H18    115.1763 248.4078 324.0418   H         1 XEB800   0.0000
@<TRIPOS>BOND
     1     2     3   ar
     2     3     4    1
     3     3     5   ar
     4     5     6   ar
     5     6     7   ar
     6     7     8   ar
     7     8     9   ar
     8     9    10   ar
     9    10    11   ar
    10     2    12   ar
    11     7    12   ar
    12    11    12   ar
    13    10    13    1
    14    13    14    1
    15    14    15    1
    16    15    16   ar
    17    16    17   ar
    18     1    18    1
    19    17    18   ar
    20    18    19   ar
    21    15    20   ar
    22    19    20   ar
    23    19    21    1
    24    21    22    1
    25    22    23    1
    26    13    24    1
    27    13    25    1
    28    17    26    1
    29     8    27    1
    30    16    28    1
    31    11    29    1
    32    23    30    1
    33    23    31    1
    34    23    32    1
    35    22    33    1
    36    21    34    1
    37    21    35    1
    38    20    36    1
    39     6    37    1
    40     5    38    1
    41     4    39    1
    42     4    40    1
    43     9    41    1
@<TRIPOS>SUBSTRUCTURE
     1 XEB800      1 GROUP             0 B     XEB     0  
@<TRIPOS>SET
CCDC_LIGAND STATIC ATOMS
41 1 2 3 4 5 6 7 8 9 \
10 11 12 13 14 15 16 17 18 19 \
20 21 22 23 24 25 26 27 28 29 \
30 31 32 33 34 35 36 37 38 39 \
40 41 
