@<TRIPOS>MOLECULE
A:GOL880
    14    13     1     0     1
SMALL
NO_CHARGES
****
Generated from the CSD

@<TRIPOS>ATOM
     1 C1     110.7170 255.9510 342.9990   C.3       1 GOL880   0.0000
     2 O1     109.6740 255.3510 342.2740   O.3       1 GOL880   0.0000
     3 C2     111.6930 254.8710 343.4170   C.3       1 GOL880   0.0000
     4 O2     112.9820 255.3990 343.6390   O.3       1 GOL880   0.0000
     5 C3     111.1480 254.4240 344.7370   C.3       1 GOL880   0.0000
     6 O3     110.8420 253.0760 344.6480   O.3       1 GOL880   0.0000
     7 H1     111.6638 252.5638 344.4281   H         1 GOL880   0.0000
     8 H2     110.2490 254.9906 344.9750   H         1 GOL880   0.0000
     9 H3     111.8931 254.5817 345.5153   H         1 GOL880   0.0000
    10 H4     111.7154 254.0538 342.6976   H         1 GOL880   0.0000
    11 H5     112.9406 256.0816 344.3590   H         1 GOL880   0.0000
    12 H6     109.2151 254.6820 342.8466   H         1 GOL880   0.0000
    13 H7     110.3143 256.4444 343.8823   H         1 GOL880   0.0000
    14 H8     111.2251 256.6837 342.3739   H         1 GOL880   0.0000
@<TRIPOS>BOND
     1     1     2    1
     2     1     3    1
     3     3     4    1
     4     3     5    1
     5     5     6    1
     6     6     7    1
     7     5     8    1
     8     5     9    1
     9     3    10    1
    10     4    11    1
    11     2    12    1
    12     1    13    1
    13     1    14    1
@<TRIPOS>SUBSTRUCTURE
     1 GOL880      1 GROUP             0 A     GOL     0  
@<TRIPOS>SET
CCDC_LIGAND STATIC ATOMS
14 1 2 3 4 5 6 7 8 9 \
10 11 12 13 14 
