@<TRIPOS>MOLECULE
B:XEB801
    41    43     1     0     1
SMALL
NO_CHARGES
****
Generated from the CSD

@<TRIPOS>ATOM
     1 CL     110.9930 280.7230 315.7480   Cl        1 XEB801   0.0000
     2 N01    121.3280 281.5130 315.5950   N.ar      1 XEB801   0.0000
     3 C02    122.6780 281.5030 315.6750   C.ar      1 XEB801   0.0000
     4 N02    123.2840 281.4890 316.8910   N.pl3     1 XEB801   0.0000
     5 C03    123.4480 281.5080 314.5160   C.ar      1 XEB801   0.0000
     6 C04    122.8300 281.5230 313.2690   C.ar      1 XEB801   0.0000
     7 C05    121.4430 281.5350 313.2090   C.ar      1 XEB801   0.0000
     8 C06    120.7860 281.5520 311.9800   C.ar      1 XEB801   0.0000
     9 C07    119.3920 281.5620 311.9360   C.ar      1 XEB801   0.0000
    10 C08    118.6670 281.5610 313.1280   C.ar      1 XEB801   0.0000
    11 C09    119.3290 281.5320 314.3490   C.ar      1 XEB801   0.0000
    12 C10    120.7130 281.5310 314.3930   C.ar      1 XEB801   0.0000
    13 C11    117.1540 281.5770 313.1440   C.3       1 XEB801   0.0000
    14 O12    116.6960 281.8420 314.4770   O.3       1 XEB801   0.0000
    15 C21    115.3870 281.5880 314.8040   C.ar      1 XEB801   0.0000
    16 C22    114.9760 281.4600 316.1300   C.ar      1 XEB801   0.0000
    17 C23    113.6400 281.1960 316.4170   C.ar      1 XEB801   0.0000
    18 C24    112.7190 281.0630 315.3790   C.ar      1 XEB801   0.0000
    19 C25    113.1310 281.1880 314.0590   C.ar      1 XEB801   0.0000
    20 C26    114.4610 281.4550 313.7800   C.ar      1 XEB801   0.0000
    21 C28    112.1520 281.0480 312.9150   C.3       1 XEB801   0.0000
    22 N29    112.4600 279.8350 312.1370   N.3       1 XEB801   0.0000
    23 C30    111.2570 278.9950 312.0780   C.3       1 XEB801   0.0000
    24 H1     124.5348 281.5002 314.5847   H         1 XEB801   0.0000
    25 H2     124.2971 281.4815 316.9531   H         1 XEB801   0.0000
    26 H3     122.7236 281.4861 317.7373   H         1 XEB801   0.0000
    27 H4     118.8734 281.5705 310.9785   H         1 XEB801   0.0000
    28 H5     121.3605 281.5575 311.0549   H         1 XEB801   0.0000
    29 H6     118.7571 281.5100 315.2755   H         1 XEB801   0.0000
    30 H7     113.3145 281.0935 317.4511   H         1 XEB801   0.0000
    31 H8     115.6979 281.5662 316.9384   H         1 XEB801   0.0000
    32 H9     110.4514 279.5480 311.5973   H         1 XEB801   0.0000
    33 H10    111.4711 278.0940 311.5051   H         1 XEB801   0.0000
    34 H11    110.9563 278.7201 313.0879   H         1 XEB801   0.0000
    35 H12    113.2123 279.3229 312.5864   H         1 XEB801   0.0000
    36 H13    112.2259 281.9206 312.2677   H         1 XEB801   0.0000
    37 H14    111.1406 280.9752 313.3121   H         1 XEB801   0.0000
    38 H15    114.7833 281.5617 312.7453   H         1 XEB801   0.0000
    39 H16    116.7766 280.6098 312.8154   H         1 XEB801   0.0000
    40 H17    116.7915 282.3549 312.4736   H         1 XEB801   0.0000
    41 H18    123.4240 281.5253 312.3563   H         1 XEB801   0.0000
@<TRIPOS>BOND
     1     2     3   ar
     2     3     4    1
     3     3     5   ar
     4     5     6   ar
     5     6     7   ar
     6     7     8   ar
     7     8     9   ar
     8     9    10   ar
     9    10    11   ar
    10     2    12   ar
    11     7    12   ar
    12    11    12   ar
    13    10    13    1
    14    13    14    1
    15    14    15    1
    16    15    16   ar
    17    16    17   ar
    18     1    18    1
    19    17    18   ar
    20    18    19   ar
    21    15    20   ar
    22    19    20   ar
    23    19    21    1
    24    21    22    1
    25    22    23    1
    26     5    24    1
    27     4    25    1
    28     4    26    1
    29     9    27    1
    30     8    28    1
    31    11    29    1
    32    17    30    1
    33    16    31    1
    34    23    32    1
    35    23    33    1
    36    23    34    1
    37    22    35    1
    38    21    36    1
    39    21    37    1
    40    20    38    1
    41    13    39    1
    42    13    40    1
    43     6    41    1
@<TRIPOS>SUBSTRUCTURE
     1 XEB801      1 GROUP             0 B     XEB     0  
@<TRIPOS>SET
CCDC_LIGAND STATIC ATOMS
41 1 2 3 4 5 6 7 8 9 \
10 11 12 13 14 15 16 17 18 19 \
20 21 22 23 24 25 26 27 28 29 \
30 31 32 33 34 35 36 37 38 39 \
40 41 
