#       Name:                CT1002167954
#       Creating user name   hitesit
#       Creation time:       Sun Apr 16 23:09:01 2023


#       File generated by GOLD software.
#

@<TRIPOS>MOLECULE
CT1002167954|ligand_prepared|mol2|1|dock3
    29    30     1
SMALL
NO_CHARGES


@<TRIPOS>ATOM
      1 C1         227.9495   2.6382  43.9295 C.3            1 RES1               0.0000
      2 C2         228.0662   3.8827  44.8331 C.ar           1 RES1               0.0000
      3 C3         229.3759   2.1634  43.6680 C.2            1 RES1               0.0000
      4 C4         227.0902   1.6361  44.6924 C.2            1 RES1               0.0000
      5 C5         227.2670   2.9152  42.5697 C.3            1 RES1               0.0000
      6 C6         228.5641   5.0804  44.3288 C.ar           1 RES1               0.0000
      7 C7         227.6782   3.8492  46.1698 C.ar           1 RES1               0.0000
      8 N8         229.7942   1.0357  44.3108 N.am           1 RES1               0.0000
      9 O9         230.1348   2.7909  42.9397 O.2            1 RES1               0.0000
     10 N10        227.6774   0.4679  45.1024 N.am           1 RES1               0.0000
     11 O11        225.9144   1.8550  44.9566 O.2            1 RES1               0.0000
     12 C12        227.1501   1.6870  41.6809 C.3            1 RES1               0.0000
     13 C13        228.6676   6.2048  45.1309 C.ar           1 RES1               0.0000
     14 C14        227.7828   4.9747  46.9703 C.ar           1 RES1               0.0000
     15 C15        228.9984   0.1357  44.9730 C.2            1 RES1               0.0000
     16 C16        228.2767   6.1529  46.4519 C.ar           1 RES1               0.0000
     17 O17        229.4634  -0.9105  45.4162 O.2            1 RES1               0.0000
     18 H18        226.2621   3.3147  42.7539 H              1 RES1               0.0000
     19 H19        227.8407   3.6835  42.0366 H              1 RES1               0.0000
     20 H20        228.8790   5.1396  43.2923 H              1 RES1               0.0000
     21 H21        227.2878   2.9329  46.5994 H              1 RES1               0.0000
     22 H22        230.7908   0.8438  44.2980 H              1 RES1               0.0000
     23 H23        227.0737  -0.2177  45.5450 H              1 RES1               0.0000
     24 H24        226.6643   1.9367  40.7399 H              1 RES1               0.0000
     25 H25        228.1331   1.2782  41.4566 H              1 RES1               0.0000
     26 H26        226.5639   0.9116  42.1697 H              1 RES1               0.0000
     27 H27        229.0582   7.1292  44.7185 H              1 RES1               0.0000
     28 H28        227.4745   4.9291  48.0096 H              1 RES1               0.0000
     29 H29        228.3575   7.0339  47.0800 H              1 RES1               0.0000
@<TRIPOS>BOND
    1    1    2 1     
    2    1    3 1     
    3    1    4 1     
    4    1    5 1     
    5    2    6 ar    
    6    2    7 ar    
    7    3    8 1     
    8    3    9 2     
    9    4   10 1     
   10    4   11 2     
   11    5   12 1     
   12    5   18 1     
   13    5   19 1     
   14    6   13 ar    
   15    6   20 1     
   16    7   14 ar    
   17    7   21 1     
   18    8   15 1     
   19    8   22 1     
   20   10   15 1     
   21   10   23 1     
   22   12   24 1     
   23   12   25 1     
   24   12   26 1     
   25   13   16 ar    
   26   13   27 1     
   27   14   16 ar    
   28   14   28 1     
   29   15   17 2     
   30   16   29 1     
@<TRIPOS>SUBSTRUCTURE
      1 RES1           1
@<TRIPOS>SET
DONOR_HYDROGENS      STATIC     ATOMS    <user>   **** ""
2 22 23
ATOM$RED        STATIC     ATOMS    COLORGROUP SYSTEM
2 22 23
@<TRIPOS>COMMENT
> <Gold.Version>
2022.3.0

> <Gold.Id.Protein>
unknown|4d1n_clean|pdb

> <Gold.Protein.RotatedTorsions>
[ 1594 1544 1543 1542 ] final  -23.02 input   60.00 | X-H torsion
[ 4304 4284 4283 4280 ] final   51.16 input   59.98 | X-H torsion
[ 4344 4323 4324 4325 ] final   24.08 input  122.59 | X-H torsion
[ 4348 4328 4327 4324 ] final  143.02 input   59.99 | X-H torsion
[ 6708 6672 6671 6669 ] final  166.23 input   60.02 | X-H torsion
[ 23762 23712 23713 23714 ] final -146.13 input   58.31 | X-H torsion
[ 23800 23787 23788 23789 ] final   25.30 input  -92.91 | X-H torsion
[ 6926 6895 6896 6897 ] final   52.33 input  109.21 | X-H torsion
[ 4168 4129 4130 4131 ] final  155.45 input  118.46 | X-H torsion
[ 4085 4052 4053 4054 ] final  145.62 input  111.71 | X-H torsion
[ 1354 1313 1314 1315 ] final  -56.57 input  117.91 | X-H torsion
[ 1584 1536 1537 1538 ] final -158.80 input   95.51 | X-H torsion
[ 23828 23815 23816 23817 ] final   42.42 input  -25.33 | X-H torsion
[ 1288 1260 1258 1255 ] final  178.96 input   59.99 | X-H torsion
[ 25744 25716 25717 25718 ] final   74.66 input   66.04 | X-H torsion
[ 27193 4055 4054 4053 ] final -172.77 input   -0.00 | X-H torsion
[ 27195 4282 4281 4280 ] final  -59.74 input    0.00 | X-H torsion
[ 27200 4326 4325 4324 ] final  150.02 input    0.00 | X-H torsion
[ 27211 23656 23655 23654 ] final  117.00 input   -0.00 | X-H torsion
[ 27214 23715 23714 23713 ] final  105.40 input    0.00 | X-H torsion
[ 27218 6898 6897 6896 ] final   25.69 input   -0.00 | X-H torsion
[ 27220 25719 25718 25717 ] final   -8.23 input   -0.00 | X-H torsion
[ 27226 1316 1315 1314 ] final   93.51 input    0.00 | X-H torsion
[ 27230 23818 23817 23816 ] final  103.02 input    0.00 | X-H torsion
[ 27232 1257 1256 1255 ] final  130.88 input    0.00 | X-H torsion

> <Gold.Protein.ActiveResidues>
 ARG304  THR320  LEU321  LEU323  LYS324  GLN369  TYR370  SER372  SER373  TYR408 
 HIS412  ARG415  ASN416  TRP426  GLU670  CYS673  ARG674  GLY675  GLY676  TYR703 
 LEU705  THR706  PRO707 

> <Gold.Protein.RotatedAtoms>
  220.5999    4.0309   37.0246 H   0  0  0  0  0  0  0  0  0  0  0  0  # atno 1288 bound_to 1260
  222.4686    7.3480   38.0708 H   0  0  0  0  0  0  0  0  0  0  0  0  # atno 1354 bound_to 1313
  222.7126    8.5232   43.0441 H   0  0  0  0  0  0  0  0  0  0  0  0  # atno 1584 bound_to 1536
  223.7972    4.1064   45.7495 H   0  0  0  0  0  0  0  0  0  0  0  0  # atno 1594 bound_to 1544
  222.3317    4.1790   44.9786 H   0  0  0  0  0  0  0  0  0  0  0  0  # atno 1595 bound_to 1544
  223.0481    2.7105   45.2608 H   0  0  0  0  0  0  0  0  0  0  0  0  # atno 1596 bound_to 1544
  227.9602    1.4667   51.3363 H   0  0  0  0  0  0  0  0  0  0  0  0  # atno 4085 bound_to 4052
  230.7194    0.0235   50.6070 H   0  0  0  0  0  0  0  0  0  0  0  0  # atno 4168 bound_to 4129
  225.0224   -3.7190   46.7039 H   0  0  0  0  0  0  0  0  0  0  0  0  # atno 4304 bound_to 4284
  228.8007   -4.4880   47.8125 H   0  0  0  0  0  0  0  0  0  0  0  0  # atno 4344 bound_to 4323
  232.7930   -3.9119   46.2156 H   0  0  0  0  0  0  0  0  0  0  0  0  # atno 4348 bound_to 4328
  231.7715   -0.3717   45.4205 H   0  0  0  0  0  0  0  0  0  0  0  0  # atno 6708 bound_to 6672
  238.7071    2.7995   44.4876 H   0  0  0  0  0  0  0  0  0  0  0  0  # atno 6926 bound_to 6895
  227.1396   -0.5690   35.8017 H   0  0  0  0  0  0  0  0  0  0  0  0  # atno 23762 bound_to 23712
  226.2425    2.8645   35.9343 H   0  0  0  0  0  0  0  0  0  0  0  0  # atno 23800 bound_to 23787
  226.4364    4.6295   35.6351 H   0  0  0  0  0  0  0  0  0  0  0  0  # atno 23828 bound_to 23815
  231.0267    9.3629   46.3909 H   0  0  0  0  0  0  0  0  0  0  0  0  # atno 25744 bound_to 25716
  230.0136   -2.2666   48.2425 LP  0  0  0  0  0  0  0  0  0  0  0  0  # atno 27193 bound_to 4055
  228.7332   -1.2852   47.6122 LP  0  0  0  0  0  0  0  0  0  0  0  0  # atno 27194 bound_to 4055
  227.0883   -6.4280   46.8704 LP  0  0  0  0  0  0  0  0  0  0  0  0  # atno 27195 bound_to 4282
  227.0366   -5.3699   45.5000 LP  0  0  0  0  0  0  0  0  0  0  0  0  # atno 27196 bound_to 4282
  226.2888   -2.8473   46.1704 LP  0  0  0  0  0  0  0  0  0  0  0  0  # atno 27197 bound_to 4284
  224.9343   -2.0942   46.6848 LP  0  0  0  0  0  0  0  0  0  0  0  0  # atno 27198 bound_to 4284
  228.1406   -3.1821   46.8543 LP  0  0  0  0  0  0  0  0  0  0  0  0  # atno 27199 bound_to 4323
  230.9384   -7.1558   44.7713 LP  0  0  0  0  0  0  0  0  0  0  0  0  # atno 27200 bound_to 4326
  229.7088   -6.1939   44.0211 LP  0  0  0  0  0  0  0  0  0  0  0  0  # atno 27201 bound_to 4326
  231.7178   -5.0178   46.7344 LP  0  0  0  0  0  0  0  0  0  0  0  0  # atno 27202 bound_to 4328
  231.8844   -3.6012   47.5294 LP  0  0  0  0  0  0  0  0  0  0  0  0  # atno 27203 bound_to 4328
  232.1212    1.0786   46.0713 LP  0  0  0  0  0  0  0  0  0  0  0  0  # atno 27204 bound_to 6672
  231.3597   -0.0575   46.9634 LP  0  0  0  0  0  0  0  0  0  0  0  0  # atno 27205 bound_to 6672
  226.9047   -1.4399   37.6044 LP  0  0  0  0  0  0  0  0  0  0  0  0  # atno 27211 bound_to 23656
  225.4592   -1.9342   36.7883 LP  0  0  0  0  0  0  0  0  0  0  0  0  # atno 27212 bound_to 23656
  226.6981    0.7912   34.7922 LP  0  0  0  0  0  0  0  0  0  0  0  0  # atno 27213 bound_to 23712
  225.8773    3.9921   37.9035 LP  0  0  0  0  0  0  0  0  0  0  0  0  # atno 27214 bound_to 23715
  225.0030    2.6445   38.5511 LP  0  0  0  0  0  0  0  0  0  0  0  0  # atno 27215 bound_to 23715
  225.0955    1.6495   35.4224 LP  0  0  0  0  0  0  0  0  0  0  0  0  # atno 27216 bound_to 23787
  238.3637    1.8053   43.0984 LP  0  0  0  0  0  0  0  0  0  0  0  0  # atno 27217 bound_to 6895
  235.6247    5.2410   42.1975 LP  0  0  0  0  0  0  0  0  0  0  0  0  # atno 27218 bound_to 6898
  236.9099    6.4022   42.1973 LP  0  0  0  0  0  0  0  0  0  0  0  0  # atno 27219 bound_to 6898
  231.1844    7.3744   46.8234 LP  0  0  0  0  0  0  0  0  0  0  0  0  # atno 27220 bound_to 25719
  232.1174    5.9163   46.7627 LP  0  0  0  0  0  0  0  0  0  0  0  0  # atno 27221 bound_to 25719
  229.4873   -1.0319   49.9662 LP  0  0  0  0  0  0  0  0  0  0  0  0  # atno 27222 bound_to 4129
  228.1587   -0.2509   51.5641 LP  0  0  0  0  0  0  0  0  0  0  0  0  # atno 27223 bound_to 4052
  223.6524    6.9282   36.8590 LP  0  0  0  0  0  0  0  0  0  0  0  0  # atno 27225 bound_to 1313
  225.7982    8.6601   41.0433 LP  0  0  0  0  0  0  0  0  0  0  0  0  # atno 27226 bound_to 1316
  224.1394    8.4056   41.4716 LP  0  0  0  0  0  0  0  0  0  0  0  0  # atno 27227 bound_to 1316
  223.8041    9.8448   42.7017 LP  0  0  0  0  0  0  0  0  0  0  0  0  # atno 27228 bound_to 1536
  225.4544    4.6863   34.1931 LP  0  0  0  0  0  0  0  0  0  0  0  0  # atno 27229 bound_to 23815
  229.3950    4.8459   34.5101 LP  0  0  0  0  0  0  0  0  0  0  0  0  # atno 27230 bound_to 23818
  228.8076    5.2255   36.0947 LP  0  0  0  0  0  0  0  0  0  0  0  0  # atno 27231 bound_to 23818
  222.1468    6.7847   40.0198 LP  0  0  0  0  0  0  0  0  0  0  0  0  # atno 27232 bound_to 1257
  221.1418    8.1287   39.5914 LP  0  0  0  0  0  0  0  0  0  0  0  0  # atno 27233 bound_to 1257
  221.9337    4.8610   37.4495 LP  0  0  0  0  0  0  0  0  0  0  0  0  # atno 27234 bound_to 1260
  221.3663    4.9489   35.9207 LP  0  0  0  0  0  0  0  0  0  0  0  0  # atno 27235 bound_to 1260

> <Gold.Score>
     Fitness  S(hb_ext) S(vdw_ext)  S(hb_int)    S(int)      intcor
     40.42       6.26      26.23       0.00      -1.92      -0.76

> <Gold.Goldscore.Fitness>
40.4187

> <Gold.Goldscore.Internal.Vdw>
-2.3071

> <Gold.Goldscore.Internal.Torsion>
-0.3665

> <Gold.Goldscore.External.Vdw>
26.2331

> <Gold.Goldscore.Internal.HBond>
0.0000

> <Gold.Goldscore.External.HBond>
6.2632

> <Gold.Goldscore.Internal.Correction>
-0.7585

> <Gold.Goldscore.Hbonds>
donor molecule, donor type, donor heavy atom, donor atom, acceptor molecule, acceptor atom, score
      P1  H 23722 23774       L1     9  0.98
      L1  H     8    22       P1  6904  0.03
      L1  H    10    23       P1  4284  0.09

> <Gold.Goldscore.Internal.Vdw.Weighted>
-2.3071

> <Gold.Goldscore.Internal.Torsion.Weighted>
-0.3665

> <Gold.Goldscore.External.Vdw.Weighted>
36.0706

> <Gold.Goldscore.Internal.HBond.Weighted>
0.0000

> <Gold.Goldscore.External.HBond.Weighted>
6.2632

> <Gold.Goldscore.Internal.Correction.Weighted>
-0.7585

> <Gold.Rescore>
     Score     S(PLP)   S(hbond)     S(cho)   S(metal)  DE(clash)   DE(tors)     intcor
     36.52     -32.00       2.02       0.00       0.00       1.41       0.06       ----

> <Gold.PLP.Fitness>
36.5197

> <Gold.PLP.PLP>
-32.0001

> <Gold.PLP.part.hbond>
-3.5746

> <Gold.PLP.part.metal>
0.0000

> <Gold.PLP.part.buried>
0.6745

> <Gold.PLP.part.nonpolar>
-32.4175

> <Gold.PLP.part.repulsive>
1.7622

> <Gold.PLP.ligand.clash>
1.4075

> <Gold.PLP.ligand.torsion>
0.0593

> <Gold.PLP.Chemscore.Hbond>
2.0153

> <Gold.PLP.Chemscore.CHOScore>
0.0000

> <Gold.PLP.Chemscore.Metal>
0.0000

> <Gold.Chemscore.Hbonds>
donor molecule, donor type, donor heavy atom, donor atom, acceptor molecule, acceptor atom, score
      P1  H  6672  6708       L1    17  0.08
      P1  H 23719 23770       L1     9  0.06
      P1  H 23722 23774       L1     9  0.63

> <Gold.PLP.Chemscore.Internal.Correction>
   9.000000E+99

#       Name:                CT1002167954
#       Creating user name   hitesit
#       Creation time:       Sun Apr 16 23:09:01 2023


#       File generated by GOLD software.
#

@<TRIPOS>MOLECULE
CT1002167954|ligand_prepared|mol2|1|dock2
    29    30     1
SMALL
NO_CHARGES


@<TRIPOS>ATOM
      1 C1         228.6640   0.9274  44.2030 C.3            1 RES1               0.0000
      2 C2         228.2511   2.2345  44.9100 C.ar           1 RES1               0.0000
      3 C3         228.1131  -0.2127  45.0544 C.2            1 RES1               0.0000
      4 C4         228.0735   0.9970  42.7990 C.2            1 RES1               0.0000
      5 C5         230.1939   0.7458  44.0693 C.3            1 RES1               0.0000
      6 C6         229.0020   3.3950  44.7489 C.ar           1 RES1               0.0000
      7 C7         227.1224   2.2958  45.7229 C.ar           1 RES1               0.0000
      8 N8         227.0291  -0.8898  44.5786 N.am           1 RES1               0.0000
      9 O9         228.5980  -0.4878  46.1450 O.2            1 RES1               0.0000
     10 N10        227.0992   0.0925  42.4667 N.am           1 RES1               0.0000
     11 O11        228.4313   1.8374  41.9831 O.2            1 RES1               0.0000
     12 C12        230.6098  -0.6501  43.6327 C.3            1 RES1               0.0000
     13 C13        228.6362   4.5749  45.3753 C.ar           1 RES1               0.0000
     14 C14        226.7584   3.4767  46.3486 C.ar           1 RES1               0.0000
     15 C15        226.5285  -0.8280  43.3030 C.2            1 RES1               0.0000
     16 C16        227.5141   4.6167  46.1752 C.ar           1 RES1               0.0000
     17 O17        225.6184  -1.5706  42.9460 O.2            1 RES1               0.0000
     18 H18        230.5733   1.4717  43.3396 H              1 RES1               0.0000
     19 H19        230.6616   0.9671  45.0367 H              1 RES1               0.0000
     20 H20        229.8897   3.3807  44.1253 H              1 RES1               0.0000
     21 H21        226.5135   1.4110  45.8747 H              1 RES1               0.0000
     22 H22        226.5459  -1.4983  45.2317 H              1 RES1               0.0000
     23 H23        226.7688   0.1066  41.5071 H              1 RES1               0.0000
     24 H24        231.6925  -0.7233  43.5546 H              1 RES1               0.0000
     25 H25        230.2706  -1.3955  44.3491 H              1 RES1               0.0000
     26 H26        230.1828  -0.8939  42.6621 H              1 RES1               0.0000
     27 H27        229.2351   5.4690  45.2367 H              1 RES1               0.0000
     28 H28        225.8749   3.5048  46.9777 H              1 RES1               0.0000
     29 H29        227.2276   5.5412  46.6654 H              1 RES1               0.0000
@<TRIPOS>BOND
    1    1    2 1     
    2    1    3 1     
    3    1    4 1     
    4    1    5 1     
    5    2    6 ar    
    6    2    7 ar    
    7    3    8 1     
    8    3    9 2     
    9    4   10 1     
   10    4   11 2     
   11    5   12 1     
   12    5   18 1     
   13    5   19 1     
   14    6   13 ar    
   15    6   20 1     
   16    7   14 ar    
   17    7   21 1     
   18    8   15 1     
   19    8   22 1     
   20   10   15 1     
   21   10   23 1     
   22   12   24 1     
   23   12   25 1     
   24   12   26 1     
   25   13   16 ar    
   26   13   27 1     
   27   14   16 ar    
   28   14   28 1     
   29   15   17 2     
   30   16   29 1     
@<TRIPOS>SUBSTRUCTURE
      1 RES1           1
@<TRIPOS>SET
DONOR_HYDROGENS      STATIC     ATOMS    <user>   **** ""
2 22 23
ATOM$RED        STATIC     ATOMS    COLORGROUP SYSTEM
2 22 23
@<TRIPOS>COMMENT
> <Gold.Version>
2022.3.0

> <Gold.Id.Protein>
unknown|4d1n_clean|pdb

> <Gold.Protein.RotatedTorsions>
[ 1594 1544 1543 1542 ] final  -11.58 input   60.00 | X-H torsion
[ 4304 4284 4283 4280 ] final   36.69 input   59.98 | X-H torsion
[ 4344 4323 4324 4325 ] final  179.59 input  122.59 | X-H torsion
[ 4348 4328 4327 4324 ] final  173.90 input   59.99 | X-H torsion
[ 6708 6672 6671 6669 ] final  -41.90 input   60.02 | X-H torsion
[ 23762 23712 23713 23714 ] final  -16.28 input   58.31 | X-H torsion
[ 23800 23787 23788 23789 ] final  -25.90 input  -92.91 | X-H torsion
[ 6926 6895 6896 6897 ] final   64.36 input  109.21 | X-H torsion
[ 4168 4129 4130 4131 ] final -150.88 input  118.46 | X-H torsion
[ 4085 4052 4053 4054 ] final -156.50 input  111.71 | X-H torsion
[ 1354 1313 1314 1315 ] final  142.22 input  117.91 | X-H torsion
[ 1584 1536 1537 1538 ] final  -20.30 input   95.51 | X-H torsion
[ 23828 23815 23816 23817 ] final   54.07 input  -25.33 | X-H torsion
[ 1288 1260 1258 1255 ] final  144.43 input   59.99 | X-H torsion
[ 25744 25716 25717 25718 ] final  138.16 input   66.04 | X-H torsion
[ 27193 4055 4054 4053 ] final -106.27 input   -0.00 | X-H torsion
[ 27195 4282 4281 4280 ] final  114.43 input    0.00 | X-H torsion
[ 27200 4326 4325 4324 ] final   58.77 input    0.00 | X-H torsion
[ 27211 23656 23655 23654 ] final  -24.50 input   -0.00 | X-H torsion
[ 27214 23715 23714 23713 ] final -176.51 input    0.00 | X-H torsion
[ 27218 6898 6897 6896 ] final  128.38 input   -0.00 | X-H torsion
[ 27220 25719 25718 25717 ] final    3.32 input   -0.00 | X-H torsion
[ 27226 1316 1315 1314 ] final   27.70 input    0.00 | X-H torsion
[ 27230 23818 23817 23816 ] final  -92.05 input    0.00 | X-H torsion
[ 27232 1257 1256 1255 ] final   28.49 input    0.00 | X-H torsion

> <Gold.Protein.ActiveResidues>
 ARG304  THR320  LEU321  LEU323  LYS324  GLN369  TYR370  SER372  SER373  TYR408 
 HIS412  ARG415  ASN416  TRP426  GLU670  CYS673  ARG674  GLY675  GLY676  TYR703 
 LEU705  THR706  PRO707 

> <Gold.Protein.RotatedAtoms>
  220.9072    4.1050   37.4819 H   0  0  0  0  0  0  0  0  0  0  0  0  # atno 1288 bound_to 1260
  223.5781    6.6611   36.9260 H   0  0  0  0  0  0  0  0  0  0  0  0  # atno 1354 bound_to 1313
  223.3711   10.0395   43.0998 H   0  0  0  0  0  0  0  0  0  0  0  0  # atno 1584 bound_to 1536
  223.7004    4.2658   45.7088 H   0  0  0  0  0  0  0  0  0  0  0  0  # atno 1594 bound_to 1544
  222.2602    4.0089   44.9296 H   0  0  0  0  0  0  0  0  0  0  0  0  # atno 1595 bound_to 1544
  223.2163    2.7212   45.3505 H   0  0  0  0  0  0  0  0  0  0  0  0  # atno 1596 bound_to 1544
  227.2838    0.9609   51.2545 H   0  0  0  0  0  0  0  0  0  0  0  0  # atno 4085 bound_to 4052
  230.6189    0.0268   49.8213 H   0  0  0  0  0  0  0  0  0  0  0  0  # atno 4168 bound_to 4129
  225.2290   -3.8006   46.6245 H   0  0  0  0  0  0  0  0  0  0  0  0  # atno 4304 bound_to 4284
  228.4278   -3.0001   47.0053 H   0  0  0  0  0  0  0  0  0  0  0  0  # atno 4344 bound_to 4323
  232.7484   -3.5324   46.5359 H   0  0  0  0  0  0  0  0  0  0  0  0  # atno 4348 bound_to 4328
  231.5290    0.4245   47.0355 H   0  0  0  0  0  0  0  0  0  0  0  0  # atno 6708 bound_to 6672
  238.6069    2.6753   44.5772 H   0  0  0  0  0  0  0  0  0  0  0  0  # atno 6926 bound_to 6895
  226.1097    0.4358   35.0735 H   0  0  0  0  0  0  0  0  0  0  0  0  # atno 23762 bound_to 23712
  226.2340    2.7132   35.1855 H   0  0  0  0  0  0  0  0  0  0  0  0  # atno 23800 bound_to 23787
  226.2985    4.7148   35.7104 H   0  0  0  0  0  0  0  0  0  0  0  0  # atno 23828 bound_to 23815
  231.3672   10.2300   46.3948 H   0  0  0  0  0  0  0  0  0  0  0  0  # atno 25744 bound_to 25716
  229.0966   -2.4203   48.4354 LP  0  0  0  0  0  0  0  0  0  0  0  0  # atno 27193 bound_to 4055
  229.6502   -1.1315   47.4193 LP  0  0  0  0  0  0  0  0  0  0  0  0  # atno 27194 bound_to 4055
  226.9534   -5.3520   45.5227 LP  0  0  0  0  0  0  0  0  0  0  0  0  # atno 27195 bound_to 4282
  227.1715   -6.4460   46.8477 LP  0  0  0  0  0  0  0  0  0  0  0  0  # atno 27196 bound_to 4282
  226.2489   -2.6134   46.1789 LP  0  0  0  0  0  0  0  0  0  0  0  0  # atno 27197 bound_to 4284
  224.7663   -2.2460   46.7563 LP  0  0  0  0  0  0  0  0  0  0  0  0  # atno 27198 bound_to 4284
  228.5032   -4.6286   47.6390 LP  0  0  0  0  0  0  0  0  0  0  0  0  # atno 27199 bound_to 4323
  230.9102   -6.0927   44.1374 LP  0  0  0  0  0  0  0  0  0  0  0  0  # atno 27200 bound_to 4326
  229.7370   -7.2570   44.6550 LP  0  0  0  0  0  0  0  0  0  0  0  0  # atno 27201 bound_to 4326
  232.0478   -4.9903   46.3569 LP  0  0  0  0  0  0  0  0  0  0  0  0  # atno 27202 bound_to 4328
  231.5994   -4.0110   47.5843 LP  0  0  0  0  0  0  0  0  0  0  0  0  # atno 27203 bound_to 4328
  231.5348   -0.6322   45.7977 LP  0  0  0  0  0  0  0  0  0  0  0  0  # atno 27204 bound_to 6672
  232.1903    0.8517   45.6111 LP  0  0  0  0  0  0  0  0  0  0  0  0  # atno 27205 bound_to 6672
  225.8603   -2.3349   36.7201 LP  0  0  0  0  0  0  0  0  0  0  0  0  # atno 27211 bound_to 23656
  226.5036   -1.0392   37.6725 LP  0  0  0  0  0  0  0  0  0  0  0  0  # atno 27212 bound_to 23656
  227.6932   -0.1797   35.4959 LP  0  0  0  0  0  0  0  0  0  0  0  0  # atno 27213 bound_to 23712
  224.8253    3.7313   37.7787 LP  0  0  0  0  0  0  0  0  0  0  0  0  # atno 27214 bound_to 23715
  226.0551    2.9052   38.6760 LP  0  0  0  0  0  0  0  0  0  0  0  0  # atno 27215 bound_to 23715
  225.1038    1.7972   36.1536 LP  0  0  0  0  0  0  0  0  0  0  0  0  # atno 27216 bound_to 23787
  238.4633    1.9287   43.0094 LP  0  0  0  0  0  0  0  0  0  0  0  0  # atno 27217 bound_to 6895
  236.0363    6.3612   42.8342 LP  0  0  0  0  0  0  0  0  0  0  0  0  # atno 27218 bound_to 6898
  236.4983    5.2820   41.5606 LP  0  0  0  0  0  0  0  0  0  0  0  0  # atno 27219 bound_to 6898
  231.2186    7.3826   46.6528 LP  0  0  0  0  0  0  0  0  0  0  0  0  # atno 27220 bound_to 25719
  232.0831    5.9081   46.9333 LP  0  0  0  0  0  0  0  0  0  0  0  0  # atno 27221 bound_to 25719
  229.5866   -1.0352   50.7427 LP  0  0  0  0  0  0  0  0  0  0  0  0  # atno 27222 bound_to 4129
  228.8274    0.2492   51.6450 LP  0  0  0  0  0  0  0  0  0  0  0  0  # atno 27223 bound_to 4052
  222.5608    7.6041   37.9853 LP  0  0  0  0  0  0  0  0  0  0  0  0  # atno 27225 bound_to 1313
  225.4270    7.8040   41.1636 LP  0  0  0  0  0  0  0  0  0  0  0  0  # atno 27226 bound_to 1316
  224.5106    9.2617   41.3513 LP  0  0  0  0  0  0  0  0  0  0  0  0  # atno 27227 bound_to 1316
  223.1612    8.3643   42.6473 LP  0  0  0  0  0  0  0  0  0  0  0  0  # atno 27228 bound_to 1536
  225.5899    4.6024   34.1191 LP  0  0  0  0  0  0  0  0  0  0  0  0  # atno 27229 bound_to 23815
  228.9984    5.3483   36.1034 LP  0  0  0  0  0  0  0  0  0  0  0  0  # atno 27230 bound_to 23818
  229.2042    4.7231   34.5013 LP  0  0  0  0  0  0  0  0  0  0  0  0  # atno 27231 bound_to 23818
  220.8925    7.0725   39.6126 LP  0  0  0  0  0  0  0  0  0  0  0  0  # atno 27232 bound_to 1257
  222.3961    7.8410   39.9986 LP  0  0  0  0  0  0  0  0  0  0  0  0  # atno 27233 bound_to 1257
  222.0738    5.1195   36.9733 LP  0  0  0  0  0  0  0  0  0  0  0  0  # atno 27234 bound_to 1260
  220.9169    4.6158   35.9367 LP  0  0  0  0  0  0  0  0  0  0  0  0  # atno 27235 bound_to 1260

> <Gold.Score>
     Fitness  S(hb_ext) S(vdw_ext)  S(hb_int)    S(int)      intcor
     39.97       8.06      23.84       0.00      -0.87      -0.76

> <Gold.Goldscore.Fitness>
39.9656

> <Gold.Goldscore.Internal.Vdw>
-1.0432

> <Gold.Goldscore.Internal.Torsion>
-0.5849

> <Gold.Goldscore.External.Vdw>
23.8366

> <Gold.Goldscore.Internal.HBond>
0.0000

> <Gold.Goldscore.External.HBond>
8.0599

> <Gold.Goldscore.Internal.Correction>
-0.7585

> <Gold.Goldscore.Hbonds>
donor molecule, donor type, donor heavy atom, donor atom, acceptor molecule, acceptor atom, score
      P1  H  4323  4344       L1     9  0.03
      P1  H 23719 23770       L1    11  1.00
      L1  H     8    22       P1  4284  1.00

> <Gold.Goldscore.Internal.Vdw.Weighted>
-1.0432

> <Gold.Goldscore.Internal.Torsion.Weighted>
-0.5849

> <Gold.Goldscore.External.Vdw.Weighted>
32.7754

> <Gold.Goldscore.Internal.HBond.Weighted>
0.0000

> <Gold.Goldscore.External.HBond.Weighted>
8.0599

> <Gold.Goldscore.Internal.Correction.Weighted>
-0.7585

> <Gold.Rescore>
     Score     S(PLP)   S(hbond)     S(cho)   S(metal)  DE(clash)   DE(tors)     intcor
     29.08     -28.00       0.96       0.00       0.00       0.00       0.90       ----

> <Gold.PLP.Fitness>
29.0828

> <Gold.PLP.PLP>
-28.0033

> <Gold.PLP.part.hbond>
-0.9418

> <Gold.PLP.part.metal>
0.0000

> <Gold.PLP.part.buried>
-6.3808

> <Gold.PLP.part.nonpolar>
-25.6255

> <Gold.PLP.part.repulsive>
3.5364

> <Gold.PLP.ligand.clash>
0.0000

> <Gold.PLP.ligand.torsion>
0.8983

> <Gold.PLP.Chemscore.Hbond>
0.9588

> <Gold.PLP.Chemscore.CHOScore>
0.0000

> <Gold.PLP.Chemscore.Metal>
0.0000

> <Gold.Chemscore.Hbonds>
donor molecule, donor type, donor heavy atom, donor atom, acceptor molecule, acceptor atom, score
      L1  H     8    22       P1  4284  0.41
      P1  H 23719 23770       L1    11  0.65

> <Gold.PLP.Chemscore.Internal.Correction>
   9.000000E+99

#       Name:                CT1002167954
#       Creating user name   hitesit
#       Creation time:       Sun Apr 16 23:09:00 2023


#       File generated by GOLD software.
#

@<TRIPOS>MOLECULE
CT1002167954|ligand_prepared|mol2|1|dock1
    29    30     1
SMALL
NO_CHARGES


@<TRIPOS>ATOM
      1 C1         228.1853   1.6702  44.1032 C.3            1 RES1               0.0000
      2 C2         228.4234   3.0435  44.7637 C.ar           1 RES1               0.0000
      3 C3         229.2405   1.5320  43.0097 C.2            1 RES1               0.0000
      4 C4         228.3036   0.6351  45.2164 C.2            1 RES1               0.0000
      5 C5         226.7875   1.5209  43.4586 C.3            1 RES1               0.0000
      6 C6         229.6171   3.7296  44.5615 C.ar           1 RES1               0.0000
      7 C7         227.4593   3.6370  45.5742 C.ar           1 RES1               0.0000
      8 N8         230.2793   0.6785  43.2384 N.am           1 RES1               0.0000
      9 O9         229.1831   2.1916  41.9792 O.2            1 RES1               0.0000
     10 N10        229.3433  -0.2556  45.1571 N.am           1 RES1               0.0000
     11 O11        227.5156   0.5934  46.1532 O.2            1 RES1               0.0000
     12 C12        226.6180   0.2436  42.6511 C.3            1 RES1               0.0000
     13 C13        229.8380   4.9658  45.1459 C.ar           1 RES1               0.0000
     14 C14        227.6824   4.8732  46.1579 C.ar           1 RES1               0.0000
     15 C15        230.3541  -0.2612  44.2349 C.2            1 RES1               0.0000
     16 C16        228.8708   5.5385  45.9441 C.ar           1 RES1               0.0000
     17 O17        231.2847  -1.0608  44.2791 O.2            1 RES1               0.0000
     18 H18        226.0292   1.5409  44.2510 H              1 RES1               0.0000
     19 H19        226.6082   2.3806  42.8012 H              1 RES1               0.0000
     20 H20        230.3909   3.2935  43.9385 H              1 RES1               0.0000
     21 H21        226.5173   3.1314  45.7574 H              1 RES1               0.0000
     22 H22        231.0740   0.7451  42.6105 H              1 RES1               0.0000
     23 H23        229.3656  -0.9818  45.8659 H              1 RES1               0.0000
     24 H24        225.6202   0.1888  42.2209 H              1 RES1               0.0000
     25 H25        227.3402   0.2024  41.8383 H              1 RES1               0.0000
     26 H26        226.7647  -0.6323  43.2796 H              1 RES1               0.0000
     27 H27        230.7755   5.4847  44.9756 H              1 RES1               0.0000
     28 H28        226.9186   5.3199  46.7859 H              1 RES1               0.0000
     29 H29        229.0439   6.5070  46.4014 H              1 RES1               0.0000
@<TRIPOS>BOND
    1    1    2 1     
    2    1    3 1     
    3    1    4 1     
    4    1    5 1     
    5    2    6 ar    
    6    2    7 ar    
    7    3    8 1     
    8    3    9 2     
    9    4   10 1     
   10    4   11 2     
   11    5   12 1     
   12    5   18 1     
   13    5   19 1     
   14    6   13 ar    
   15    6   20 1     
   16    7   14 ar    
   17    7   21 1     
   18    8   15 1     
   19    8   22 1     
   20   10   15 1     
   21   10   23 1     
   22   12   24 1     
   23   12   25 1     
   24   12   26 1     
   25   13   16 ar    
   26   13   27 1     
   27   14   16 ar    
   28   14   28 1     
   29   15   17 2     
   30   16   29 1     
@<TRIPOS>SUBSTRUCTURE
      1 RES1           1
@<TRIPOS>SET
DONOR_HYDROGENS      STATIC     ATOMS    <user>   **** ""
2 22 23
ATOM$RED        STATIC     ATOMS    COLORGROUP SYSTEM
2 22 23
@<TRIPOS>COMMENT
> <Gold.Version>
2022.3.0

> <Gold.Id.Protein>
unknown|4d1n_clean|pdb

> <Gold.Protein.RotatedTorsions>
[ 1594 1544 1543 1542 ] final -105.80 input   60.00 | X-H torsion
[ 4304 4284 4283 4280 ] final -138.54 input   59.98 | X-H torsion
[ 4344 4323 4324 4325 ] final  172.18 input  122.59 | X-H torsion
[ 4348 4328 4327 4324 ] final -144.21 input   59.99 | X-H torsion
[ 6708 6672 6671 6669 ] final -105.53 input   60.02 | X-H torsion
[ 23762 23712 23713 23714 ] final  100.14 input   58.31 | X-H torsion
[ 23800 23787 23788 23789 ] final -167.04 input  -92.91 | X-H torsion
[ 6926 6895 6896 6897 ] final  162.62 input  109.21 | X-H torsion
[ 4168 4129 4130 4131 ] final -130.48 input  118.46 | X-H torsion
[ 4085 4052 4053 4054 ] final  159.70 input  111.71 | X-H torsion
[ 1354 1313 1314 1315 ] final   14.25 input  117.91 | X-H torsion
[ 1584 1536 1537 1538 ] final  121.53 input   95.51 | X-H torsion
[ 23828 23815 23816 23817 ] final   97.08 input  -25.33 | X-H torsion
[ 1288 1260 1258 1255 ] final   14.00 input   59.99 | X-H torsion
[ 25744 25716 25717 25718 ] final    6.97 input   66.04 | X-H torsion
[ 27193 4055 4054 4053 ] final -143.46 input   -0.00 | X-H torsion
[ 27195 4282 4281 4280 ] final  137.13 input    0.00 | X-H torsion
[ 27200 4326 4325 4324 ] final  151.23 input    0.00 | X-H torsion
[ 27211 23656 23655 23654 ] final  103.61 input   -0.00 | X-H torsion
[ 27214 23715 23714 23713 ] final  -89.03 input    0.00 | X-H torsion
[ 27218 6898 6897 6896 ] final  -23.09 input   -0.00 | X-H torsion
[ 27220 25719 25718 25717 ] final   93.13 input   -0.00 | X-H torsion
[ 27226 1316 1315 1314 ] final -159.77 input    0.00 | X-H torsion
[ 27230 23818 23817 23816 ] final   73.64 input    0.00 | X-H torsion
[ 27232 1257 1256 1255 ] final  -41.20 input    0.00 | X-H torsion

> <Gold.Protein.ActiveResidues>
 ARG304  THR320  LEU321  LEU323  LYS324  GLN369  TYR370  SER372  SER373  TYR408 
 HIS412  ARG415  ASN416  TRP426  GLU670  CYS673  ARG674  GLY675  GLY676  TYR703 
 LEU705  THR706  PRO707 

> <Gold.Protein.RotatedAtoms>
  222.0555    5.1635   36.8090 H   0  0  0  0  0  0  0  0  0  0  0  0  # atno 1288 bound_to 1260
  223.0102    8.0125   37.5189 H   0  0  0  0  0  0  0  0  0  0  0  0  # atno 1354 bound_to 1313
  223.6277    8.5545   42.3767 H   0  0  0  0  0  0  0  0  0  0  0  0  # atno 1584 bound_to 1536
  223.5620    2.8801   45.5443 H   0  0  0  0  0  0  0  0  0  0  0  0  # atno 1594 bound_to 1544
  223.3970    4.5292   45.5654 H   0  0  0  0  0  0  0  0  0  0  0  0  # atno 1595 bound_to 1544
  222.2179    3.5867   44.8792 H   0  0  0  0  0  0  0  0  0  0  0  0  # atno 1596 bound_to 1544
  227.7556    1.4116   51.3002 H   0  0  0  0  0  0  0  0  0  0  0  0  # atno 4085 bound_to 4052
  230.4503   -0.0983   49.5923 H   0  0  0  0  0  0  0  0  0  0  0  0  # atno 4168 bound_to 4129
  225.6710   -1.9974   46.3921 H   0  0  0  0  0  0  0  0  0  0  0  0  # atno 4304 bound_to 4284
  228.5192   -2.9783   47.0709 H   0  0  0  0  0  0  0  0  0  0  0  0  # atno 4344 bound_to 4323
  232.4194   -3.3219   47.0795 H   0  0  0  0  0  0  0  0  0  0  0  0  # atno 4348 bound_to 4328
  231.3161   -0.4546   46.6395 H   0  0  0  0  0  0  0  0  0  0  0  0  # atno 6708 bound_to 6672
  238.0507    1.6114   44.0239 H   0  0  0  0  0  0  0  0  0  0  0  0  # atno 6926 bound_to 6895
  227.6132    0.5796   34.9776 H   0  0  0  0  0  0  0  0  0  0  0  0  # atno 23762 bound_to 23712
  225.0337    1.6325   35.6003 H   0  0  0  0  0  0  0  0  0  0  0  0  # atno 23800 bound_to 23787
  225.7118    4.9832   35.6931 H   0  0  0  0  0  0  0  0  0  0  0  0  # atno 23828 bound_to 23815
  231.4349    8.7680   45.7191 H   0  0  0  0  0  0  0  0  0  0  0  0  # atno 25744 bound_to 25716
  229.6477   -2.4433   48.4063 LP  0  0  0  0  0  0  0  0  0  0  0  0  # atno 27193 bound_to 4055
  229.0991   -1.1085   47.4484 LP  0  0  0  0  0  0  0  0  0  0  0  0  # atno 27194 bound_to 4055
  227.2758   -5.4519   45.4748 LP  0  0  0  0  0  0  0  0  0  0  0  0  # atno 27195 bound_to 4282
  226.8491   -6.3461   46.8955 LP  0  0  0  0  0  0  0  0  0  0  0  0  # atno 27196 bound_to 4282
  224.5598   -3.0882   46.8648 LP  0  0  0  0  0  0  0  0  0  0  0  0  # atno 27197 bound_to 4284
  226.0103   -3.5865   46.3043 LP  0  0  0  0  0  0  0  0  0  0  0  0  # atno 27198 bound_to 4284
  228.4144   -4.6498   47.5752 LP  0  0  0  0  0  0  0  0  0  0  0  0  # atno 27199 bound_to 4323
  230.9256   -7.1678   44.7765 LP  0  0  0  0  0  0  0  0  0  0  0  0  # atno 27200 bound_to 4326
  229.7216   -6.1819   44.0159 LP  0  0  0  0  0  0  0  0  0  0  0  0  # atno 27201 bound_to 4326
  232.5148   -4.5964   46.0720 LP  0  0  0  0  0  0  0  0  0  0  0  0  # atno 27202 bound_to 4328
  231.4638   -4.6168   47.3217 LP  0  0  0  0  0  0  0  0  0  0  0  0  # atno 27203 bound_to 4328
  231.9983    0.0588   45.2539 LP  0  0  0  0  0  0  0  0  0  0  0  0  # atno 27204 bound_to 6672
  231.9410    1.0458   46.5536 LP  0  0  0  0  0  0  0  0  0  0  0  0  # atno 27205 bound_to 6672
  226.9759   -1.6157   37.5349 LP  0  0  0  0  0  0  0  0  0  0  0  0  # atno 27211 bound_to 23656
  225.3880   -1.7584   36.8578 LP  0  0  0  0  0  0  0  0  0  0  0  0  # atno 27212 bound_to 23656
  226.2405   -0.3186   35.5885 LP  0  0  0  0  0  0  0  0  0  0  0  0  # atno 27213 bound_to 23712
  224.8372    2.7355   38.4436 LP  0  0  0  0  0  0  0  0  0  0  0  0  # atno 27214 bound_to 23715
  226.0432    3.9010   38.0110 LP  0  0  0  0  0  0  0  0  0  0  0  0  # atno 27215 bound_to 23715
  226.2760    2.8526   35.7486 LP  0  0  0  0  0  0  0  0  0  0  0  0  # atno 27216 bound_to 23787
  239.0158    2.9857   43.5591 LP  0  0  0  0  0  0  0  0  0  0  0  0  # atno 27217 bound_to 6895
  236.1309    5.1213   41.7065 LP  0  0  0  0  0  0  0  0  0  0  0  0  # atno 27218 bound_to 6898
  236.4038    6.5219   42.6883 LP  0  0  0  0  0  0  0  0  0  0  0  0  # atno 27219 bound_to 6898
  231.8643    6.6143   45.9543 LP  0  0  0  0  0  0  0  0  0  0  0  0  # atno 27220 bound_to 25719
  231.4375    6.6764   47.6318 LP  0  0  0  0  0  0  0  0  0  0  0  0  # atno 27221 bound_to 25719
  229.7532   -0.9116   50.9690 LP  0  0  0  0  0  0  0  0  0  0  0  0  # atno 27222 bound_to 4129
  228.3609   -0.1964   51.5998 LP  0  0  0  0  0  0  0  0  0  0  0  0  # atno 27223 bound_to 4052
  223.1195    6.2745   37.4020 LP  0  0  0  0  0  0  0  0  0  0  0  0  # atno 27225 bound_to 1313
  224.6060    9.3163   41.3254 LP  0  0  0  0  0  0  0  0  0  0  0  0  # atno 27226 bound_to 1316
  225.3316    7.7494   41.1895 LP  0  0  0  0  0  0  0  0  0  0  0  0  # atno 27227 bound_to 1316
  222.9106    9.8143   43.3533 LP  0  0  0  0  0  0  0  0  0  0  0  0  # atno 27228 bound_to 1536
  226.1666    4.3385   34.1361 LP  0  0  0  0  0  0  0  0  0  0  0  0  # atno 27229 bound_to 23815
  229.0162    4.6262   34.5440 LP  0  0  0  0  0  0  0  0  0  0  0  0  # atno 27230 bound_to 23818
  229.1864    5.4452   36.0607 LP  0  0  0  0  0  0  0  0  0  0  0  0  # atno 27231 bound_to 23818
  221.0557    8.0477   39.5727 LP  0  0  0  0  0  0  0  0  0  0  0  0  # atno 27232 bound_to 1257
  222.2329    6.8657   40.0385 LP  0  0  0  0  0  0  0  0  0  0  0  0  # atno 27233 bound_to 1257
  220.8012    4.5092   36.0045 LP  0  0  0  0  0  0  0  0  0  0  0  0  # atno 27234 bound_to 1260
  221.0336    4.1607   37.5828 LP  0  0  0  0  0  0  0  0  0  0  0  0  # atno 27235 bound_to 1260

> <Gold.Score>
     Fitness  S(hb_ext) S(vdw_ext)  S(hb_int)    S(int)      intcor
     38.99       6.42      24.80       0.00      -1.53      -0.76

> <Gold.Goldscore.Fitness>
38.9903

> <Gold.Goldscore.Internal.Vdw>
-1.8299

> <Gold.Goldscore.Internal.Torsion>
-0.4631

> <Gold.Goldscore.External.Vdw>
24.8000

> <Gold.Goldscore.Internal.HBond>
0.0000

> <Gold.Goldscore.External.HBond>
6.4249

> <Gold.Goldscore.Internal.Correction>
-0.7585

> <Gold.Goldscore.Hbonds>
donor molecule, donor type, donor heavy atom, donor atom, acceptor molecule, acceptor atom, score
      P1  H 23719 23770       L1     9  0.96
      P1  H 23722 23774       L1     9  0.06
      L1  H    10    23       P1  4055  0.15

> <Gold.Goldscore.Internal.Vdw.Weighted>
-1.8299

> <Gold.Goldscore.Internal.Torsion.Weighted>
-0.4631

> <Gold.Goldscore.External.Vdw.Weighted>
34.1000

> <Gold.Goldscore.Internal.HBond.Weighted>
0.0000

> <Gold.Goldscore.External.HBond.Weighted>
6.4249

> <Gold.Goldscore.Internal.Correction.Weighted>
-0.7585

> <Gold.Rescore>
     Score     S(PLP)   S(hbond)     S(cho)   S(metal)  DE(clash)   DE(tors)     intcor
     30.49     -29.66       1.00       0.00       0.00       2.01       0.08       ----

> <Gold.PLP.Fitness>
30.4887

> <Gold.PLP.PLP>
-29.6572

> <Gold.PLP.part.hbond>
-2.7827

> <Gold.PLP.part.metal>
0.0000

> <Gold.PLP.part.buried>
-3.4374

> <Gold.PLP.part.nonpolar>
-26.4228

> <Gold.PLP.part.repulsive>
2.4544

> <Gold.PLP.ligand.clash>
2.0062

> <Gold.PLP.ligand.torsion>
0.0811

> <Gold.PLP.Chemscore.Hbond>
1.0000

> <Gold.PLP.Chemscore.CHOScore>
0.0000

> <Gold.PLP.Chemscore.Metal>
0.0000

> <Gold.Chemscore.Hbonds>
donor molecule, donor type, donor heavy atom, donor atom, acceptor molecule, acceptor atom, score
      P1  H 23719 23770       L1     9  1.00
      P1  H 23722 23774       L1     9  0.34

> <Gold.PLP.Chemscore.Internal.Correction>
   9.000000E+99

#       Name:                CT1002167954
#       Creating user name   hitesit
#       Creation time:       Sun Apr 16 23:09:02 2023


#       File generated by GOLD software.
#

@<TRIPOS>MOLECULE
CT1002167954|ligand_prepared|mol2|1|dock4
    29    30     1
SMALL
NO_CHARGES


@<TRIPOS>ATOM
      1 C1         228.7485   0.9835  44.0085 C.3            1 RES1               0.0000
      2 C2         228.4067   2.2595  44.8047 C.ar           1 RES1               0.0000
      3 C3         228.2533  -0.1907  44.8477 C.2            1 RES1               0.0000
      4 C4         228.0507   1.1224  42.6600 C.2            1 RES1               0.0000
      5 C5         230.2611   0.7968  43.7466 C.3            1 RES1               0.0000
      6 C6         227.1380   2.4369  45.3484 C.ar           1 RES1               0.0000
      7 C7         229.3488   3.2648  45.0058 C.ar           1 RES1               0.0000
      8 N8         227.1279  -0.8369  44.4284 N.am           1 RES1               0.0000
      9 O9         228.8190  -0.5196  45.8831 O.2            1 RES1               0.0000
     10 N10        227.0433   0.2417  42.3645 N.am           1 RES1               0.0000
     11 O11        228.3528   1.9971  41.8575 O.2            1 RES1               0.0000
     12 C12        230.6176  -0.5551  43.1487 C.3            1 RES1               0.0000
     13 C13        226.8233   3.5767  46.0695 C.ar           1 RES1               0.0000
     14 C14        229.0318   4.4040  45.7271 C.ar           1 RES1               0.0000
     15 C15        226.5297  -0.7123  43.2002 C.2            1 RES1               0.0000
     16 C16        227.7699   4.5607  46.2597 C.ar           1 RES1               0.0000
     17 O17        225.5862  -1.4307  42.8825 O.2            1 RES1               0.0000
     18 H18        230.6014   1.5855  43.0643 H              1 RES1               0.0000
     19 H19        230.8010   0.9172  44.6940 H              1 RES1               0.0000
     20 H20        226.3793   1.6745  45.2069 H              1 RES1               0.0000
     21 H21        230.3476   3.1635  44.5950 H              1 RES1               0.0000
     22 H22        226.6906  -1.4713  45.0890 H              1 RES1               0.0000
     23 H23        226.6390   0.3027  41.4355 H              1 RES1               0.0000
     24 H24        231.6903  -0.6337  42.9851 H              1 RES1               0.0000
     25 H25        230.3161  -1.3623  43.8130 H              1 RES1               0.0000
     26 H26        230.1176  -0.6980  42.1930 H              1 RES1               0.0000
     27 H27        225.8283   3.6959  46.4855 H              1 RES1               0.0000
     28 H28        229.7798   5.1761  45.8738 H              1 RES1               0.0000
     29 H29        227.5232   5.4534  46.8250 H              1 RES1               0.0000
@<TRIPOS>BOND
    1    1    2 1     
    2    1    3 1     
    3    1    4 1     
    4    1    5 1     
    5    2    6 ar    
    6    2    7 ar    
    7    3    8 1     
    8    3    9 2     
    9    4   10 1     
   10    4   11 2     
   11    5   12 1     
   12    5   18 1     
   13    5   19 1     
   14    6   13 ar    
   15    6   20 1     
   16    7   14 ar    
   17    7   21 1     
   18    8   15 1     
   19    8   22 1     
   20   10   15 1     
   21   10   23 1     
   22   12   24 1     
   23   12   25 1     
   24   12   26 1     
   25   13   16 ar    
   26   13   27 1     
   27   14   16 ar    
   28   14   28 1     
   29   15   17 2     
   30   16   29 1     
@<TRIPOS>SUBSTRUCTURE
      1 RES1           1
@<TRIPOS>SET
DONOR_HYDROGENS      STATIC     ATOMS    <user>   **** ""
2 22 23
ATOM$RED        STATIC     ATOMS    COLORGROUP SYSTEM
2 22 23
@<TRIPOS>COMMENT
> <Gold.Version>
2022.3.0

> <Gold.Id.Protein>
unknown|4d1n_clean|pdb

> <Gold.Protein.RotatedTorsions>
[ 1594 1544 1543 1542 ] final   -6.33 input   60.00 | X-H torsion
[ 4304 4284 4283 4280 ] final   24.59 input   59.98 | X-H torsion
[ 4344 4323 4324 4325 ] final -129.08 input  122.59 | X-H torsion
[ 4348 4328 4327 4324 ] final  -24.19 input   59.99 | X-H torsion
[ 6708 6672 6671 6669 ] final -119.07 input   60.02 | X-H torsion
[ 23762 23712 23713 23714 ] final   18.35 input   58.31 | X-H torsion
[ 23800 23787 23788 23789 ] final   23.80 input  -92.91 | X-H torsion
[ 6926 6895 6896 6897 ] final  -89.48 input  109.21 | X-H torsion
[ 4168 4129 4130 4131 ] final  -51.22 input  118.46 | X-H torsion
[ 4085 4052 4053 4054 ] final -135.17 input  111.71 | X-H torsion
[ 1354 1313 1314 1315 ] final  105.74 input  117.91 | X-H torsion
[ 1584 1536 1537 1538 ] final  123.09 input   95.51 | X-H torsion
[ 23828 23815 23816 23817 ] final  -97.30 input  -25.33 | X-H torsion
[ 1288 1260 1258 1255 ] final  -26.33 input   59.99 | X-H torsion
[ 25744 25716 25717 25718 ] final   48.44 input   66.04 | X-H torsion
[ 27193 4055 4054 4053 ] final -166.17 input   -0.00 | X-H torsion
[ 27195 4282 4281 4280 ] final   55.27 input    0.00 | X-H torsion
[ 27200 4326 4325 4324 ] final   47.31 input    0.00 | X-H torsion
[ 27211 23656 23655 23654 ] final  -91.27 input   -0.00 | X-H torsion
[ 27214 23715 23714 23713 ] final   -2.38 input    0.00 | X-H torsion
[ 27218 6898 6897 6896 ] final   68.55 input   -0.00 | X-H torsion
[ 27220 25719 25718 25717 ] final -118.93 input   -0.00 | X-H torsion
[ 27226 1316 1315 1314 ] final -156.97 input    0.00 | X-H torsion
[ 27230 23818 23817 23816 ] final   47.06 input    0.00 | X-H torsion
[ 27232 1257 1256 1255 ] final    6.14 input    0.00 | X-H torsion

> <Gold.Protein.ActiveResidues>
 ARG304  THR320  LEU321  LEU323  LYS324  GLN369  TYR370  SER372  SER373  TYR408 
 HIS412  ARG415  ASN416  TRP426  GLU670  CYS673  ARG674  GLY675  GLY676  TYR703 
 LEU705  THR706  PRO707 

> <Gold.Protein.RotatedAtoms>
  221.7891    5.1622   36.2209 H   0  0  0  0  0  0  0  0  0  0  0  0  # atno 1288 bound_to 1260
  223.6759    7.1943   36.8292 H   0  0  0  0  0  0  0  0  0  0  0  0  # atno 1354 bound_to 1313
  223.6104    8.5394   42.3841 H   0  0  0  0  0  0  0  0  0  0  0  0  # atno 1584 bound_to 1536
  223.6473    4.3312   45.6850 H   0  0  0  0  0  0  0  0  0  0  0  0  # atno 1594 bound_to 1544
  222.2380    3.9260   44.9124 H   0  0  0  0  0  0  0  0  0  0  0  0  # atno 1595 bound_to 1544
  223.2917    2.7388   45.3916 H   0  0  0  0  0  0  0  0  0  0  0  0  # atno 1596 bound_to 1544
  227.2022    0.6472   51.2740 H   0  0  0  0  0  0  0  0  0  0  0  0  # atno 4085 bound_to 4052
  229.6236   -0.8515   49.6332 H   0  0  0  0  0  0  0  0  0  0  0  0  # atno 4168 bound_to 4129
  225.4114   -3.8245   46.5527 H   0  0  0  0  0  0  0  0  0  0  0  0  # atno 4304 bound_to 4284
  227.8923   -3.4844   46.7428 H   0  0  0  0  0  0  0  0  0  0  0  0  # atno 4344 bound_to 4323
  231.4674   -4.6132   47.3171 H   0  0  0  0  0  0  0  0  0  0  0  0  # atno 4348 bound_to 4328
  231.3360   -0.5686   46.4514 H   0  0  0  0  0  0  0  0  0  0  0  0  # atno 6708 bound_to 6672
  238.7007    2.2354   42.9351 H   0  0  0  0  0  0  0  0  0  0  0  0  # atno 6926 bound_to 6895
  226.4681    0.7535   34.8466 H   0  0  0  0  0  0  0  0  0  0  0  0  # atno 23762 bound_to 23712
  226.2493    2.8669   35.9123 H   0  0  0  0  0  0  0  0  0  0  0  0  # atno 23800 bound_to 23787
  225.9707    4.4061   34.0650 H   0  0  0  0  0  0  0  0  0  0  0  0  # atno 23828 bound_to 23815
  231.0984    9.0299   46.1783 H   0  0  0  0  0  0  0  0  0  0  0  0  # atno 25744 bound_to 25716
  229.9427   -2.3196   48.2884 LP  0  0  0  0  0  0  0  0  0  0  0  0  # atno 27193 bound_to 4055
  228.8041   -1.2322   47.5663 LP  0  0  0  0  0  0  0  0  0  0  0  0  # atno 27194 bound_to 4055
  226.3081   -5.4905   46.0662 LP  0  0  0  0  0  0  0  0  0  0  0  0  # atno 27195 bound_to 4282
  227.8168   -6.3074   46.3042 LP  0  0  0  0  0  0  0  0  0  0  0  0  # atno 27196 bound_to 4282
  226.1746   -2.4305   46.2027 LP  0  0  0  0  0  0  0  0  0  0  0  0  # atno 27197 bound_to 4284
  224.6569   -2.4048   46.8048 LP  0  0  0  0  0  0  0  0  0  0  0  0  # atno 27198 bound_to 4284
  229.0238   -4.1577   47.8942 LP  0  0  0  0  0  0  0  0  0  0  0  0  # atno 27199 bound_to 4323
  230.7738   -6.0113   44.0691 LP  0  0  0  0  0  0  0  0  0  0  0  0  # atno 27200 bound_to 4326
  229.8734   -7.3384   44.7233 LP  0  0  0  0  0  0  0  0  0  0  0  0  # atno 27201 bound_to 4326
  232.4224   -3.3166   47.0824 LP  0  0  0  0  0  0  0  0  0  0  0  0  # atno 27202 bound_to 4328
  232.5150   -4.5961   46.0720 LP  0  0  0  0  0  0  0  0  0  0  0  0  # atno 27203 bound_to 4328
  232.0765    0.2665   45.2668 LP  0  0  0  0  0  0  0  0  0  0  0  0  # atno 27204 bound_to 6672
  231.8428    0.9528   46.7300 LP  0  0  0  0  0  0  0  0  0  0  0  0  # atno 27205 bound_to 6672
  225.3598   -1.5590   36.9564 LP  0  0  0  0  0  0  0  0  0  0  0  0  # atno 27211 bound_to 23656
  227.0042   -1.8151   37.4363 LP  0  0  0  0  0  0  0  0  0  0  0  0  # atno 27212 bound_to 23656
  227.3469   -0.4867   35.7150 LP  0  0  0  0  0  0  0  0  0  0  0  0  # atno 27213 bound_to 23712
  225.9929    2.8459   38.6978 LP  0  0  0  0  0  0  0  0  0  0  0  0  # atno 27214 bound_to 23715
  224.8874    3.7907   37.7569 LP  0  0  0  0  0  0  0  0  0  0  0  0  # atno 27215 bound_to 23715
  225.0889    1.6471   35.4438 LP  0  0  0  0  0  0  0  0  0  0  0  0  # atno 27216 bound_to 23787
  238.3701    2.3658   44.6409 LP  0  0  0  0  0  0  0  0  0  0  0  0  # atno 27217 bound_to 6895
  235.5368    5.6833   42.6414 LP  0  0  0  0  0  0  0  0  0  0  0  0  # atno 27218 bound_to 6898
  236.9979    5.9599   41.7534 LP  0  0  0  0  0  0  0  0  0  0  0  0  # atno 27219 bound_to 6898
  231.6998    6.2804   47.5769 LP  0  0  0  0  0  0  0  0  0  0  0  0  # atno 27220 bound_to 25719
  231.6020    7.0103   46.0092 LP  0  0  0  0  0  0  0  0  0  0  0  0  # atno 27221 bound_to 25719
  230.5703   -0.1672   50.9286 LP  0  0  0  0  0  0  0  0  0  0  0  0  # atno 27222 bound_to 4129
  228.9081    0.5594   51.6257 LP  0  0  0  0  0  0  0  0  0  0  0  0  # atno 27223 bound_to 4052
  222.4646    7.0794   38.0806 LP  0  0  0  0  0  0  0  0  0  0  0  0  # atno 27225 bound_to 1313
  224.5695    9.2974   41.3353 LP  0  0  0  0  0  0  0  0  0  0  0  0  # atno 27226 bound_to 1316
  225.3681    7.7683   41.1797 LP  0  0  0  0  0  0  0  0  0  0  0  0  # atno 27227 bound_to 1316
  222.9275    9.8290   43.3461 LP  0  0  0  0  0  0  0  0  0  0  0  0  # atno 27228 bound_to 1536
  225.9122    4.9059   35.7365 LP  0  0  0  0  0  0  0  0  0  0  0  0  # atno 27229 bound_to 23815
  228.6896    4.5172   34.7441 LP  0  0  0  0  0  0  0  0  0  0  0  0  # atno 27230 bound_to 23818
  229.5130    5.5542   35.8606 LP  0  0  0  0  0  0  0  0  0  0  0  0  # atno 27231 bound_to 23818
  220.8162    7.3952   39.5598 LP  0  0  0  0  0  0  0  0  0  0  0  0  # atno 27232 bound_to 1257
  222.4724    7.5183   40.0514 LP  0  0  0  0  0  0  0  0  0  0  0  0  # atno 27233 bound_to 1257
  220.5352    4.1582   36.4825 LP  0  0  0  0  0  0  0  0  0  0  0  0  # atno 27234 bound_to 1260
  221.5678    4.5130   37.6968 LP  0  0  0  0  0  0  0  0  0  0  0  0  # atno 27235 bound_to 1260

> <Gold.Score>
     Fitness  S(hb_ext) S(vdw_ext)  S(hb_int)    S(int)      intcor
     37.64       4.39      24.26       0.00      -0.11      -0.76

> <Gold.Goldscore.Fitness>
37.6361

> <Gold.Goldscore.Internal.Vdw>
-0.3828

> <Gold.Goldscore.Internal.Torsion>
-0.4894

> <Gold.Goldscore.External.Vdw>
24.2649

> <Gold.Goldscore.Internal.HBond>
0.0000

> <Gold.Goldscore.External.HBond>
4.3856

> <Gold.Goldscore.Internal.Correction>
-0.7585

> <Gold.Goldscore.Hbonds>
donor molecule, donor type, donor heavy atom, donor atom, acceptor molecule, acceptor atom, score
      P1  H  6672  6708       L1     9  0.02
      P1  H 23719 23770       L1    11  0.58
      L1  H     8    22       P1  4284  0.42

> <Gold.Goldscore.Internal.Vdw.Weighted>
-0.3828

> <Gold.Goldscore.Internal.Torsion.Weighted>
-0.4894

> <Gold.Goldscore.External.Vdw.Weighted>
33.3642

> <Gold.Goldscore.Internal.HBond.Weighted>
0.0000

> <Gold.Goldscore.External.HBond.Weighted>
4.3856

> <Gold.Goldscore.Internal.Correction.Weighted>
-0.7585

> <Gold.Rescore>
     Score     S(PLP)   S(hbond)     S(cho)   S(metal)  DE(clash)   DE(tors)     intcor
     32.25     -32.33       0.24       0.00       0.00       0.00       0.40       ----

> <Gold.PLP.Fitness>
32.2479

> <Gold.PLP.PLP>
-32.3307

> <Gold.PLP.part.hbond>
-2.0489

> <Gold.PLP.part.metal>
0.0000

> <Gold.PLP.part.buried>
-5.4443

> <Gold.PLP.part.nonpolar>
-25.2279

> <Gold.PLP.part.repulsive>
0.1635

> <Gold.PLP.ligand.clash>
0.0000

> <Gold.PLP.ligand.torsion>
0.4002

> <Gold.PLP.Chemscore.Hbond>
0.2392

> <Gold.PLP.Chemscore.CHOScore>
0.0000

> <Gold.PLP.Chemscore.Metal>
0.0000

> <Gold.Chemscore.Hbonds>
donor molecule, donor type, donor heavy atom, donor atom, acceptor molecule, acceptor atom, score
      P1  H 23719 23770       L1    11  0.89

> <Gold.PLP.Chemscore.Internal.Correction>
   9.000000E+99

#       Name:                CT1002167954
#       Creating user name   hitesit
#       Creation time:       Sun Apr 16 23:09:04 2023


#       File generated by GOLD software.
#

@<TRIPOS>MOLECULE
CT1002167954|ligand_prepared|mol2|1|dock9
    29    30     1
SMALL
NO_CHARGES


@<TRIPOS>ATOM
      1 C1         228.0651   2.3542  44.7477 C.3            1 RES1               0.0000
      2 C2         227.0367   1.9877  43.6583 C.ar           1 RES1               0.0000
      3 C3         229.1272   3.2099  44.0637 C.2            1 RES1               0.0000
      4 C4         227.2888   3.0815  45.8399 C.2            1 RES1               0.0000
      5 C5         228.7589   1.1300  45.3891 C.3            1 RES1               0.0000
      6 C6         226.1587   0.9237  43.8419 C.ar           1 RES1               0.0000
      7 C7         226.9522   2.7048  42.4678 C.ar           1 RES1               0.0000
      8 N8         229.1252   4.5483  44.3255 N.am           1 RES1               0.0000
      9 O9         229.9294   2.7240  43.2758 O.2            1 RES1               0.0000
     10 N10        227.5734   4.4041  46.0578 N.am           1 RES1               0.0000
     11 O11        226.4215   2.5256  46.5025 O.2            1 RES1               0.0000
     12 C12        229.2233   0.0905  44.3811 C.3            1 RES1               0.0000
     13 C13        225.2280   0.5903  42.8718 C.ar           1 RES1               0.0000
     14 C14        226.0209   2.3696  41.4989 C.ar           1 RES1               0.0000
     15 C15        228.4348   5.1785  45.3295 C.2            1 RES1               0.0000
     16 C16        225.1582   1.3132  41.7000 C.ar           1 RES1               0.0000
     17 O17        228.5969   6.3750  45.5516 O.2            1 RES1               0.0000
     18 H18        229.6266   1.4768  45.9638 H              1 RES1               0.0000
     19 H19        228.0608   0.6552  46.0896 H              1 RES1               0.0000
     20 H20        226.2004   0.3418  44.7566 H              1 RES1               0.0000
     21 H21        227.6216   3.5391  42.2874 H              1 RES1               0.0000
     22 H22        229.6892   5.1349  43.7188 H              1 RES1               0.0000
     23 H23        227.0993   4.8529  46.8351 H              1 RES1               0.0000
     24 H24        229.7029  -0.7468  44.8837 H              1 RES1               0.0000
     25 H25        228.3819  -0.2947  43.8088 H              1 RES1               0.0000
     26 H26        229.9384   0.5220  43.6838 H              1 RES1               0.0000
     27 H27        224.5522  -0.2428  43.0344 H              1 RES1               0.0000
     28 H28        225.9700   2.9408  40.5779 H              1 RES1               0.0000
     29 H29        224.4288   1.0521  40.9404 H              1 RES1               0.0000
@<TRIPOS>BOND
    1    1    2 1     
    2    1    3 1     
    3    1    4 1     
    4    1    5 1     
    5    2    6 ar    
    6    2    7 ar    
    7    3    8 1     
    8    3    9 2     
    9    4   10 1     
   10    4   11 2     
   11    5   12 1     
   12    5   18 1     
   13    5   19 1     
   14    6   13 ar    
   15    6   20 1     
   16    7   14 ar    
   17    7   21 1     
   18    8   15 1     
   19    8   22 1     
   20   10   15 1     
   21   10   23 1     
   22   12   24 1     
   23   12   25 1     
   24   12   26 1     
   25   13   16 ar    
   26   13   27 1     
   27   14   16 ar    
   28   14   28 1     
   29   15   17 2     
   30   16   29 1     
@<TRIPOS>SUBSTRUCTURE
      1 RES1           1
@<TRIPOS>SET
DONOR_HYDROGENS      STATIC     ATOMS    <user>   **** ""
2 22 23
ATOM$RED        STATIC     ATOMS    COLORGROUP SYSTEM
2 22 23
@<TRIPOS>COMMENT
> <Gold.Version>
2022.3.0

> <Gold.Id.Protein>
unknown|4d1n_clean|pdb

> <Gold.Protein.RotatedTorsions>
[ 1594 1544 1543 1542 ] final  -41.90 input   60.00 | X-H torsion
[ 4304 4284 4283 4280 ] final -114.20 input   59.98 | X-H torsion
[ 4344 4323 4324 4325 ] final   61.86 input  122.59 | X-H torsion
[ 4348 4328 4327 4324 ] final  173.47 input   59.99 | X-H torsion
[ 6708 6672 6671 6669 ] final   28.61 input   60.02 | X-H torsion
[ 23762 23712 23713 23714 ] final  133.62 input   58.31 | X-H torsion
[ 23800 23787 23788 23789 ] final   84.24 input  -92.91 | X-H torsion
[ 6926 6895 6896 6897 ] final -124.41 input  109.21 | X-H torsion
[ 4168 4129 4130 4131 ] final  -51.66 input  118.46 | X-H torsion
[ 4085 4052 4053 4054 ] final  173.68 input  111.71 | X-H torsion
[ 1354 1313 1314 1315 ] final   57.19 input  117.91 | X-H torsion
[ 1584 1536 1537 1538 ] final   -8.14 input   95.51 | X-H torsion
[ 23828 23815 23816 23817 ] final  -10.63 input  -25.33 | X-H torsion
[ 1288 1260 1258 1255 ] final  -85.69 input   59.99 | X-H torsion
[ 25744 25716 25717 25718 ] final    7.21 input   66.04 | X-H torsion
[ 27193 4055 4054 4053 ] final  101.66 input   -0.00 | X-H torsion
[ 27195 4282 4281 4280 ] final -108.62 input    0.00 | X-H torsion
[ 27200 4326 4325 4324 ] final -129.01 input    0.00 | X-H torsion
[ 27211 23656 23655 23654 ] final -164.00 input   -0.00 | X-H torsion
[ 27214 23715 23714 23713 ] final   14.17 input    0.00 | X-H torsion
[ 27218 6898 6897 6896 ] final  162.40 input   -0.00 | X-H torsion
[ 27220 25719 25718 25717 ] final   76.31 input   -0.00 | X-H torsion
[ 27226 1316 1315 1314 ] final  177.02 input    0.00 | X-H torsion
[ 27230 23818 23817 23816 ] final  -46.53 input    0.00 | X-H torsion
[ 27232 1257 1256 1255 ] final  102.84 input    0.00 | X-H torsion

> <Gold.Protein.ActiveResidues>
 ARG304  THR320  LEU321  LEU323  LYS324  GLN369  TYR370  SER372  SER373  TYR408 
 HIS412  ARG415  ASN416  TRP426  GLU670  CYS673  ARG674  GLY675  GLY676  TYR703 
 LEU705  THR706  PRO707 

> <Gold.Protein.RotatedAtoms>
  221.0384    4.7182   35.9053 H   0  0  0  0  0  0  0  0  0  0  0  0  # atno 1288 bound_to 1260
  223.4409    7.8327   37.0751 H   0  0  0  0  0  0  0  0  0  0  0  0  # atno 1354 bound_to 1313
  223.5199   10.0308   42.9863 H   0  0  0  0  0  0  0  0  0  0  0  0  # atno 1584 bound_to 1536
  223.8912    3.8085   45.7797 H   0  0  0  0  0  0  0  0  0  0  0  0  # atno 1594 bound_to 1544
  222.5108    4.4120   45.0888 H   0  0  0  0  0  0  0  0  0  0  0  0  # atno 1595 bound_to 1544
  222.7749    2.7754   45.1205 H   0  0  0  0  0  0  0  0  0  0  0  0  # atno 1596 bound_to 1544
  227.5705    1.3088   51.2737 H   0  0  0  0  0  0  0  0  0  0  0  0  # atno 4085 bound_to 4052
  229.6271   -0.8478   49.6288 H   0  0  0  0  0  0  0  0  0  0  0  0  # atno 4168 bound_to 4129
  225.9911   -2.1944   46.2712 H   0  0  0  0  0  0  0  0  0  0  0  0  # atno 4304 bound_to 4284
  229.1143   -4.0153   47.9015 H   0  0  0  0  0  0  0  0  0  0  0  0  # atno 4344 bound_to 4323
  232.7504   -3.5367   46.5306 H   0  0  0  0  0  0  0  0  0  0  0  0  # atno 4348 bound_to 4328
  232.0320    1.0869   46.3450 H   0  0  0  0  0  0  0  0  0  0  0  0  # atno 6708 bound_to 6672
  238.4054    1.8234   43.0701 H   0  0  0  0  0  0  0  0  0  0  0  0  # atno 6926 bound_to 6895
  227.8020    0.1930   35.2568 H   0  0  0  0  0  0  0  0  0  0  0  0  # atno 23762 bound_to 23712
  225.7307    2.4830   36.5254 H   0  0  0  0  0  0  0  0  0  0  0  0  # atno 23800 bound_to 23787
  226.7435    4.3050   34.9881 H   0  0  0  0  0  0  0  0  0  0  0  0  # atno 23828 bound_to 23815
  231.4325    8.7683   45.7218 H   0  0  0  0  0  0  0  0  0  0  0  0  # atno 25744 bound_to 25716
  230.0014   -1.3260   47.5359 LP  0  0  0  0  0  0  0  0  0  0  0  0  # atno 27193 bound_to 4055
  228.7454   -2.2258   48.3187 LP  0  0  0  0  0  0  0  0  0  0  0  0  # atno 27194 bound_to 4055
  227.6974   -6.4005   46.4940 LP  0  0  0  0  0  0  0  0  0  0  0  0  # atno 27195 bound_to 4282
  226.4275   -5.3974   45.8764 LP  0  0  0  0  0  0  0  0  0  0  0  0  # atno 27196 bound_to 4282
  224.5552   -2.6909   46.8542 LP  0  0  0  0  0  0  0  0  0  0  0  0  # atno 27197 bound_to 4284
  225.6928   -3.7855   46.4367 LP  0  0  0  0  0  0  0  0  0  0  0  0  # atno 27198 bound_to 4284
  227.8358   -3.6417   46.7678 LP  0  0  0  0  0  0  0  0  0  0  0  0  # atno 27199 bound_to 4323
  229.8273   -7.3150   44.7026 LP  0  0  0  0  0  0  0  0  0  0  0  0  # atno 27200 bound_to 4326
  230.8199   -6.0347   44.0898 LP  0  0  0  0  0  0  0  0  0  0  0  0  # atno 27201 bound_to 4326
  232.0427   -4.9924   46.3616 LP  0  0  0  0  0  0  0  0  0  0  0  0  # atno 27202 bound_to 4328
  231.6025   -4.0045   47.5851 LP  0  0  0  0  0  0  0  0  0  0  0  0  # atno 27203 bound_to 4328
  231.3166   -0.2989   46.8105 LP  0  0  0  0  0  0  0  0  0  0  0  0  # atno 27204 bound_to 6672
  231.9020   -0.1486   45.2935 LP  0  0  0  0  0  0  0  0  0  0  0  0  # atno 27205 bound_to 6672
  225.9352   -0.9233   37.5216 LP  0  0  0  0  0  0  0  0  0  0  0  0  # atno 27211 bound_to 23656
  226.4288   -2.4508   36.8711 LP  0  0  0  0  0  0  0  0  0  0  0  0  # atno 27212 bound_to 23656
  226.0580    0.0549   35.3187 LP  0  0  0  0  0  0  0  0  0  0  0  0  # atno 27213 bound_to 23712
  226.1512    3.0238   38.6244 LP  0  0  0  0  0  0  0  0  0  0  0  0  # atno 27214 bound_to 23715
  224.7291    3.6128   37.8302 LP  0  0  0  0  0  0  0  0  0  0  0  0  # atno 27215 bound_to 23715
  225.5953    2.0221   34.8451 LP  0  0  0  0  0  0  0  0  0  0  0  0  # atno 27216 bound_to 23787
  238.6635    2.7750   44.5067 LP  0  0  0  0  0  0  0  0  0  0  0  0  # atno 27217 bound_to 6895
  236.4735    6.5338   42.6449 LP  0  0  0  0  0  0  0  0  0  0  0  0  # atno 27218 bound_to 6898
  236.0611    5.1094   41.7499 LP  0  0  0  0  0  0  0  0  0  0  0  0  # atno 27219 bound_to 6898
  231.7299    6.8289   45.9504 LP  0  0  0  0  0  0  0  0  0  0  0  0  # atno 27220 bound_to 25719
  231.5718    6.4618   47.6357 LP  0  0  0  0  0  0  0  0  0  0  0  0  # atno 27221 bound_to 25719
  230.5668   -0.1708   50.9330 LP  0  0  0  0  0  0  0  0  0  0  0  0  # atno 27222 bound_to 4129
  228.5439   -0.0947   51.6260 LP  0  0  0  0  0  0  0  0  0  0  0  0  # atno 27223 bound_to 4052
  222.6958    6.4514   37.8387 LP  0  0  0  0  0  0  0  0  0  0  0  0  # atno 27225 bound_to 1313
  224.9338    9.3980   41.2398 LP  0  0  0  0  0  0  0  0  0  0  0  0  # atno 27226 bound_to 1316
  225.0039    7.6677   41.2751 LP  0  0  0  0  0  0  0  0  0  0  0  0  # atno 27227 bound_to 1316
  223.0159    8.3728   42.7581 LP  0  0  0  0  0  0  0  0  0  0  0  0  # atno 27228 bound_to 1536
  225.1525    5.0053   34.8291 LP  0  0  0  0  0  0  0  0  0  0  0  0  # atno 27229 bound_to 23815
  228.4958    4.9472   35.9152 LP  0  0  0  0  0  0  0  0  0  0  0  0  # atno 27230 bound_to 23818
  229.7068    5.1242   34.6895 LP  0  0  0  0  0  0  0  0  0  0  0  0  # atno 27231 bound_to 23818
  221.7779    6.6093   39.9239 LP  0  0  0  0  0  0  0  0  0  0  0  0  # atno 27232 bound_to 1257
  221.5107    8.3042   39.6873 LP  0  0  0  0  0  0  0  0  0  0  0  0  # atno 27233 bound_to 1257
  220.7974    4.0572   37.3729 LP  0  0  0  0  0  0  0  0  0  0  0  0  # atno 27234 bound_to 1260
  222.0612    5.0609   37.1240 LP  0  0  0  0  0  0  0  0  0  0  0  0  # atno 27235 bound_to 1260

> <Gold.Score>
     Fitness  S(hb_ext) S(vdw_ext)  S(hb_int)    S(int)      intcor
     37.64       6.00      25.27       0.00      -3.12      -0.76

> <Gold.Goldscore.Fitness>
37.6352

> <Gold.Goldscore.Internal.Vdw>
-3.1627

> <Gold.Goldscore.Internal.Torsion>
-0.7109

> <Gold.Goldscore.External.Vdw>
25.2729

> <Gold.Goldscore.Internal.HBond>
0.0000

> <Gold.Goldscore.External.HBond>
6.0000

> <Gold.Goldscore.Internal.Correction>
-0.7585

> <Gold.Goldscore.Hbonds>
donor molecule, donor type, donor heavy atom, donor atom, acceptor molecule, acceptor atom, score
      P1  H 23722 23774       L1     9  1.00

> <Gold.Goldscore.Internal.Vdw.Weighted>
-3.1627

> <Gold.Goldscore.Internal.Torsion.Weighted>
-0.7109

> <Gold.Goldscore.External.Vdw.Weighted>
34.7502

> <Gold.Goldscore.Internal.HBond.Weighted>
0.0000

> <Gold.Goldscore.External.HBond.Weighted>
6.0000

> <Gold.Goldscore.Internal.Correction.Weighted>
-0.7585

> <Gold.Rescore>
     Score     S(PLP)   S(hbond)     S(cho)   S(metal)  DE(clash)   DE(tors)     intcor
     33.10     -32.07       1.00       0.00       0.00       0.01       0.98       ----

> <Gold.PLP.Fitness>
33.1003

> <Gold.PLP.PLP>
-32.0723

> <Gold.PLP.part.hbond>
-1.5337

> <Gold.PLP.part.metal>
0.0000

> <Gold.PLP.part.buried>
-5.2108

> <Gold.PLP.part.nonpolar>
-26.5574

> <Gold.PLP.part.repulsive>
0.6749

> <Gold.PLP.ligand.clash>
0.0147

> <Gold.PLP.ligand.torsion>
0.9787

> <Gold.PLP.Chemscore.Hbond>
1.0000

> <Gold.PLP.Chemscore.CHOScore>
0.0000

> <Gold.PLP.Chemscore.Metal>
0.0000

> <Gold.Chemscore.Hbonds>
donor molecule, donor type, donor heavy atom, donor atom, acceptor molecule, acceptor atom, score
      P1  H 23722 23774       L1     9  1.00

> <Gold.PLP.Chemscore.Internal.Correction>
   9.000000E+99

#       Name:                CT1002167954
#       Creating user name   hitesit
#       Creation time:       Sun Apr 16 23:09:02 2023


#       File generated by GOLD software.
#

@<TRIPOS>MOLECULE
CT1002167954|ligand_prepared|mol2|1|dock5
    29    30     1
SMALL
NO_CHARGES


@<TRIPOS>ATOM
      1 C1         228.1724   1.9193  44.6580 C.3            1 RES1               0.0000
      2 C2         227.3027   1.5484  43.4394 C.ar           1 RES1               0.0000
      3 C3         228.9754   3.1517  44.2521 C.2            1 RES1               0.0000
      4 C4         227.2074   2.1585  45.8138 C.2            1 RES1               0.0000
      5 C5         229.1599   0.8074  45.0824 C.3            1 RES1               0.0000
      6 C6         226.7114   0.2921  43.3469 C.ar           1 RES1               0.0000
      7 C7         227.0809   2.4514  42.4030 C.ar           1 RES1               0.0000
      8 N8         228.6056   4.3508  44.7861 N.am           1 RES1               0.0000
      9 O9         229.8941   3.0785  43.4452 O.2            1 RES1               0.0000
     10 N10        227.1184   3.4272  46.3240 N.am           1 RES1               0.0000
     11 O11        226.5109   1.2634  46.2765 O.2            1 RES1               0.0000
     12 C12        229.9066   0.1738  43.9191 C.3            1 RES1               0.0000
     13 C13        225.9243  -0.0483  42.2593 C.ar           1 RES1               0.0000
     14 C14        226.2937   2.1088  41.3161 C.ar           1 RES1               0.0000
     15 C15        227.7512   4.5407  45.8423 C.2            1 RES1               0.0000
     16 C16        225.7146   0.8598  41.2435 C.ar           1 RES1               0.0000
     17 O17        227.5785   5.6580  46.3207 O.2            1 RES1               0.0000
     18 H18        229.8907   1.2323  45.7816 H              1 RES1               0.0000
     19 H19        228.6037   0.0249  45.6131 H              1 RES1               0.0000
     20 H20        226.8671  -0.4366  44.1355 H              1 RES1               0.0000
     21 H21        227.5274   3.4394  42.4383 H              1 RES1               0.0000
     22 H22        229.0007   5.1834  44.3606 H              1 RES1               0.0000
     23 H23        226.5258   3.5532  47.1384 H              1 RES1               0.0000
     24 H24        230.5858  -0.5994  44.2721 H              1 RES1               0.0000
     25 H25        229.2115  -0.2808  43.2163 H              1 RES1               0.0000
     26 H26        230.4908   0.9194  43.3838 H              1 RES1               0.0000
     27 H27        225.4719  -1.0331  42.2062 H              1 RES1               0.0000
     28 H28        226.1319   2.8265  40.5186 H              1 RES1               0.0000
     29 H29        225.0977   0.5930  40.3917 H              1 RES1               0.0000
@<TRIPOS>BOND
    1    1    2 1     
    2    1    3 1     
    3    1    4 1     
    4    1    5 1     
    5    2    6 ar    
    6    2    7 ar    
    7    3    8 1     
    8    3    9 2     
    9    4   10 1     
   10    4   11 2     
   11    5   12 1     
   12    5   18 1     
   13    5   19 1     
   14    6   13 ar    
   15    6   20 1     
   16    7   14 ar    
   17    7   21 1     
   18    8   15 1     
   19    8   22 1     
   20   10   15 1     
   21   10   23 1     
   22   12   24 1     
   23   12   25 1     
   24   12   26 1     
   25   13   16 ar    
   26   13   27 1     
   27   14   16 ar    
   28   14   28 1     
   29   15   17 2     
   30   16   29 1     
@<TRIPOS>SUBSTRUCTURE
      1 RES1           1
@<TRIPOS>SET
DONOR_HYDROGENS      STATIC     ATOMS    <user>   **** ""
2 22 23
ATOM$RED        STATIC     ATOMS    COLORGROUP SYSTEM
2 22 23
@<TRIPOS>COMMENT
> <Gold.Version>
2022.3.0

> <Gold.Id.Protein>
unknown|4d1n_clean|pdb

> <Gold.Protein.RotatedTorsions>
[ 1594 1544 1543 1542 ] final   44.27 input   60.00 | X-H torsion
[ 4304 4284 4283 4280 ] final  -77.70 input   59.98 | X-H torsion
[ 4344 4323 4324 4325 ] final  -89.80 input  122.59 | X-H torsion
[ 4348 4328 4327 4324 ] final   -8.90 input   59.99 | X-H torsion
[ 6708 6672 6671 6669 ] final   48.05 input   60.02 | X-H torsion
[ 23762 23712 23713 23714 ] final -175.85 input   58.31 | X-H torsion
[ 23800 23787 23788 23789 ] final  -19.52 input  -92.91 | X-H torsion
[ 6926 6895 6896 6897 ] final   61.45 input  109.21 | X-H torsion
[ 4168 4129 4130 4131 ] final   13.10 input  118.46 | X-H torsion
[ 4085 4052 4053 4054 ] final  -31.09 input  111.71 | X-H torsion
[ 1354 1313 1314 1315 ] final  -18.21 input  117.91 | X-H torsion
[ 1584 1536 1537 1538 ] final -178.28 input   95.51 | X-H torsion
[ 23828 23815 23816 23817 ] final -101.63 input  -25.33 | X-H torsion
[ 1288 1260 1258 1255 ] final   80.68 input   59.99 | X-H torsion
[ 25744 25716 25717 25718 ] final  170.45 input   66.04 | X-H torsion
[ 27193 4055 4054 4053 ] final   27.03 input   -0.00 | X-H torsion
[ 27195 4282 4281 4280 ] final -111.40 input    0.00 | X-H torsion
[ 27200 4326 4325 4324 ] final  -72.72 input    0.00 | X-H torsion
[ 27211 23656 23655 23654 ] final  -18.11 input   -0.00 | X-H torsion
[ 27214 23715 23714 23713 ] final  -54.53 input    0.00 | X-H torsion
[ 27218 6898 6897 6896 ] final -120.02 input   -0.00 | X-H torsion
[ 27220 25719 25718 25717 ] final  126.92 input   -0.00 | X-H torsion
[ 27226 1316 1315 1314 ] final  158.10 input    0.00 | X-H torsion
[ 27230 23818 23817 23816 ] final  124.91 input    0.00 | X-H torsion
[ 27232 1257 1256 1255 ] final  -84.09 input    0.00 | X-H torsion

> <Gold.Protein.ActiveResidues>
 ARG304  THR320  LEU321  LEU323  LYS324  GLN369  TYR370  SER372  SER373  TYR408 
 HIS412  ARG415  ASN416  TRP426  GLU670  CYS673  ARG674  GLY675  GLY676  TYR703 
 LEU705  THR706  PRO707 

> <Gold.Protein.RotatedAtoms>
  221.7199    4.6478   37.6343 H   0  0  0  0  0  0  0  0  0  0  0  0  # atno 1288 bound_to 1260
  222.6904    7.8323   37.8462 H   0  0  0  0  0  0  0  0  0  0  0  0  # atno 1354 bound_to 1313
  222.9004    8.3862   42.8556 H   0  0  0  0  0  0  0  0  0  0  0  0  # atno 1584 bound_to 1536
  222.9624    4.6173   45.3415 H   0  0  0  0  0  0  0  0  0  0  0  0  # atno 1594 bound_to 1544
  222.3789    3.1205   44.9339 H   0  0  0  0  0  0  0  0  0  0  0  0  # atno 1595 bound_to 1544
  223.8357    3.2582   45.7136 H   0  0  0  0  0  0  0  0  0  0  0  0  # atno 1596 bound_to 1544
  228.2059   -0.2510   51.5869 H   0  0  0  0  0  0  0  0  0  0  0  0  # atno 4085 bound_to 4052
  229.4848   -1.0843   50.5268 H   0  0  0  0  0  0  0  0  0  0  0  0  # atno 4168 bound_to 4129
  226.2661   -2.7040   46.1780 H   0  0  0  0  0  0  0  0  0  0  0  0  # atno 4304 bound_to 4284
  227.7643   -4.0590   46.8369 H   0  0  0  0  0  0  0  0  0  0  0  0  # atno 4344 bound_to 4323
  231.5049   -4.7912   47.1469 H   0  0  0  0  0  0  0  0  0  0  0  0  # atno 4348 bound_to 4328
  232.1278    1.0659   46.0443 H   0  0  0  0  0  0  0  0  0  0  0  0  # atno 6708 bound_to 6672
  238.6315    2.7071   44.5586 H   0  0  0  0  0  0  0  0  0  0  0  0  # atno 6926 bound_to 6895
  227.5371   -0.3857   35.6718 H   0  0  0  0  0  0  0  0  0  0  0  0  # atno 23762 bound_to 23712
  226.2622    2.7565   35.2692 H   0  0  0  0  0  0  0  0  0  0  0  0  # atno 23800 bound_to 23787
  225.9099    4.4323   34.0577 H   0  0  0  0  0  0  0  0  0  0  0  0  # atno 23828 bound_to 23815
  231.7144   10.4494   46.1236 H   0  0  0  0  0  0  0  0  0  0  0  0  # atno 25744 bound_to 25716
  228.9676   -1.1485   47.4896 LP  0  0  0  0  0  0  0  0  0  0  0  0  # atno 27193 bound_to 4055
  229.7792   -2.4033   48.3651 LP  0  0  0  0  0  0  0  0  0  0  0  0  # atno 27194 bound_to 4055
  227.7219   -6.3870   46.4625 LP  0  0  0  0  0  0  0  0  0  0  0  0  # atno 27195 bound_to 4282
  226.4030   -5.4109   45.9079 LP  0  0  0  0  0  0  0  0  0  0  0  0  # atno 27196 bound_to 4282
  224.8272   -2.1816   46.7301 LP  0  0  0  0  0  0  0  0  0  0  0  0  # atno 27197 bound_to 4284
  225.1439   -3.7818   46.6546 LP  0  0  0  0  0  0  0  0  0  0  0  0  # atno 27198 bound_to 4284
  229.1482   -3.5992   47.8027 LP  0  0  0  0  0  0  0  0  0  0  0  0  # atno 27199 bound_to 4323
  229.4647   -6.7097   44.2909 LP  0  0  0  0  0  0  0  0  0  0  0  0  # atno 27200 bound_to 4326
  231.1825   -6.6400   44.5015 LP  0  0  0  0  0  0  0  0  0  0  0  0  # atno 27201 bound_to 4326
  232.2521   -3.3502   47.2635 LP  0  0  0  0  0  0  0  0  0  0  0  0  # atno 27202 bound_to 4328
  232.6475   -4.3832   46.0622 LP  0  0  0  0  0  0  0  0  0  0  0  0  # atno 27203 bound_to 4328
  231.3663   -0.0309   46.9750 LP  0  0  0  0  0  0  0  0  0  0  0  0  # atno 27204 bound_to 6672
  231.7559   -0.3954   45.4316 LP  0  0  0  0  0  0  0  0  0  0  0  0  # atno 27205 bound_to 6672
  225.9465   -2.3774   36.7294 LP  0  0  0  0  0  0  0  0  0  0  0  0  # atno 27211 bound_to 23656
  226.4174   -0.9967   37.6633 LP  0  0  0  0  0  0  0  0  0  0  0  0  # atno 27212 bound_to 23656
  226.3140    0.6141   34.9177 LP  0  0  0  0  0  0  0  0  0  0  0  0  # atno 27213 bound_to 23712
  225.2768    2.5893   38.6654 LP  0  0  0  0  0  0  0  0  0  0  0  0  # atno 27214 bound_to 23715
  225.6035    4.0473   37.7893 LP  0  0  0  0  0  0  0  0  0  0  0  0  # atno 27215 bound_to 23715
  225.0762    1.7550   36.0718 LP  0  0  0  0  0  0  0  0  0  0  0  0  # atno 27216 bound_to 23787
  238.4388    1.8971   43.0279 LP  0  0  0  0  0  0  0  0  0  0  0  0  # atno 27217 bound_to 6895
  237.0132    6.0634   41.8296 LP  0  0  0  0  0  0  0  0  0  0  0  0  # atno 27218 bound_to 6898
  235.5215    5.5798   42.5652 LP  0  0  0  0  0  0  0  0  0  0  0  0  # atno 27219 bound_to 6898
  232.0690    6.2094   46.1725 LP  0  0  0  0  0  0  0  0  0  0  0  0  # atno 27220 bound_to 25719
  231.2327    7.0813   47.4136 LP  0  0  0  0  0  0  0  0  0  0  0  0  # atno 27221 bound_to 25719
  230.7074    0.0629   50.0454 LP  0  0  0  0  0  0  0  0  0  0  0  0  # atno 27222 bound_to 4129
  227.9157    1.4473   51.3163 LP  0  0  0  0  0  0  0  0  0  0  0  0  # atno 27223 bound_to 4052
  223.4342    6.4517   37.0800 LP  0  0  0  0  0  0  0  0  0  0  0  0  # atno 27225 bound_to 1313
  225.2076    9.3608   41.1715 LP  0  0  0  0  0  0  0  0  0  0  0  0  # atno 27226 bound_to 1316
  224.7300    7.7049   41.3434 LP  0  0  0  0  0  0  0  0  0  0  0  0  # atno 27227 bound_to 1316
  223.6207    9.9785   42.8857 LP  0  0  0  0  0  0  0  0  0  0  0  0  # atno 27228 bound_to 1536
  225.9718    4.8801   35.7437 LP  0  0  0  0  0  0  0  0  0  0  0  0  # atno 27229 bound_to 23815
  229.6330    5.0451   34.6188 LP  0  0  0  0  0  0  0  0  0  0  0  0  # atno 27230 bound_to 23818
  228.5696    5.0263   35.9859 LP  0  0  0  0  0  0  0  0  0  0  0  0  # atno 27231 bound_to 23818
  221.6104    8.3175   39.7163 LP  0  0  0  0  0  0  0  0  0  0  0  0  # atno 27232 bound_to 1257
  221.6782    6.5960   39.8949 LP  0  0  0  0  0  0  0  0  0  0  0  0  # atno 27233 bound_to 1257
  221.6473    5.1036   36.0737 LP  0  0  0  0  0  0  0  0  0  0  0  0  # atno 27234 bound_to 1260
  220.5254    4.0853   36.6828 LP  0  0  0  0  0  0  0  0  0  0  0  0  # atno 27235 bound_to 1260

> <Gold.Score>
     Fitness  S(hb_ext) S(vdw_ext)  S(hb_int)    S(int)      intcor
     36.70       6.00      24.57       0.00      -3.08      -0.76

> <Gold.Goldscore.Fitness>
36.7011

> <Gold.Goldscore.Internal.Vdw>
-3.1280

> <Gold.Goldscore.Internal.Torsion>
-0.7139

> <Gold.Goldscore.External.Vdw>
24.5705

> <Gold.Goldscore.Internal.HBond>
0.0000

> <Gold.Goldscore.External.HBond>
6.0000

> <Gold.Goldscore.Internal.Correction>
-0.7585

> <Gold.Goldscore.Hbonds>
donor molecule, donor type, donor heavy atom, donor atom, acceptor molecule, acceptor atom, score
      P1  H 23722 23774       L1     9  1.00

> <Gold.Goldscore.Internal.Vdw.Weighted>
-3.1280

> <Gold.Goldscore.Internal.Torsion.Weighted>
-0.7139

> <Gold.Goldscore.External.Vdw.Weighted>
33.7844

> <Gold.Goldscore.Internal.HBond.Weighted>
0.0000

> <Gold.Goldscore.External.HBond.Weighted>
6.0000

> <Gold.Goldscore.Internal.Correction.Weighted>
-0.7585

> <Gold.Rescore>
     Score     S(PLP)   S(hbond)     S(cho)   S(metal)  DE(clash)   DE(tors)     intcor
     34.55     -33.12       1.00       0.00       0.00       1.28       0.14       ----

> <Gold.PLP.Fitness>
34.5504

> <Gold.PLP.PLP>
-33.1154

> <Gold.PLP.part.hbond>
-2.5317

> <Gold.PLP.part.metal>
0.0000

> <Gold.PLP.part.buried>
-4.6528

> <Gold.PLP.part.nonpolar>
-26.8099

> <Gold.PLP.part.repulsive>
0.4589

> <Gold.PLP.ligand.clash>
1.2789

> <Gold.PLP.ligand.torsion>
0.1431

> <Gold.PLP.Chemscore.Hbond>
1.0000

> <Gold.PLP.Chemscore.CHOScore>
0.0000

> <Gold.PLP.Chemscore.Metal>
0.0000

> <Gold.Chemscore.Hbonds>
donor molecule, donor type, donor heavy atom, donor atom, acceptor molecule, acceptor atom, score
      P1  H 23722 23774       L1     9  1.00

> <Gold.PLP.Chemscore.Internal.Correction>
   9.000000E+99

#       Name:                CT1002167954
#       Creating user name   hitesit
#       Creation time:       Sun Apr 16 23:09:03 2023


#       File generated by GOLD software.
#

@<TRIPOS>MOLECULE
CT1002167954|ligand_prepared|mol2|1|dock6
    29    30     1
SMALL
NO_CHARGES


@<TRIPOS>ATOM
      1 C1         228.1265   1.6190  44.3186 C.3            1 RES1               0.0000
      2 C2         228.0996   3.1042  44.7338 C.ar           1 RES1               0.0000
      3 C3         227.4852   1.5490  42.9359 C.2            1 RES1               0.0000
      4 C4         229.5906   1.1944  44.3476 C.2            1 RES1               0.0000
      5 C5         227.3405   0.6893  45.2722 C.3            1 RES1               0.0000
      6 C6         227.5802   3.4858  45.9672 C.ar           1 RES1               0.0000
      7 C7         228.5922   4.1019  43.8968 C.ar           1 RES1               0.0000
      8 N8         228.3075   1.3416  41.8678 N.am           1 RES1               0.0000
      9 O9         226.2813   1.7129  42.7808 O.2            1 RES1               0.0000
     10 N10        230.1840   0.8538  43.1603 N.am           1 RES1               0.0000
     11 O11        230.2404   1.1677  45.3855 O.2            1 RES1               0.0000
     12 C12        227.2819  -0.7574  44.8078 C.3            1 RES1               0.0000
     13 C13        227.5567   4.8163  46.3513 C.ar           1 RES1               0.0000
     14 C14        228.5675   5.4319  44.2828 C.ar           1 RES1               0.0000
     15 C15        229.6174   0.9376  41.9176 C.2            1 RES1               0.0000
     16 C16        228.0506   5.7901  45.5097 C.ar           1 RES1               0.0000
     17 O17        230.2329   0.6654  40.8909 O.2            1 RES1               0.0000
     18 H18        227.8086   0.7232  46.2637 H              1 RES1               0.0000
     19 H19        226.3164   1.0698  45.3718 H              1 RES1               0.0000
     20 H20        227.1848   2.7337  46.6418 H              1 RES1               0.0000
     21 H21        229.0025   3.8434  42.9266 H              1 RES1               0.0000
     22 H22        227.9118   1.5016  40.9469 H              1 RES1               0.0000
     23 H23        231.1362   0.5053  43.2072 H              1 RES1               0.0000
     24 H24        226.7193  -1.3663  45.5124 H              1 RES1               0.0000
     25 H25        226.7993  -0.8312  43.8355 H              1 RES1               0.0000
     26 H26        228.2827  -1.1758  44.7221 H              1 RES1               0.0000
     27 H27        227.1476   5.0932  47.3173 H              1 RES1               0.0000
     28 H28        228.9567   6.1950  43.6169 H              1 RES1               0.0000
     29 H29        228.0324   6.8323  45.8109 H              1 RES1               0.0000
@<TRIPOS>BOND
    1    1    2 1     
    2    1    3 1     
    3    1    4 1     
    4    1    5 1     
    5    2    6 ar    
    6    2    7 ar    
    7    3    8 1     
    8    3    9 2     
    9    4   10 1     
   10    4   11 2     
   11    5   12 1     
   12    5   18 1     
   13    5   19 1     
   14    6   13 ar    
   15    6   20 1     
   16    7   14 ar    
   17    7   21 1     
   18    8   15 1     
   19    8   22 1     
   20   10   15 1     
   21   10   23 1     
   22   12   24 1     
   23   12   25 1     
   24   12   26 1     
   25   13   16 ar    
   26   13   27 1     
   27   14   16 ar    
   28   14   28 1     
   29   15   17 2     
   30   16   29 1     
@<TRIPOS>SUBSTRUCTURE
      1 RES1           1
@<TRIPOS>SET
DONOR_HYDROGENS      STATIC     ATOMS    <user>   **** ""
2 22 23
ATOM$RED        STATIC     ATOMS    COLORGROUP SYSTEM
2 22 23
@<TRIPOS>COMMENT
> <Gold.Version>
2022.3.0

> <Gold.Id.Protein>
unknown|4d1n_clean|pdb

> <Gold.Protein.RotatedTorsions>
[ 1594 1544 1543 1542 ] final -118.01 input   60.00 | X-H torsion
[ 4304 4284 4283 4280 ] final   53.64 input   59.98 | X-H torsion
[ 4344 4323 4324 4325 ] final   83.15 input  122.59 | X-H torsion
[ 4348 4328 4327 4324 ] final  120.73 input   59.99 | X-H torsion
[ 6708 6672 6671 6669 ] final -179.45 input   60.02 | X-H torsion
[ 23762 23712 23713 23714 ] final    5.36 input   58.31 | X-H torsion
[ 23800 23787 23788 23789 ] final  -77.01 input  -92.91 | X-H torsion
[ 6926 6895 6896 6897 ] final  111.26 input  109.21 | X-H torsion
[ 4168 4129 4130 4131 ] final   58.35 input  118.46 | X-H torsion
[ 4085 4052 4053 4054 ] final   -7.13 input  111.71 | X-H torsion
[ 1354 1313 1314 1315 ] final -102.43 input  117.91 | X-H torsion
[ 1584 1536 1537 1538 ] final -113.82 input   95.51 | X-H torsion
[ 23828 23815 23816 23817 ] final   46.93 input  -25.33 | X-H torsion
[ 1288 1260 1258 1255 ] final   78.64 input   59.99 | X-H torsion
[ 25744 25716 25717 25718 ] final   98.19 input   66.04 | X-H torsion
[ 27193 4055 4054 4053 ] final -150.46 input   -0.00 | X-H torsion
[ 27195 4282 4281 4280 ] final   94.21 input    0.00 | X-H torsion
[ 27200 4326 4325 4324 ] final  -15.12 input    0.00 | X-H torsion
[ 27211 23656 23655 23654 ] final  -16.64 input   -0.00 | X-H torsion
[ 27214 23715 23714 23713 ] final  164.42 input    0.00 | X-H torsion
[ 27218 6898 6897 6896 ] final  -97.61 input   -0.00 | X-H torsion
[ 27220 25719 25718 25717 ] final   97.55 input   -0.00 | X-H torsion
[ 27226 1316 1315 1314 ] final -126.00 input    0.00 | X-H torsion
[ 27230 23818 23817 23816 ] final -135.64 input    0.00 | X-H torsion
[ 27232 1257 1256 1255 ] final   33.54 input    0.00 | X-H torsion

> <Gold.Protein.ActiveResidues>
 ARG304  THR320  LEU321  LEU323  LYS324  GLN369  TYR370  SER372  SER373  TYR408 
 HIS412  ARG415  ASN416  TRP426  GLU670  CYS673  ARG674  GLY675  GLY676  TYR703 
 LEU705  THR706  PRO707 

> <Gold.Protein.RotatedAtoms>
  221.7425    4.6686   37.6214 H   0  0  0  0  0  0  0  0  0  0  0  0  # atno 1288 bound_to 1260
  222.5412    6.6710   37.9916 H   0  0  0  0  0  0  0  0  0  0  0  0  # atno 1354 bound_to 1313
  222.5438    9.0901   43.3727 H   0  0  0  0  0  0  0  0  0  0  0  0  # atno 1584 bound_to 1536
  223.4067    2.7828   45.4558 H   0  0  0  0  0  0  0  0  0  0  0  0  # atno 1594 bound_to 1544
  223.5535    4.4233   45.6412 H   0  0  0  0  0  0  0  0  0  0  0  0  # atno 1595 bound_to 1544
  222.2167    3.7899   44.8920 H   0  0  0  0  0  0  0  0  0  0  0  0  # atno 1596 bound_to 1544
  228.5369   -0.1084   51.6392 H   0  0  0  0  0  0  0  0  0  0  0  0  # atno 4085 bound_to 4052
  229.8289   -0.8359   51.0517 H   0  0  0  0  0  0  0  0  0  0  0  0  # atno 4168 bound_to 4129
  224.9892   -3.6996   46.7165 H   0  0  0  0  0  0  0  0  0  0  0  0  # atno 4304 bound_to 4284
  229.1761   -3.6989   47.8427 H   0  0  0  0  0  0  0  0  0  0  0  0  # atno 4344 bound_to 4323
  232.7075   -4.2396   46.0882 H   0  0  0  0  0  0  0  0  0  0  0  0  # atno 4348 bound_to 4328
  231.6630   -0.5145   45.5696 H   0  0  0  0  0  0  0  0  0  0  0  0  # atno 6708 bound_to 6672
  238.2302    2.0904   44.5825 H   0  0  0  0  0  0  0  0  0  0  0  0  # atno 6926 bound_to 6895
  226.3065    0.6557   34.9162 H   0  0  0  0  0  0  0  0  0  0  0  0  # atno 23762 bound_to 23712
  225.7979    2.2185   34.8022 H   0  0  0  0  0  0  0  0  0  0  0  0  # atno 23800 bound_to 23787
  226.3851    4.6626   35.6680 H   0  0  0  0  0  0  0  0  0  0  0  0  # atno 23828 bound_to 23815
  231.0742    9.7083   46.4844 H   0  0  0  0  0  0  0  0  0  0  0  0  # atno 25744 bound_to 25716
  229.7455   -2.4156   48.3772 LP  0  0  0  0  0  0  0  0  0  0  0  0  # atno 27193 bound_to 4055
  229.0013   -1.1362   47.4775 LP  0  0  0  0  0  0  0  0  0  0  0  0  # atno 27194 bound_to 4055
  226.6790   -5.3342   45.6523 LP  0  0  0  0  0  0  0  0  0  0  0  0  # atno 27195 bound_to 4282
  227.4459   -6.4638   46.7181 LP  0  0  0  0  0  0  0  0  0  0  0  0  # atno 27196 bound_to 4282
  226.2901   -2.8881   46.1712 LP  0  0  0  0  0  0  0  0  0  0  0  0  # atno 27197 bound_to 4284
  224.9665   -2.0730   46.6714 LP  0  0  0  0  0  0  0  0  0  0  0  0  # atno 27198 bound_to 4284
  227.7757   -3.9493   46.8249 LP  0  0  0  0  0  0  0  0  0  0  0  0  # atno 27199 bound_to 4323
  229.8832   -6.0633   43.9694 LP  0  0  0  0  0  0  0  0  0  0  0  0  # atno 27200 bound_to 4326
  230.7640   -7.2863   44.8230 LP  0  0  0  0  0  0  0  0  0  0  0  0  # atno 27201 bound_to 4326
  231.5487   -4.8872   47.0296 LP  0  0  0  0  0  0  0  0  0  0  0  0  # atno 27202 bound_to 4328
  232.1397   -3.4017   47.3625 LP  0  0  0  0  0  0  0  0  0  0  0  0  # atno 27203 bound_to 4328
  232.1682    1.0065   45.8527 LP  0  0  0  0  0  0  0  0  0  0  0  0  # atno 27204 bound_to 6672
  231.4219    0.1584   47.0318 LP  0  0  0  0  0  0  0  0  0  0  0  0  # atno 27205 bound_to 6672
  225.9667   -2.3859   36.7323 LP  0  0  0  0  0  0  0  0  0  0  0  0  # atno 27211 bound_to 23656
  226.3972   -0.9882   37.6603 LP  0  0  0  0  0  0  0  0  0  0  0  0  # atno 27212 bound_to 23656
  227.5030   -0.3921   35.6478 LP  0  0  0  0  0  0  0  0  0  0  0  0  # atno 27213 bound_to 23712
  225.0473    3.9052   37.7261 LP  0  0  0  0  0  0  0  0  0  0  0  0  # atno 27214 bound_to 23715
  225.8330    2.7314   38.7286 LP  0  0  0  0  0  0  0  0  0  0  0  0  # atno 27215 bound_to 23715
  225.5297    2.2804   36.5279 LP  0  0  0  0  0  0  0  0  0  0  0  0  # atno 27216 bound_to 23787
  238.8375    2.5098   43.0041 LP  0  0  0  0  0  0  0  0  0  0  0  0  # atno 27217 bound_to 6895
  236.9390    5.7873   41.6518 LP  0  0  0  0  0  0  0  0  0  0  0  0  # atno 27218 bound_to 6898
  235.5957    5.8559   42.7430 LP  0  0  0  0  0  0  0  0  0  0  0  0  # atno 27219 bound_to 6898
  231.8970    6.5575   45.9674 LP  0  0  0  0  0  0  0  0  0  0  0  0  # atno 27220 bound_to 25719
  231.4047    6.7332   47.6187 LP  0  0  0  0  0  0  0  0  0  0  0  0  # atno 27221 bound_to 25719
  230.3674   -0.1826   49.5267 LP  0  0  0  0  0  0  0  0  0  0  0  0  # atno 27222 bound_to 4129
  227.5885    1.3064   51.2647 LP  0  0  0  0  0  0  0  0  0  0  0  0  # atno 27223 bound_to 4052
  223.5810    7.5944   36.9369 LP  0  0  0  0  0  0  0  0  0  0  0  0  # atno 27225 bound_to 1313
  224.2464    8.9794   41.4269 LP  0  0  0  0  0  0  0  0  0  0  0  0  # atno 27226 bound_to 1316
  225.6912    8.0863   41.0880 LP  0  0  0  0  0  0  0  0  0  0  0  0  # atno 27227 bound_to 1316
  223.9690    9.2913   42.3809 LP  0  0  0  0  0  0  0  0  0  0  0  0  # atno 27228 bound_to 1536
  225.5048    4.6538   34.1608 LP  0  0  0  0  0  0  0  0  0  0  0  0  # atno 27229 bound_to 23815
  229.5423    5.5594   35.8328 LP  0  0  0  0  0  0  0  0  0  0  0  0  # atno 27230 bound_to 23818
  228.6603    4.5120   34.7720 LP  0  0  0  0  0  0  0  0  0  0  0  0  # atno 27231 bound_to 23818
  220.9262    7.0061   39.6289 LP  0  0  0  0  0  0  0  0  0  0  0  0  # atno 27232 bound_to 1257
  222.3624    7.9074   39.9823 LP  0  0  0  0  0  0  0  0  0  0  0  0  # atno 27233 bound_to 1257
  221.6224    5.0918   36.0545 LP  0  0  0  0  0  0  0  0  0  0  0  0  # atno 27234 bound_to 1260
  220.5274    4.0763   36.7150 LP  0  0  0  0  0  0  0  0  0  0  0  0  # atno 27235 bound_to 1260

> <Gold.Score>
     Fitness  S(hb_ext) S(vdw_ext)  S(hb_int)    S(int)      intcor
     35.36       1.54      25.18       0.00      -0.80      -0.76

> <Gold.Goldscore.Fitness>
35.3586

> <Gold.Goldscore.Internal.Vdw>
-1.1562

> <Gold.Goldscore.Internal.Torsion>
-0.3985

> <Gold.Goldscore.External.Vdw>
25.1757

> <Gold.Goldscore.Internal.HBond>
0.0000

> <Gold.Goldscore.External.HBond>
1.5382

> <Gold.Goldscore.Internal.Correction>
-0.7585

> <Gold.Goldscore.Hbonds>
donor molecule, donor type, donor heavy atom, donor atom, acceptor molecule, acceptor atom, score
      L1  H    10    23       P1  6904  0.26

> <Gold.Goldscore.Internal.Vdw.Weighted>
-1.1562

> <Gold.Goldscore.Internal.Torsion.Weighted>
-0.3985

> <Gold.Goldscore.External.Vdw.Weighted>
34.6166

> <Gold.Goldscore.Internal.HBond.Weighted>
0.0000

> <Gold.Goldscore.External.HBond.Weighted>
1.5382

> <Gold.Goldscore.Internal.Correction.Weighted>
-0.7585

> <Gold.Rescore>
     Score     S(PLP)   S(hbond)     S(cho)   S(metal)  DE(clash)   DE(tors)     intcor
     35.15     -35.39       0.00       0.00       0.00       0.00       0.12       ----

> <Gold.PLP.Fitness>
35.1524

> <Gold.PLP.PLP>
-35.3871

> <Gold.PLP.part.hbond>
-2.1351

> <Gold.PLP.part.metal>
0.0000

> <Gold.PLP.part.buried>
-4.4787

> <Gold.PLP.part.nonpolar>
-30.4104

> <Gold.PLP.part.repulsive>
0.4957

> <Gold.PLP.ligand.clash>
0.0000

> <Gold.PLP.ligand.torsion>
0.1174

> <Gold.PLP.Chemscore.Hbond>
0.0000

> <Gold.PLP.Chemscore.CHOScore>
0.0000

> <Gold.PLP.Chemscore.Metal>
0.0000

> <Gold.PLP.Chemscore.Internal.Correction>
   9.000000E+99

#       Name:                CT1002167954
#       Creating user name   hitesit
#       Creation time:       Sun Apr 16 23:09:03 2023


#       File generated by GOLD software.
#

@<TRIPOS>MOLECULE
CT1002167954|ligand_prepared|mol2|1|dock7
    29    30     1
SMALL
NO_CHARGES


@<TRIPOS>ATOM
      1 C1         227.9852   1.8550  44.4349 C.3            1 RES1               0.0000
      2 C2         228.0709   3.3071  44.9476 C.ar           1 RES1               0.0000
      3 C3         227.4298   1.9337  43.0159 C.2            1 RES1               0.0000
      4 C4         229.3983   1.2886  44.5193 C.2            1 RES1               0.0000
      5 C5         227.0564   0.9490  45.2764 C.3            1 RES1               0.0000
      6 C6         227.2355   3.7482  45.9695 C.ar           1 RES1               0.0000
      7 C7         228.9805   4.2147  44.4114 C.ar           1 RES1               0.0000
      8 N8         228.2956   1.7136  41.9854 N.am           1 RES1               0.0000
      9 O9         226.2589   2.2235  42.8032 O.2            1 RES1               0.0000
     10 N10        230.0318   0.9660  43.3479 N.am           1 RES1               0.0000
     11 O11        229.9751   1.1344  45.5888 O.2            1 RES1               0.0000
     12 C12        227.0755  -0.5111  44.8523 C.3            1 RES1               0.0000
     13 C13        227.3087   5.0487  46.4404 C.ar           1 RES1               0.0000
     14 C14        229.0519   5.5148  44.8836 C.ar           1 RES1               0.0000
     15 C15        229.5561   1.1816  42.0831 C.2            1 RES1               0.0000
     16 C16        228.2171   5.9326  45.8982 C.ar           1 RES1               0.0000
     17 O17        230.2077   0.9148  41.0775 O.2            1 RES1               0.0000
     18 H18        227.3578   1.0150  46.3291 H              1 RES1               0.0000
     19 H19        226.0292   1.3261  45.1975 H              1 RES1               0.0000
     20 H20        226.5127   3.0675  46.4068 H              1 RES1               0.0000
     21 H21        229.6464   3.9084  43.6118 H              1 RES1               0.0000
     22 H22        227.9762   1.9683  41.0562 H              1 RES1               0.0000
     23 H23        230.9423   0.5241  43.4258 H              1 RES1               0.0000
     24 H24        226.4070  -1.1023  45.4747 H              1 RES1               0.0000
     25 H25        226.7567  -0.6164  43.8174 H              1 RES1               0.0000
     26 H26        228.0775  -0.9257  44.9423 H              1 RES1               0.0000
     27 H27        226.6486   5.3729  47.2380 H              1 RES1               0.0000
     28 H28        229.7679   6.2073  44.4535 H              1 RES1               0.0000
     29 H29        228.2745   6.9512  46.2675 H              1 RES1               0.0000
@<TRIPOS>BOND
    1    1    2 1     
    2    1    3 1     
    3    1    4 1     
    4    1    5 1     
    5    2    6 ar    
    6    2    7 ar    
    7    3    8 1     
    8    3    9 2     
    9    4   10 1     
   10    4   11 2     
   11    5   12 1     
   12    5   18 1     
   13    5   19 1     
   14    6   13 ar    
   15    6   20 1     
   16    7   14 ar    
   17    7   21 1     
   18    8   15 1     
   19    8   22 1     
   20   10   15 1     
   21   10   23 1     
   22   12   24 1     
   23   12   25 1     
   24   12   26 1     
   25   13   16 ar    
   26   13   27 1     
   27   14   16 ar    
   28   14   28 1     
   29   15   17 2     
   30   16   29 1     
@<TRIPOS>SUBSTRUCTURE
      1 RES1           1
@<TRIPOS>SET
DONOR_HYDROGENS      STATIC     ATOMS    <user>   **** ""
2 22 23
ATOM$RED        STATIC     ATOMS    COLORGROUP SYSTEM
2 22 23
@<TRIPOS>COMMENT
> <Gold.Version>
2022.3.0

> <Gold.Id.Protein>
unknown|4d1n_clean|pdb

> <Gold.Protein.RotatedTorsions>
[ 1594 1544 1543 1542 ] final  -18.91 input   60.00 | X-H torsion
[ 4304 4284 4283 4280 ] final  -49.10 input   59.98 | X-H torsion
[ 4344 4323 4324 4325 ] final   47.02 input  122.59 | X-H torsion
[ 4348 4328 4327 4324 ] final   18.21 input   59.99 | X-H torsion
[ 6708 6672 6671 6669 ] final  101.85 input   60.02 | X-H torsion
[ 23762 23712 23713 23714 ] final -109.09 input   58.31 | X-H torsion
[ 23800 23787 23788 23789 ] final -128.54 input  -92.91 | X-H torsion
[ 6926 6895 6896 6897 ] final -109.71 input  109.21 | X-H torsion
[ 4168 4129 4130 4131 ] final  176.08 input  118.46 | X-H torsion
[ 4085 4052 4053 4054 ] final   39.47 input  111.71 | X-H torsion
[ 1354 1313 1314 1315 ] final  176.06 input  117.91 | X-H torsion
[ 1584 1536 1537 1538 ] final    0.88 input   95.51 | X-H torsion
[ 23828 23815 23816 23817 ] final   37.75 input  -25.33 | X-H torsion
[ 1288 1260 1258 1255 ] final -122.98 input   59.99 | X-H torsion
[ 25744 25716 25717 25718 ] final   22.68 input   66.04 | X-H torsion
[ 27193 4055 4054 4053 ] final  162.53 input   -0.00 | X-H torsion
[ 27195 4282 4281 4280 ] final  -57.59 input    0.00 | X-H torsion
[ 27200 4326 4325 4324 ] final -112.85 input    0.00 | X-H torsion
[ 27211 23656 23655 23654 ] final   68.73 input   -0.00 | X-H torsion
[ 27214 23715 23714 23713 ] final  -68.87 input    0.00 | X-H torsion
[ 27218 6898 6897 6896 ] final   81.88 input   -0.00 | X-H torsion
[ 27220 25719 25718 25717 ] final  -35.43 input   -0.00 | X-H torsion
[ 27226 1316 1315 1314 ] final  106.54 input    0.00 | X-H torsion
[ 27230 23818 23817 23816 ] final   -5.87 input    0.00 | X-H torsion
[ 27232 1257 1256 1255 ] final  -66.52 input    0.00 | X-H torsion

> <Gold.Protein.ActiveResidues>
 ARG304  THR320  LEU321  LEU323  LYS324  GLN369  TYR370  SER372  SER373  TYR408 
 HIS412  ARG415  ASN416  TRP426  GLU670  CYS673  ARG674  GLY675  GLY676  TYR703 
 LEU705  THR706  PRO707 

> <Gold.Protein.RotatedAtoms>
  220.6522    4.3481   36.1745 H   0  0  0  0  0  0  0  0  0  0  0  0  # atno 1288 bound_to 1260
  223.3048    6.3293   37.2045 H   0  0  0  0  0  0  0  0  0  0  0  0  # atno 1354 bound_to 1313
  223.6233    9.9999   42.8985 H   0  0  0  0  0  0  0  0  0  0  0  0  # atno 1584 bound_to 1536
  223.7656    4.1660   45.7368 H   0  0  0  0  0  0  0  0  0  0  0  0  # atno 1594 bound_to 1544
  222.3025    4.1199   44.9593 H   0  0  0  0  0  0  0  0  0  0  0  0  # atno 1595 bound_to 1544
  223.1089    2.7100   45.2929 H   0  0  0  0  0  0  0  0  0  0  0  0  # atno 1596 bound_to 1544
  228.9056    0.4791   51.6475 H   0  0  0  0  0  0  0  0  0  0  0  0  # atno 4085 bound_to 4052
  230.7467    0.0850   50.3000 H   0  0  0  0  0  0  0  0  0  0  0  0  # atno 4168 bound_to 4129
  226.2492   -3.1656   46.1992 H   0  0  0  0  0  0  0  0  0  0  0  0  # atno 4304 bound_to 4284
  229.0182   -4.2231   47.8957 H   0  0  0  0  0  0  0  0  0  0  0  0  # atno 4344 bound_to 4323
  231.6772   -4.9935   46.7976 H   0  0  0  0  0  0  0  0  0  0  0  0  # atno 4348 bound_to 4328
  232.1543    0.5487   45.3735 H   0  0  0  0  0  0  0  0  0  0  0  0  # atno 6708 bound_to 6672
  238.5298    1.9838   42.9762 H   0  0  0  0  0  0  0  0  0  0  0  0  # atno 6926 bound_to 6895
  226.5754   -0.5391   35.7774 H   0  0  0  0  0  0  0  0  0  0  0  0  # atno 23762 bound_to 23712
  225.2555    1.7461   35.0731 H   0  0  0  0  0  0  0  0  0  0  0  0  # atno 23800 bound_to 23787
  226.4861    4.5954   35.5963 H   0  0  0  0  0  0  0  0  0  0  0  0  # atno 23828 bound_to 23815
  231.2825    8.8199   45.8995 H   0  0  0  0  0  0  0  0  0  0  0  0  # atno 25744 bound_to 25716
  230.1976   -2.0172   48.0394 LP  0  0  0  0  0  0  0  0  0  0  0  0  # atno 27193 bound_to 4055
  228.5493   -1.5346   47.8153 LP  0  0  0  0  0  0  0  0  0  0  0  0  # atno 27194 bound_to 4055
  227.0575   -6.4200   46.8769 LP  0  0  0  0  0  0  0  0  0  0  0  0  # atno 27195 bound_to 4282
  227.0674   -5.3780   45.4934 LP  0  0  0  0  0  0  0  0  0  0  0  0  # atno 27196 bound_to 4282
  225.2102   -1.9697   46.5713 LP  0  0  0  0  0  0  0  0  0  0  0  0  # atno 27197 bound_to 4284
  224.7779   -3.5289   46.7921 LP  0  0  0  0  0  0  0  0  0  0  0  0  # atno 27198 bound_to 4284
  227.9292   -3.4396   46.7734 LP  0  0  0  0  0  0  0  0  0  0  0  0  # atno 27199 bound_to 4323
  229.6517   -7.1825   44.5984 LP  0  0  0  0  0  0  0  0  0  0  0  0  # atno 27200 bound_to 4326
  230.9955   -6.1672   44.1940 LP  0  0  0  0  0  0  0  0  0  0  0  0  # atno 27201 bound_to 4326
  231.9376   -3.5496   47.5017 LP  0  0  0  0  0  0  0  0  0  0  0  0  # atno 27202 bound_to 4328
  232.7885   -3.9800   46.1760 LP  0  0  0  0  0  0  0  0  0  0  0  0  # atno 27203 bound_to 4328
  231.6971    0.7537   46.9221 LP  0  0  0  0  0  0  0  0  0  0  0  0  # atno 27204 bound_to 6672
  231.3985   -0.6593   46.1599 LP  0  0  0  0  0  0  0  0  0  0  0  0  # atno 27205 bound_to 6672
  226.9555   -2.0674   37.2798 LP  0  0  0  0  0  0  0  0  0  0  0  0  # atno 27211 bound_to 23656
  225.4084   -1.3067   37.1129 LP  0  0  0  0  0  0  0  0  0  0  0  0  # atno 27212 bound_to 23656
  227.2432    0.7623   34.8157 LP  0  0  0  0  0  0  0  0  0  0  0  0  # atno 27213 bound_to 23712
  225.0771    2.6199   38.5885 LP  0  0  0  0  0  0  0  0  0  0  0  0  # atno 27214 bound_to 23715
  225.8032    4.0167   37.8662 LP  0  0  0  0  0  0  0  0  0  0  0  0  # atno 27215 bound_to 23715
  226.0594    2.7417   36.2633 LP  0  0  0  0  0  0  0  0  0  0  0  0  # atno 27216 bound_to 23787
  238.5399    2.6157   44.6000 LP  0  0  0  0  0  0  0  0  0  0  0  0  # atno 27217 bound_to 6895
  235.5928    5.8494   42.7398 LP  0  0  0  0  0  0  0  0  0  0  0  0  # atno 27218 bound_to 6898
  236.9419    5.7938   41.6550 LP  0  0  0  0  0  0  0  0  0  0  0  0  # atno 27219 bound_to 6898
  231.1793    7.2413   47.2084 LP  0  0  0  0  0  0  0  0  0  0  0  0  # atno 27220 bound_to 25719
  232.1224    6.0494   46.3777 LP  0  0  0  0  0  0  0  0  0  0  0  0  # atno 27221 bound_to 25719
  229.4603   -1.0927   50.2696 LP  0  0  0  0  0  0  0  0  0  0  0  0  # atno 27222 bound_to 4129
  227.2240    0.7255   51.2564 LP  0  0  0  0  0  0  0  0  0  0  0  0  # atno 27223 bound_to 4052
  222.8296    7.9305   37.7113 LP  0  0  0  0  0  0  0  0  0  0  0  0  # atno 27225 bound_to 1313
  225.7476    8.8499   41.0503 LP  0  0  0  0  0  0  0  0  0  0  0  0  # atno 27226 bound_to 1316
  224.1900    8.2158   41.4646 LP  0  0  0  0  0  0  0  0  0  0  0  0  # atno 27227 bound_to 1316
  222.9149    8.4030   42.8438 LP  0  0  0  0  0  0  0  0  0  0  0  0  # atno 27228 bound_to 1536
  225.4055    4.7198   34.2312 LP  0  0  0  0  0  0  0  0  0  0  0  0  # atno 27229 bound_to 23815
  228.3485    4.6264   35.4278 LP  0  0  0  0  0  0  0  0  0  0  0  0  # atno 27230 bound_to 23818
  229.8541    5.4450   35.1769 LP  0  0  0  0  0  0  0  0  0  0  0  0  # atno 27231 bound_to 23818
  221.3619    8.2598   39.6462 LP  0  0  0  0  0  0  0  0  0  0  0  0  # atno 27232 bound_to 1257
  221.9267    6.6537   39.9650 LP  0  0  0  0  0  0  0  0  0  0  0  0  # atno 27233 bound_to 1257
  221.2577    4.2909   37.6841 LP  0  0  0  0  0  0  0  0  0  0  0  0  # atno 27234 bound_to 1260
  221.9896    5.1997   36.5418 LP  0  0  0  0  0  0  0  0  0  0  0  0  # atno 27235 bound_to 1260

> <Gold.Score>
     Fitness  S(hb_ext) S(vdw_ext)  S(hb_int)    S(int)      intcor
     34.06       0.66      24.81       0.00      -0.72      -0.76

> <Gold.Goldscore.Fitness>
34.0608

> <Gold.Goldscore.Internal.Vdw>
-1.0609

> <Gold.Goldscore.Internal.Torsion>
-0.4139

> <Gold.Goldscore.External.Vdw>
24.8126

> <Gold.Goldscore.Internal.HBond>
0.0000

> <Gold.Goldscore.External.HBond>
0.6597

> <Gold.Goldscore.Internal.Correction>
-0.7585

> <Gold.Goldscore.Hbonds>
donor molecule, donor type, donor heavy atom, donor atom, acceptor molecule, acceptor atom, score
      P1  H 23719 23770       L1    17  0.01
      L1  H    10    23       P1  6904  0.10

> <Gold.Goldscore.Internal.Vdw.Weighted>
-1.0609

> <Gold.Goldscore.Internal.Torsion.Weighted>
-0.4139

> <Gold.Goldscore.External.Vdw.Weighted>
34.1173

> <Gold.Goldscore.Internal.HBond.Weighted>
0.0000

> <Gold.Goldscore.External.HBond.Weighted>
0.6597

> <Gold.Goldscore.Internal.Correction.Weighted>
-0.7585

> <Gold.Rescore>
     Score     S(PLP)   S(hbond)     S(cho)   S(metal)  DE(clash)   DE(tors)     intcor
     34.93     -35.33       0.00       0.00       0.00       0.00       0.20       ----

> <Gold.PLP.Fitness>
34.9341

> <Gold.PLP.PLP>
-35.3257

> <Gold.PLP.part.hbond>
-2.1081

> <Gold.PLP.part.metal>
0.0000

> <Gold.PLP.part.buried>
-3.9089

> <Gold.PLP.part.nonpolar>
-30.5764

> <Gold.PLP.part.repulsive>
0.4978

> <Gold.PLP.ligand.clash>
0.0000

> <Gold.PLP.ligand.torsion>
0.1958

> <Gold.PLP.Chemscore.Hbond>
0.0000

> <Gold.PLP.Chemscore.CHOScore>
0.0000

> <Gold.PLP.Chemscore.Metal>
0.0000

> <Gold.Chemscore.Hbonds>
donor molecule, donor type, donor heavy atom, donor atom, acceptor molecule, acceptor atom, score
      P1  H 23719 23770       L1    17  0.14

> <Gold.PLP.Chemscore.Internal.Correction>
   9.000000E+99

#       Name:                CT1002167954
#       Creating user name   hitesit
#       Creation time:       Sun Apr 16 23:09:04 2023


#       File generated by GOLD software.
#

@<TRIPOS>MOLECULE
CT1002167954|ligand_prepared|mol2|1|dock8
    29    30     1
SMALL
NO_CHARGES


@<TRIPOS>ATOM
      1 C1         228.5002   2.0849  43.7235 C.3            1 RES1               0.0000
      2 C2         228.6342   3.5989  43.9859 C.ar           1 RES1               0.0000
      3 C3         227.3504   1.5982  44.6007 C.2            1 RES1               0.0000
      4 C4         228.2492   1.9319  42.2274 C.2            1 RES1               0.0000
      5 C5         229.7677   1.2743  44.0806 C.3            1 RES1               0.0000
      6 C6         229.3870   4.0682  45.0581 C.ar           1 RES1               0.0000
      7 C7         228.0141   4.5366  43.1644 C.ar           1 RES1               0.0000
      8 N8         226.1704   1.2981  43.9865 N.am           1 RES1               0.0000
      9 O9         227.4652   1.5167  45.8174 O.2            1 RES1               0.0000
     10 N10        227.0350   1.4384  41.8272 N.am           1 RES1               0.0000
     11 O11        229.0856   2.2498  41.3910 O.2            1 RES1               0.0000
     12 C12        229.7784  -0.1327  43.5040 C.3            1 RES1               0.0000
     13 C13        229.5178   5.4259  45.2987 C.ar           1 RES1               0.0000
     14 C14        228.1460   5.8939  43.4070 C.ar           1 RES1               0.0000
     15 C15        225.9729   1.1435  42.6378 C.2            1 RES1               0.0000
     16 C16        228.8978   6.3396  44.4732 C.ar           1 RES1               0.0000
     17 O17        224.8941   0.7555  42.1988 O.2            1 RES1               0.0000
     18 H18        230.6481   1.8142  43.7107 H              1 RES1               0.0000
     19 H19        229.8490   1.2089  45.1727 H              1 RES1               0.0000
     20 H20        229.8802   3.3641  45.7200 H              1 RES1               0.0000
     21 H21        227.4168   4.2089  42.3204 H              1 RES1               0.0000
     22 H22        225.3597   1.1775  44.5853 H              1 RES1               0.0000
     23 H23        226.9116   1.2758  40.8329 H              1 RES1               0.0000
     24 H24        230.6892  -0.6576  43.7845 H              1 RES1               0.0000
     25 H25        228.9299  -0.7064  43.8710 H              1 RES1               0.0000
     26 H26        229.7242  -0.1047  42.4177 H              1 RES1               0.0000
     27 H27        230.1095   5.7715  46.1400 H              1 RES1               0.0000
     28 H28        227.6558   6.6094  42.7550 H              1 RES1               0.0000
     29 H29        229.0007   7.4031  44.6617 H              1 RES1               0.0000
@<TRIPOS>BOND
    1    1    2 1     
    2    1    3 1     
    3    1    4 1     
    4    1    5 1     
    5    2    6 ar    
    6    2    7 ar    
    7    3    8 1     
    8    3    9 2     
    9    4   10 1     
   10    4   11 2     
   11    5   12 1     
   12    5   18 1     
   13    5   19 1     
   14    6   13 ar    
   15    6   20 1     
   16    7   14 ar    
   17    7   21 1     
   18    8   15 1     
   19    8   22 1     
   20   10   15 1     
   21   10   23 1     
   22   12   24 1     
   23   12   25 1     
   24   12   26 1     
   25   13   16 ar    
   26   13   27 1     
   27   14   16 ar    
   28   14   28 1     
   29   15   17 2     
   30   16   29 1     
@<TRIPOS>SUBSTRUCTURE
      1 RES1           1
@<TRIPOS>SET
DONOR_HYDROGENS      STATIC     ATOMS    <user>   **** ""
2 22 23
ATOM$RED        STATIC     ATOMS    COLORGROUP SYSTEM
2 22 23
@<TRIPOS>COMMENT
> <Gold.Version>
2022.3.0

> <Gold.Id.Protein>
unknown|4d1n_clean|pdb

> <Gold.Protein.RotatedTorsions>
[ 1594 1544 1543 1542 ] final  -42.73 input   60.00 | X-H torsion
[ 4304 4284 4283 4280 ] final   -5.66 input   59.98 | X-H torsion
[ 4344 4323 4324 4325 ] final  128.50 input  122.59 | X-H torsion
[ 4348 4328 4327 4324 ] final   32.35 input   59.99 | X-H torsion
[ 6708 6672 6671 6669 ] final  -10.45 input   60.02 | X-H torsion
[ 23762 23712 23713 23714 ] final  -93.37 input   58.31 | X-H torsion
[ 23800 23787 23788 23789 ] final  -74.62 input  -92.91 | X-H torsion
[ 6926 6895 6896 6897 ] final  -15.55 input  109.21 | X-H torsion
[ 4168 4129 4130 4131 ] final  -85.58 input  118.46 | X-H torsion
[ 4085 4052 4053 4054 ] final   96.67 input  111.71 | X-H torsion
[ 1354 1313 1314 1315 ] final   40.88 input  117.91 | X-H torsion
[ 1584 1536 1537 1538 ] final   91.74 input   95.51 | X-H torsion
[ 23828 23815 23816 23817 ] final  132.27 input  -25.33 | X-H torsion
[ 1288 1260 1258 1255 ] final -129.33 input   59.99 | X-H torsion
[ 25744 25716 25717 25718 ] final   14.58 input   66.04 | X-H torsion
[ 27193 4055 4054 4053 ] final  -45.74 input   -0.00 | X-H torsion
[ 27195 4282 4281 4280 ] final -109.07 input    0.00 | X-H torsion
[ 27200 4326 4325 4324 ] final -115.81 input    0.00 | X-H torsion
[ 27211 23656 23655 23654 ] final  168.85 input   -0.00 | X-H torsion
[ 27214 23715 23714 23713 ] final  139.89 input    0.00 | X-H torsion
[ 27218 6898 6897 6896 ] final -167.38 input   -0.00 | X-H torsion
[ 27220 25719 25718 25717 ] final  -14.48 input   -0.00 | X-H torsion
[ 27226 1316 1315 1314 ] final   84.28 input    0.00 | X-H torsion
[ 27230 23818 23817 23816 ] final -177.29 input    0.00 | X-H torsion
[ 27232 1257 1256 1255 ] final  -38.77 input    0.00 | X-H torsion

> <Gold.Protein.ActiveResidues>
 ARG304  THR320  LEU321  LEU323  LYS324  GLN369  TYR370  SER372  SER373  TYR408 
 HIS412  ARG415  ASN416  TRP426  GLU670  CYS673  ARG674  GLY675  GLY676  TYR703 
 LEU705  THR706  PRO707 

> <Gold.Protein.RotatedAtoms>
  220.6097    4.2921   36.2508 H   0  0  0  0  0  0  0  0  0  0  0  0  # atno 1288 bound_to 1260
  223.2898    7.9557   37.2312 H   0  0  0  0  0  0  0  0  0  0  0  0  # atno 1354 bound_to 1313
  223.8924    8.9182   42.3109 H   0  0  0  0  0  0  0  0  0  0  0  0  # atno 1584 bound_to 1536
  223.8934    3.7948   45.7799 H   0  0  0  0  0  0  0  0  0  0  0  0  # atno 1594 bound_to 1544
  222.5202    4.4206   45.0943 H   0  0  0  0  0  0  0  0  0  0  0  0  # atno 1595 bound_to 1544
  222.7633    2.7805   45.1148 H   0  0  0  0  0  0  0  0  0  0  0  0  # atno 1596 bound_to 1544
  228.6375    1.2611   51.5010 H   0  0  0  0  0  0  0  0  0  0  0  0  # atno 4085 bound_to 4052
  229.9603   -0.5210   49.4187 H   0  0  0  0  0  0  0  0  0  0  0  0  # atno 4168 bound_to 4129
  225.8503   -3.7045   46.3746 H   0  0  0  0  0  0  0  0  0  0  0  0  # atno 4304 bound_to 4284
  228.9928   -3.1344   47.5030 H   0  0  0  0  0  0  0  0  0  0  0  0  # atno 4344 bound_to 4323
  231.8102   -5.0290   46.6127 H   0  0  0  0  0  0  0  0  0  0  0  0  # atno 4348 bound_to 4328
  231.7579    0.8377   46.8497 H   0  0  0  0  0  0  0  0  0  0  0  0  # atno 6708 bound_to 6672
  239.0346    2.9886   43.5878 H   0  0  0  0  0  0  0  0  0  0  0  0  # atno 6926 bound_to 6895
  226.3651   -0.4400   35.7049 H   0  0  0  0  0  0  0  0  0  0  0  0  # atno 23762 bound_to 23712
  225.8238    2.2443   34.8061 H   0  0  0  0  0  0  0  0  0  0  0  0  # atno 23800 bound_to 23787
  225.3100    5.0762   35.3570 H   0  0  0  0  0  0  0  0  0  0  0  0  # atno 23828 bound_to 23815
  231.3582    8.7853   45.8063 H   0  0  0  0  0  0  0  0  0  0  0  0  # atno 25744 bound_to 25716
  228.5246   -1.8710   48.0704 LP  0  0  0  0  0  0  0  0  0  0  0  0  # atno 27193 bound_to 4055
  230.2222   -1.6808   47.7843 LP  0  0  0  0  0  0  0  0  0  0  0  0  # atno 27194 bound_to 4055
  227.7015   -6.3984   46.4889 LP  0  0  0  0  0  0  0  0  0  0  0  0  # atno 27195 bound_to 4282
  226.4234   -5.3996   45.8815 LP  0  0  0  0  0  0  0  0  0  0  0  0  # atno 27196 bound_to 4282
  225.8520   -2.0781   46.3198 LP  0  0  0  0  0  0  0  0  0  0  0  0  # atno 27197 bound_to 4284
  224.5377   -2.8780   46.8670 LP  0  0  0  0  0  0  0  0  0  0  0  0  # atno 27198 bound_to 4284
  227.9540   -4.4980   47.1551 LP  0  0  0  0  0  0  0  0  0  0  0  0  # atno 27199 bound_to 4323
  229.6802   -7.2101   44.6189 LP  0  0  0  0  0  0  0  0  0  0  0  0  # atno 27200 bound_to 4326
  230.9670   -6.1396   44.1735 LP  0  0  0  0  0  0  0  0  0  0  0  0  # atno 27201 bound_to 4326
  231.7865   -3.7124   47.5690 LP  0  0  0  0  0  0  0  0  0  0  0  0  # atno 27202 bound_to 4328
  232.8056   -3.7814   46.2949 LP  0  0  0  0  0  0  0  0  0  0  0  0  # atno 27203 bound_to 4328
  231.3662   -0.6358   46.2801 LP  0  0  0  0  0  0  0  0  0  0  0  0  # atno 27204 bound_to 6672
  232.1284    0.4393   45.3157 LP  0  0  0  0  0  0  0  0  0  0  0  0  # atno 27205 bound_to 6672
  226.3202   -0.9603   37.6466 LP  0  0  0  0  0  0  0  0  0  0  0  0  # atno 27211 bound_to 23656
  226.0437   -2.4138   36.7461 LP  0  0  0  0  0  0  0  0  0  0  0  0  # atno 27212 bound_to 23656
  227.4464    0.6665   34.8857 LP  0  0  0  0  0  0  0  0  0  0  0  0  # atno 27213 bound_to 23712
  225.3925    4.0322   37.7395 LP  0  0  0  0  0  0  0  0  0  0  0  0  # atno 27214 bound_to 23715
  225.4879    2.6043   38.7152 LP  0  0  0  0  0  0  0  0  0  0  0  0  # atno 27215 bound_to 23715
  225.5043    2.2552   36.5241 LP  0  0  0  0  0  0  0  0  0  0  0  0  # atno 27216 bound_to 23787
  238.0384    1.6175   43.9923 LP  0  0  0  0  0  0  0  0  0  0  0  0  # atno 27217 bound_to 6895
  236.8069    6.4827   42.3449 LP  0  0  0  0  0  0  0  0  0  0  0  0  # atno 27218 bound_to 6898
  235.7277    5.1605   42.0498 LP  0  0  0  0  0  0  0  0  0  0  0  0  # atno 27219 bound_to 6898
  231.1736    7.3575   46.9157 LP  0  0  0  0  0  0  0  0  0  0  0  0  # atno 27220 bound_to 25719
  232.1281    5.9332   46.6704 LP  0  0  0  0  0  0  0  0  0  0  0  0  # atno 27221 bound_to 25719
  230.2375   -0.4938   51.1406 LP  0  0  0  0  0  0  0  0  0  0  0  0  # atno 27222 bound_to 4129
  227.4890   -0.0476   51.4013 LP  0  0  0  0  0  0  0  0  0  0  0  0  # atno 27223 bound_to 4052
  222.8444    6.3303   37.6851 LP  0  0  0  0  0  0  0  0  0  0  0  0  # atno 27225 bound_to 1313
  225.8083    8.5211   41.0450 LP  0  0  0  0  0  0  0  0  0  0  0  0  # atno 27226 bound_to 1316
  224.1293    8.5446   41.4699 LP  0  0  0  0  0  0  0  0  0  0  0  0  # atno 27227 bound_to 1316
  222.6522    9.4591   43.4175 LP  0  0  0  0  0  0  0  0  0  0  0  0  # atno 27228 bound_to 1536
  226.5616    4.2472   34.4665 LP  0  0  0  0  0  0  0  0  0  0  0  0  # atno 27229 bound_to 23815
  229.8378    5.4913   35.2969 LP  0  0  0  0  0  0  0  0  0  0  0  0  # atno 27230 bound_to 23818
  228.3648    4.5801   35.3078 LP  0  0  0  0  0  0  0  0  0  0  0  0  # atno 27231 bound_to 23818
  221.0315    8.0206   39.5678 LP  0  0  0  0  0  0  0  0  0  0  0  0  # atno 27232 bound_to 1257
  222.2571    6.8929   40.0434 LP  0  0  0  0  0  0  0  0  0  0  0  0  # atno 27233 bound_to 1257
  221.3436    4.3475   37.7025 LP  0  0  0  0  0  0  0  0  0  0  0  0  # atno 27234 bound_to 1260
  221.9465    5.1995   36.4466 LP  0  0  0  0  0  0  0  0  0  0  0  0  # atno 27235 bound_to 1260

> <Gold.Score>
     Fitness  S(hb_ext) S(vdw_ext)  S(hb_int)    S(int)      intcor
     31.98       4.94      20.27       0.00      -0.82      -0.76

> <Gold.Goldscore.Fitness>
31.9832

> <Gold.Goldscore.Internal.Vdw>
-0.8831

> <Gold.Goldscore.Internal.Torsion>
-0.6976

> <Gold.Goldscore.External.Vdw>
20.2676

> <Gold.Goldscore.Internal.HBond>
0.0000

> <Gold.Goldscore.External.HBond>
4.9375

> <Gold.Goldscore.Internal.Correction>
-0.7585

> <Gold.Goldscore.Hbonds>
donor molecule, donor type, donor heavy atom, donor atom, acceptor molecule, acceptor atom, score
      P1  H 23719 23770       L1    11  0.82

> <Gold.Goldscore.Internal.Vdw.Weighted>
-0.8831

> <Gold.Goldscore.Internal.Torsion.Weighted>
-0.6976

> <Gold.Goldscore.External.Vdw.Weighted>
27.8679

> <Gold.Goldscore.Internal.HBond.Weighted>
0.0000

> <Gold.Goldscore.External.HBond.Weighted>
4.9375

> <Gold.Goldscore.Internal.Correction.Weighted>
-0.7585

> <Gold.Rescore>
     Score     S(PLP)   S(hbond)     S(cho)   S(metal)  DE(clash)   DE(tors)     intcor
     38.09     -34.53       1.76       0.00       0.00       0.35       0.68       ----

> <Gold.PLP.Fitness>
38.0948

> <Gold.PLP.PLP>
-34.5266

> <Gold.PLP.part.hbond>
-2.0000

> <Gold.PLP.part.metal>
0.0000

> <Gold.PLP.part.buried>
-3.2962

> <Gold.PLP.part.nonpolar>
-31.2579

> <Gold.PLP.part.repulsive>
0.2719

> <Gold.PLP.ligand.clash>
0.3509

> <Gold.PLP.ligand.torsion>
0.6804

> <Gold.PLP.Chemscore.Hbond>
1.7600

> <Gold.PLP.Chemscore.CHOScore>
0.0000

> <Gold.PLP.Chemscore.Metal>
0.0000

> <Gold.Chemscore.Hbonds>
donor molecule, donor type, donor heavy atom, donor atom, acceptor molecule, acceptor atom, score
      P1  H 23719 23770       L1    11  0.19
      P1  H 23722 23774       L1    11  0.04

> <Gold.PLP.Chemscore.Internal.Correction>
   9.000000E+99

#       Name:                CT1002167954
#       Creating user name   hitesit
#       Creation time:       Sun Apr 16 23:09:05 2023


#       File generated by GOLD software.
#

@<TRIPOS>MOLECULE
CT1002167954|ligand_prepared|mol2|1|dock10
    29    30     1
SMALL
NO_CHARGES


@<TRIPOS>ATOM
      1 C1         228.4671  -0.1285  43.1943 C.3            1 RES1               0.0000
      2 C2         227.7607   0.7658  44.2336 C.ar           1 RES1               0.0000
      3 C3         227.7448  -1.4723  43.2240 C.2            1 RES1               0.0000
      4 C4         228.3641   0.6039  41.8610 C.2            1 RES1               0.0000
      5 C5         229.9652  -0.3694  43.4927 C.3            1 RES1               0.0000
      6 C6         226.5099   0.4177  44.7347 C.ar           1 RES1               0.0000
      7 C7         228.3474   1.9385  44.7018 C.ar           1 RES1               0.0000
      8 N8         226.9227  -1.7709  42.1776 N.am           1 RES1               0.0000
      9 O9         227.8640  -2.2411  44.1700 O.2            1 RES1               0.0000
     10 N10        227.6136   0.0291  40.8690 N.am           1 RES1               0.0000
     11 O11        228.9126   1.6816  41.6661 O.2            1 RES1               0.0000
     12 C12        230.6184  -1.3860  42.5697 C.3            1 RES1               0.0000
     13 C13        225.8701   1.2115  45.6722 C.ar           1 RES1               0.0000
     14 C14        227.7057   2.7310  45.6392 C.ar           1 RES1               0.0000
     15 C15        226.8631  -1.1099  40.9771 C.2            1 RES1               0.0000
     16 C16        226.4676   2.3683  46.1254 C.ar           1 RES1               0.0000
     17 O17        226.1705  -1.5349  40.0569 O.2            1 RES1               0.0000
     18 H18        230.5007   0.5838  43.4035 H              1 RES1               0.0000
     19 H19        230.0677  -0.7159  44.5285 H              1 RES1               0.0000
     20 H20        226.0231  -0.4877  44.3880 H              1 RES1               0.0000
     21 H21        229.3205   2.2441  44.3326 H              1 RES1               0.0000
     22 H22        226.2939  -2.5584  42.2990 H              1 RES1               0.0000
     23 H23        227.6145   0.4933  39.9663 H              1 RES1               0.0000
     24 H24        231.6685  -1.5174  42.8221 H              1 RES1               0.0000
     25 H25        230.1267  -2.3532  42.6514 H              1 RES1               0.0000
     26 H26        230.5571  -1.0612  41.5331 H              1 RES1               0.0000
     27 H27        224.8952   0.9223  46.0506 H              1 RES1               0.0000
     28 H28        228.1794   3.6409  45.9926 H              1 RES1               0.0000
     29 H29        225.9664   2.9897  46.8601 H              1 RES1               0.0000
@<TRIPOS>BOND
    1    1    2 1     
    2    1    3 1     
    3    1    4 1     
    4    1    5 1     
    5    2    6 ar    
    6    2    7 ar    
    7    3    8 1     
    8    3    9 2     
    9    4   10 1     
   10    4   11 2     
   11    5   12 1     
   12    5   18 1     
   13    5   19 1     
   14    6   13 ar    
   15    6   20 1     
   16    7   14 ar    
   17    7   21 1     
   18    8   15 1     
   19    8   22 1     
   20   10   15 1     
   21   10   23 1     
   22   12   24 1     
   23   12   25 1     
   24   12   26 1     
   25   13   16 ar    
   26   13   27 1     
   27   14   16 ar    
   28   14   28 1     
   29   15   17 2     
   30   16   29 1     
@<TRIPOS>SUBSTRUCTURE
      1 RES1           1
@<TRIPOS>SET
DONOR_HYDROGENS      STATIC     ATOMS    <user>   **** ""
2 22 23
ATOM$RED        STATIC     ATOMS    COLORGROUP SYSTEM
2 22 23
@<TRIPOS>COMMENT
> <Gold.Version>
2022.3.0

> <Gold.Id.Protein>
unknown|4d1n_clean|pdb

> <Gold.Protein.RotatedTorsions>
[ 1594 1544 1543 1542 ] final  -23.60 input   60.00 | X-H torsion
[ 4304 4284 4283 4280 ] final  140.33 input   59.98 | X-H torsion
[ 4344 4323 4324 4325 ] final  -67.12 input  122.59 | X-H torsion
[ 4348 4328 4327 4324 ] final  114.00 input   59.99 | X-H torsion
[ 6708 6672 6671 6669 ] final   58.82 input   60.02 | X-H torsion
[ 23762 23712 23713 23714 ] final  -48.46 input   58.31 | X-H torsion
[ 23800 23787 23788 23789 ] final  -53.83 input  -92.91 | X-H torsion
[ 6926 6895 6896 6897 ] final  128.55 input  109.21 | X-H torsion
[ 4168 4129 4130 4131 ] final  161.65 input  118.46 | X-H torsion
[ 4085 4052 4053 4054 ] final  123.82 input  111.71 | X-H torsion
[ 1354 1313 1314 1315 ] final  112.40 input  117.91 | X-H torsion
[ 1584 1536 1537 1538 ] final   69.85 input   95.51 | X-H torsion
[ 23828 23815 23816 23817 ] final   45.73 input  -25.33 | X-H torsion
[ 1288 1260 1258 1255 ] final   62.90 input   59.99 | X-H torsion
[ 25744 25716 25717 25718 ] final -108.33 input   66.04 | X-H torsion
[ 27193 4055 4054 4053 ] final -136.55 input   -0.00 | X-H torsion
[ 27195 4282 4281 4280 ] final   57.68 input    0.00 | X-H torsion
[ 27200 4326 4325 4324 ] final   52.06 input    0.00 | X-H torsion
[ 27211 23656 23655 23654 ] final  -11.34 input   -0.00 | X-H torsion
[ 27214 23715 23714 23713 ] final -118.05 input    0.00 | X-H torsion
[ 27218 6898 6897 6896 ] final   67.54 input   -0.00 | X-H torsion
[ 27220 25719 25718 25717 ] final   53.60 input   -0.00 | X-H torsion
[ 27226 1316 1315 1314 ] final  162.17 input    0.00 | X-H torsion
[ 27230 23818 23817 23816 ] final  161.98 input    0.00 | X-H torsion
[ 27232 1257 1256 1255 ] final   78.61 input    0.00 | X-H torsion

> <Gold.Protein.ActiveResidues>
 ARG304  THR320  LEU321  LEU323  LYS324  GLN369  TYR370  SER372  SER373  TYR408 
 HIS412  ARG415  ASN416  TRP426  GLU670  CYS673  ARG674  GLY675  GLY676  TYR703 
 LEU705  THR706  PRO707 

> <Gold.Protein.RotatedAtoms>
  221.8962    4.8246   37.4877 H   0  0  0  0  0  0  0  0  0  0  0  0  # atno 1288 bound_to 1260
  223.6761    7.0920   36.8283 H   0  0  0  0  0  0  0  0  0  0  0  0  # atno 1354 bound_to 1313
  223.9838    9.2381   42.3579 H   0  0  0  0  0  0  0  0  0  0  0  0  # atno 1584 bound_to 1536
  223.8013    4.0978   45.7511 H   0  0  0  0  0  0  0  0  0  0  0  0  # atno 1594 bound_to 1544
  222.3361    4.1871   44.9815 H   0  0  0  0  0  0  0  0  0  0  0  0  # atno 1595 bound_to 1544
  223.0396    2.7110   45.2563 H   0  0  0  0  0  0  0  0  0  0  0  0  # atno 1596 bound_to 1544
  228.2840    1.4497   51.4056 H   0  0  0  0  0  0  0  0  0  0  0  0  # atno 4085 bound_to 4052
  230.7364    0.0496   50.5173 H   0  0  0  0  0  0  0  0  0  0  0  0  # atno 4168 bound_to 4129
  224.6327   -2.4689   46.8195 H   0  0  0  0  0  0  0  0  0  0  0  0  # atno 4304 bound_to 4284
  227.8380   -4.3592   46.9986 H   0  0  0  0  0  0  0  0  0  0  0  0  # atno 4344 bound_to 4323
  232.6638   -4.3390   46.0709 H   0  0  0  0  0  0  0  0  0  0  0  0  # atno 4348 bound_to 4328
  232.1630    1.0118   45.8808 H   0  0  0  0  0  0  0  0  0  0  0  0  # atno 6708 bound_to 6672
  238.1314    1.8881   44.4471 H   0  0  0  0  0  0  0  0  0  0  0  0  # atno 6926 bound_to 6895
  226.0313    0.0401   35.3578 H   0  0  0  0  0  0  0  0  0  0  0  0  # atno 23762 bound_to 23712
  226.0333    2.4651   34.9022 H   0  0  0  0  0  0  0  0  0  0  0  0  # atno 23800 bound_to 23787
  226.3990    4.6538   35.6597 H   0  0  0  0  0  0  0  0  0  0  0  0  # atno 23828 bound_to 23815
  232.2997    9.9103   45.2903 H   0  0  0  0  0  0  0  0  0  0  0  0  # atno 25744 bound_to 25716
  229.5471   -2.4609   48.4280 LP  0  0  0  0  0  0  0  0  0  0  0  0  # atno 27193 bound_to 4055
  229.1997   -1.0909   47.4267 LP  0  0  0  0  0  0  0  0  0  0  0  0  # atno 27194 bound_to 4055
  226.3224   -5.4743   46.0368 LP  0  0  0  0  0  0  0  0  0  0  0  0  # atno 27195 bound_to 4282
  227.8025   -6.3236   46.3336 LP  0  0  0  0  0  0  0  0  0  0  0  0  # atno 27196 bound_to 4282
  225.4753   -3.8295   46.5244 LP  0  0  0  0  0  0  0  0  0  0  0  0  # atno 27197 bound_to 4284
  226.1402   -2.3706   46.2145 LP  0  0  0  0  0  0  0  0  0  0  0  0  # atno 27198 bound_to 4284
  229.0766   -3.3073   47.6456 LP  0  0  0  0  0  0  0  0  0  0  0  0  # atno 27199 bound_to 4323
  230.8329   -6.0420   44.0960 LP  0  0  0  0  0  0  0  0  0  0  0  0  # atno 27200 bound_to 4326
  229.8143   -7.3077   44.6964 LP  0  0  0  0  0  0  0  0  0  0  0  0  # atno 27201 bound_to 4326
  231.5139   -4.8255   47.1147 LP  0  0  0  0  0  0  0  0  0  0  0  0  # atno 27202 bound_to 4328
  232.2184   -3.3633   47.2949 LP  0  0  0  0  0  0  0  0  0  0  0  0  # atno 27203 bound_to 4328
  231.4133    0.1318   47.0264 LP  0  0  0  0  0  0  0  0  0  0  0  0  # atno 27204 bound_to 6672
  231.6735   -0.5037   45.5449 LP  0  0  0  0  0  0  0  0  0  0  0  0  # atno 27205 bound_to 6672
  226.0409   -2.4129   36.7455 LP  0  0  0  0  0  0  0  0  0  0  0  0  # atno 27211 bound_to 23656
  226.3230   -0.9612   37.6471 LP  0  0  0  0  0  0  0  0  0  0  0  0  # atno 27212 bound_to 23656
  227.7690    0.2026   35.2211 LP  0  0  0  0  0  0  0  0  0  0  0  0  # atno 27213 bound_to 23712
  224.6272    3.0217   38.1940 LP  0  0  0  0  0  0  0  0  0  0  0  0  # atno 27214 bound_to 23715
  226.2531    3.6149   38.2606 LP  0  0  0  0  0  0  0  0  0  0  0  0  # atno 27215 bound_to 23715
  225.2998    2.0396   36.4302 LP  0  0  0  0  0  0  0  0  0  0  0  0  # atno 27216 bound_to 23787
  238.9357    2.7108   43.1386 LP  0  0  0  0  0  0  0  0  0  0  0  0  # atno 27217 bound_to 6895
  235.5341    5.6709   42.6329 LP  0  0  0  0  0  0  0  0  0  0  0  0  # atno 27218 bound_to 6898
  237.0005    5.9723   41.7619 LP  0  0  0  0  0  0  0  0  0  0  0  0  # atno 27219 bound_to 6898
  231.5399    7.0906   46.0586 LP  0  0  0  0  0  0  0  0  0  0  0  0  # atno 27220 bound_to 25719
  231.7618    6.2001   47.5275 LP  0  0  0  0  0  0  0  0  0  0  0  0  # atno 27221 bound_to 25719
  229.4705   -1.0578   50.0549 LP  0  0  0  0  0  0  0  0  0  0  0  0  # atno 27222 bound_to 4129
  227.8385   -0.2340   51.4956 LP  0  0  0  0  0  0  0  0  0  0  0  0  # atno 27223 bound_to 4052
  222.4644    7.1801   38.0814 LP  0  0  0  0  0  0  0  0  0  0  0  0  # atno 27225 bound_to 1313
  225.1499    9.3767   41.1857 LP  0  0  0  0  0  0  0  0  0  0  0  0  # atno 27226 bound_to 1316
  224.7878    7.6890   41.3292 LP  0  0  0  0  0  0  0  0  0  0  0  0  # atno 27227 bound_to 1316
  222.5629    9.1468   43.3717 LP  0  0  0  0  0  0  0  0  0  0  0  0  # atno 27228 bound_to 1536
  225.4911    4.6624   34.1689 LP  0  0  0  0  0  0  0  0  0  0  0  0  # atno 27229 bound_to 23815
  229.8483    5.3641   35.0125 LP  0  0  0  0  0  0  0  0  0  0  0  0  # atno 27230 bound_to 23818
  228.3542    4.7073   35.5923 LP  0  0  0  0  0  0  0  0  0  0  0  0  # atno 27231 bound_to 23818
  221.4303    6.6177   39.8176 LP  0  0  0  0  0  0  0  0  0  0  0  0  # atno 27232 bound_to 1257
  221.8583    8.2958   39.7936 LP  0  0  0  0  0  0  0  0  0  0  0  0  # atno 27233 bound_to 1257
  221.4192    4.9813   35.9396 LP  0  0  0  0  0  0  0  0  0  0  0  0  # atno 27234 bound_to 1260
  220.5759    4.0298   36.9644 LP  0  0  0  0  0  0  0  0  0  0  0  0  # atno 27235 bound_to 1260

> <Gold.Score>
     Fitness  S(hb_ext) S(vdw_ext)  S(hb_int)    S(int)      intcor
     30.26       6.00      18.75       0.00      -1.52      -0.76

> <Gold.Goldscore.Fitness>
30.2611

> <Gold.Goldscore.Internal.Vdw>
-1.8298

> <Gold.Goldscore.Internal.Torsion>
-0.4518

> <Gold.Goldscore.External.Vdw>
18.7521

> <Gold.Goldscore.Internal.HBond>
0.0000

> <Gold.Goldscore.External.HBond>
6.0000

> <Gold.Goldscore.Internal.Correction>
-0.7585

> <Gold.Goldscore.Hbonds>
donor molecule, donor type, donor heavy atom, donor atom, acceptor molecule, acceptor atom, score
      P1  H 23719 23770       L1    11  1.00

> <Gold.Goldscore.Internal.Vdw.Weighted>
-1.8298

> <Gold.Goldscore.Internal.Torsion.Weighted>
-0.4518

> <Gold.Goldscore.External.Vdw.Weighted>
25.7841

> <Gold.Goldscore.Internal.HBond.Weighted>
0.0000

> <Gold.Goldscore.External.HBond.Weighted>
6.0000

> <Gold.Goldscore.Internal.Correction.Weighted>
-0.7585

> <Gold.Rescore>
     Score     S(PLP)   S(hbond)     S(cho)   S(metal)  DE(clash)   DE(tors)     intcor
     27.62     -26.95       1.00       0.00       0.00       1.90       0.22       ----

> <Gold.PLP.Fitness>
27.6168

> <Gold.PLP.PLP>
-26.9492

> <Gold.PLP.part.hbond>
-1.3285

> <Gold.PLP.part.metal>
0.0000

> <Gold.PLP.part.buried>
-5.8241

> <Gold.PLP.part.nonpolar>
-21.2581

> <Gold.PLP.part.repulsive>
0.2512

> <Gold.PLP.ligand.clash>
1.8990

> <Gold.PLP.ligand.torsion>
0.2167

> <Gold.PLP.Chemscore.Hbond>
1.0000

> <Gold.PLP.Chemscore.CHOScore>
0.0000

> <Gold.PLP.Chemscore.Metal>
0.0000

> <Gold.Chemscore.Hbonds>
donor molecule, donor type, donor heavy atom, donor atom, acceptor molecule, acceptor atom, score
      P1  H 23719 23770       L1    11  1.00

> <Gold.PLP.Chemscore.Internal.Correction>
   9.000000E+99

