#       Name:                GA Fitting Points
#       Creating user name   hitesit
#       Creation time:       Sun Apr 16 23:08:57 2023


#       Fitting Points Used by GA Software.
#

@<TRIPOS>MOLECULE
GA Fitting Points
  4090    0    0
SMALL
NO_CHARGES


@<TRIPOS>ATOM
      1 ****       221.0000   3.2500  40.2500 Du        
      2 ****       221.0000   3.5000  40.7500 Du        
      3 ****       221.0000   3.7500  40.7500 Du        
      4 ****       221.0000   3.7500  41.0000 Du        
      5 ****       221.0000   4.0000  41.2500 Du        
      6 ****       221.0000   4.2500  41.2500 Du        
      7 ****       221.2500   3.0000  40.0000 Du        
      8 ****       221.2500   3.0000  40.2500 Du        
      9 ****       221.2500   3.2500  40.0000 Du        
     10 ****       221.2500   3.2500  40.2500 Du        
     11 ****       221.2500   3.5000  40.0000 Du        
     12 ****       221.2500   3.5000  40.2500 Du        
     13 ****       221.2500   3.5000  40.5000 Du        
     14 ****       221.2500   3.5000  40.7500 Du        
     15 ****       221.2500   3.7500  40.0000 Du        
     16 ****       221.2500   3.7500  40.2500 Du        
     17 ****       221.2500   3.7500  40.5000 Du        
     18 ****       221.2500   3.7500  40.7500 Du        
     19 ****       221.2500   3.7500  41.0000 Du        
     20 ****       221.2500   4.0000  40.2500 Du        
     21 ****       221.2500   4.0000  40.5000 Du        
     22 ****       221.2500   4.0000  40.7500 Du        
     23 ****       221.2500   4.0000  41.0000 Du        
     24 ****       221.2500   4.2500  40.5000 Du        
     25 ****       221.2500   4.2500  40.7500 Du        
     26 ****       221.2500   4.2500  41.0000 Du        
     27 ****       221.2500   4.5000  40.5000 Du        
     28 ****       221.2500   4.5000  40.7500 Du        
     29 ****       221.2500   4.5000  41.0000 Du        
     30 ****       221.2500   4.5000  41.2500 Du        
     31 ****       221.2500   4.7500  40.7500 Du        
     32 ****       221.2500   4.7500  41.0000 Du        
     33 ****       221.2500   4.7500  41.2500 Du        
     34 ****       221.2500   5.0000  41.0000 Du        
     35 ****       221.2500   5.0000  41.2500 Du        
     36 ****       221.5000   3.0000  40.0000 Du        
     37 ****       221.5000   3.2500  40.0000 Du        
     38 ****       221.5000   3.2500  40.2500 Du        
     39 ****       221.5000   3.2500  40.5000 Du        
     40 ****       221.5000   3.5000  40.0000 Du        
     41 ****       221.5000   3.5000  40.2500 Du        
     42 ****       221.5000   3.5000  40.5000 Du        
     43 ****       221.5000   3.7500  40.0000 Du        
     44 ****       221.5000   3.7500  40.2500 Du        
     45 ****       221.5000   3.7500  40.5000 Du        
     46 ****       221.5000   3.7500  40.7500 Du        
     47 ****       221.5000   4.0000  40.2500 Du        
     48 ****       221.5000   4.0000  40.5000 Du        
     49 ****       221.5000   4.0000  40.7500 Du        
     50 ****       221.5000   4.2500  40.2500 Du        
     51 ****       221.5000   4.2500  40.5000 Du        
     52 ****       221.5000   4.2500  40.7500 Du        
     53 ****       221.5000   4.5000  40.5000 Du        
     54 ****       221.5000   4.5000  40.7500 Du        
     55 ****       221.5000   4.5000  41.0000 Du        
     56 ****       221.5000   4.7500  40.5000 Du        
     57 ****       221.5000   4.7500  40.7500 Du        
     58 ****       221.5000   4.7500  41.0000 Du        
     59 ****       221.5000   5.0000  41.0000 Du        
     60 ****       221.5000   5.0000  41.2500 Du        
     61 ****       221.7500   2.5000  39.7500 Du        
     62 ****       221.7500   2.7500  39.7500 Du        
     63 ****       221.7500   2.7500  40.0000 Du        
     64 ****       221.7500   3.0000  39.7500 Du        
     65 ****       221.7500   3.0000  40.0000 Du        
     66 ****       221.7500   3.0000  40.2500 Du        
     67 ****       221.7500   3.2500  39.7500 Du        
     68 ****       221.7500   3.2500  40.0000 Du        
     69 ****       221.7500   3.2500  40.2500 Du        
     70 ****       221.7500   3.5000  40.0000 Du        
     71 ****       221.7500   3.5000  40.2500 Du        
     72 ****       221.7500   3.5000  40.5000 Du        
     73 ****       221.7500   3.7500  40.0000 Du        
     74 ****       221.7500   3.7500  40.2500 Du        
     75 ****       221.7500   3.7500  40.5000 Du        
     76 ****       221.7500   4.0000  40.0000 Du        
     77 ****       221.7500   4.0000  40.2500 Du        
     78 ****       221.7500   4.0000  40.5000 Du        
     79 ****       221.7500   4.0000  40.7500 Du        
     80 ****       221.7500   4.2500  40.2500 Du        
     81 ****       221.7500   4.2500  40.5000 Du        
     82 ****       221.7500   4.2500  40.7500 Du        
     83 ****       221.7500   4.5000  40.2500 Du        
     84 ****       221.7500   4.5000  40.5000 Du        
     85 ****       221.7500   4.5000  40.7500 Du        
     86 ****       221.7500   4.7500  40.5000 Du        
     87 ****       221.7500   4.7500  40.7500 Du        
     88 ****       221.7500   5.0000  40.7500 Du        
     89 ****       221.7500   5.0000  41.0000 Du        
     90 ****       222.0000   2.5000  39.5000 Du        
     91 ****       222.0000   2.5000  39.7500 Du        
     92 ****       222.0000   2.5000  40.0000 Du        
     93 ****       222.0000   2.7500  39.5000 Du        
     94 ****       222.0000   2.7500  39.7500 Du        
     95 ****       222.0000   2.7500  40.0000 Du        
     96 ****       222.0000   2.7500  40.2500 Du        
     97 ****       222.0000   3.0000  39.5000 Du        
     98 ****       222.0000   3.0000  39.7500 Du        
     99 ****       222.0000   3.0000  40.0000 Du        
    100 ****       222.0000   3.0000  40.2500 Du        
    101 ****       222.0000   3.2500  39.7500 Du        
    102 ****       222.0000   3.2500  40.0000 Du        
    103 ****       222.0000   3.2500  40.2500 Du        
    104 ****       222.0000   3.5000  40.0000 Du        
    105 ****       222.0000   3.5000  40.2500 Du        
    106 ****       222.0000   3.5000  40.5000 Du        
    107 ****       222.0000   3.7500  40.0000 Du        
    108 ****       222.0000   3.7500  40.2500 Du        
    109 ****       222.0000   3.7500  40.5000 Du        
    110 ****       222.0000   4.0000  40.0000 Du        
    111 ****       222.0000   4.0000  40.2500 Du        
    112 ****       222.0000   4.0000  40.5000 Du        
    113 ****       222.0000   4.2500  40.2500 Du        
    114 ****       222.0000   4.2500  40.5000 Du        
    115 ****       222.0000   4.5000  40.2500 Du        
    116 ****       222.0000   4.5000  40.5000 Du        
    117 ****       222.0000   4.5000  40.7500 Du        
    118 ****       222.0000   4.7500  40.5000 Du        
    119 ****       222.0000   4.7500  40.7500 Du        
    120 ****       222.2500   2.5000  39.5000 Du        
    121 ****       222.2500   2.5000  39.7500 Du        
    122 ****       222.2500   2.5000  40.0000 Du        
    123 ****       222.2500   2.5000  40.2500 Du        
    124 ****       222.2500   2.7500  39.5000 Du        
    125 ****       222.2500   2.7500  39.7500 Du        
    126 ****       222.2500   2.7500  40.0000 Du        
    127 ****       222.2500   2.7500  40.2500 Du        
    128 ****       222.2500   3.0000  39.5000 Du        
    129 ****       222.2500   3.0000  39.7500 Du        
    130 ****       222.2500   3.0000  40.0000 Du        
    131 ****       222.2500   3.0000  40.2500 Du        
    132 ****       222.2500   3.2500  39.7500 Du        
    133 ****       222.2500   3.2500  40.0000 Du        
    134 ****       222.2500   3.2500  40.2500 Du        
    135 ****       222.2500   3.5000  39.7500 Du        
    136 ****       222.2500   3.5000  40.0000 Du        
    137 ****       222.2500   3.5000  40.2500 Du        
    138 ****       222.2500   3.7500  40.0000 Du        
    139 ****       222.2500   3.7500  40.2500 Du        
    140 ****       222.2500   4.0000  40.0000 Du        
    141 ****       222.2500   4.0000  40.2500 Du        
    142 ****       222.2500   4.2500  40.2500 Du        
    143 ****       222.2500   4.2500  40.5000 Du        
    144 ****       222.2500   4.5000  40.2500 Du        
    145 ****       222.2500   4.5000  40.5000 Du        
    146 ****       222.5000   0.5000  49.0000 Du        
    147 ****       222.5000   1.7500  39.0000 Du        
    148 ****       222.5000   1.7500  39.2500 Du        
    149 ****       222.5000   2.0000  39.0000 Du        
    150 ****       222.5000   2.0000  39.2500 Du        
    151 ****       222.5000   2.2500  39.0000 Du        
    152 ****       222.5000   2.2500  39.2500 Du        
    153 ****       222.5000   2.2500  39.7500 Du        
    154 ****       222.5000   2.2500  40.0000 Du        
    155 ****       222.5000   2.5000  39.2500 Du        
    156 ****       222.5000   2.5000  39.5000 Du        
    157 ****       222.5000   2.5000  39.7500 Du        
    158 ****       222.5000   2.5000  40.0000 Du        
    159 ****       222.5000   2.5000  40.2500 Du        
    160 ****       222.5000   2.7500  39.2500 Du        
    161 ****       222.5000   2.7500  39.5000 Du        
    162 ****       222.5000   2.7500  39.7500 Du        
    163 ****       222.5000   2.7500  40.0000 Du        
    164 ****       222.5000   2.7500  40.2500 Du        
    165 ****       222.5000   3.0000  39.5000 Du        
    166 ****       222.5000   3.0000  39.7500 Du        
    167 ****       222.5000   3.0000  40.0000 Du        
    168 ****       222.5000   3.0000  40.2500 Du        
    169 ****       222.5000   3.2500  39.7500 Du        
    170 ****       222.5000   3.2500  40.0000 Du        
    171 ****       222.5000   3.2500  40.2500 Du        
    172 ****       222.5000   3.5000  39.7500 Du        
    173 ****       222.5000   3.5000  40.0000 Du        
    174 ****       222.5000   3.5000  40.2500 Du        
    175 ****       222.5000   3.7500  39.7500 Du        
    176 ****       222.5000   3.7500  40.0000 Du        
    177 ****       222.5000   3.7500  40.2500 Du        
    178 ****       222.5000   4.0000  40.0000 Du        
    179 ****       222.5000   4.0000  40.2500 Du        
    180 ****       222.5000   4.2500  40.2500 Du        
    181 ****       222.7500  -0.7500  48.2500 Du        
    182 ****       222.7500  -0.5000  48.5000 Du        
    183 ****       222.7500  -0.5000  48.7500 Du        
    184 ****       222.7500  -0.5000  49.0000 Du        
    185 ****       222.7500  -0.2500  48.2500 Du        
    186 ****       222.7500  -0.2500  48.5000 Du        
    187 ****       222.7500  -0.2500  48.7500 Du        
    188 ****       222.7500  -0.2500  49.0000 Du        
    189 ****       222.7500   0.0000  48.0000 Du        
    190 ****       222.7500   0.0000  48.2500 Du        
    191 ****       222.7500   0.0000  48.5000 Du        
    192 ****       222.7500   0.0000  48.7500 Du        
    193 ****       222.7500   0.0000  49.0000 Du        
    194 ****       222.7500   0.0000  49.2500 Du        
    195 ****       222.7500   0.2500  48.2500 Du        
    196 ****       222.7500   0.2500  48.5000 Du        
    197 ****       222.7500   0.2500  48.7500 Du        
    198 ****       222.7500   0.2500  49.0000 Du        
    199 ****       222.7500   0.2500  49.2500 Du        
    200 ****       222.7500   0.5000  48.5000 Du        
    201 ****       222.7500   0.5000  48.7500 Du        
    202 ****       222.7500   0.5000  49.0000 Du        
    203 ****       222.7500   0.5000  49.2500 Du        
    204 ****       222.7500   0.5000  49.5000 Du        
    205 ****       222.7500   0.7500  49.0000 Du        
    206 ****       222.7500   0.7500  49.2500 Du        
    207 ****       222.7500   0.7500  49.5000 Du        
    208 ****       222.7500   1.7500  39.0000 Du        
    209 ****       222.7500   1.7500  39.2500 Du        
    210 ****       222.7500   1.7500  39.5000 Du        
    211 ****       222.7500   2.0000  39.0000 Du        
    212 ****       222.7500   2.0000  39.2500 Du        
    213 ****       222.7500   2.0000  39.5000 Du        
    214 ****       222.7500   2.0000  39.7500 Du        
    215 ****       222.7500   2.0000  40.0000 Du        
    216 ****       222.7500   2.2500  39.0000 Du        
    217 ****       222.7500   2.2500  39.2500 Du        
    218 ****       222.7500   2.2500  39.5000 Du        
    219 ****       222.7500   2.2500  39.7500 Du        
    220 ****       222.7500   2.2500  40.0000 Du        
    221 ****       222.7500   2.2500  40.2500 Du        
    222 ****       222.7500   2.5000  39.2500 Du        
    223 ****       222.7500   2.5000  39.5000 Du        
    224 ****       222.7500   2.5000  39.7500 Du        
    225 ****       222.7500   2.5000  40.0000 Du        
    226 ****       222.7500   2.5000  40.2500 Du        
    227 ****       222.7500   2.7500  39.2500 Du        
    228 ****       222.7500   2.7500  39.5000 Du        
    229 ****       222.7500   2.7500  39.7500 Du        
    230 ****       222.7500   2.7500  40.0000 Du        
    231 ****       222.7500   2.7500  40.2500 Du        
    232 ****       222.7500   3.0000  39.2500 Du        
    233 ****       222.7500   3.0000  39.5000 Du        
    234 ****       222.7500   3.0000  39.7500 Du        
    235 ****       222.7500   3.0000  40.0000 Du        
    236 ****       222.7500   3.0000  40.2500 Du        
    237 ****       222.7500   3.2500  39.5000 Du        
    238 ****       222.7500   3.2500  39.7500 Du        
    239 ****       222.7500   3.2500  40.0000 Du        
    240 ****       222.7500   3.2500  40.2500 Du        
    241 ****       222.7500   3.5000  39.7500 Du        
    242 ****       222.7500   3.5000  40.0000 Du        
    243 ****       222.7500   3.5000  40.2500 Du        
    244 ****       222.7500   3.7500  39.7500 Du        
    245 ****       222.7500   3.7500  40.0000 Du        
    246 ****       222.7500   3.7500  40.2500 Du        
    247 ****       222.7500   4.0000  40.0000 Du        
    248 ****       222.7500   4.0000  40.2500 Du        
    249 ****       222.7500   4.2500  40.2500 Du        
    250 ****       223.0000  -0.5000  48.0000 Du        
    251 ****       223.0000  -0.5000  48.2500 Du        
    252 ****       223.0000  -0.5000  48.5000 Du        
    253 ****       223.0000  -0.5000  48.7500 Du        
    254 ****       223.0000  -0.5000  49.0000 Du        
    255 ****       223.0000  -0.2500  47.7500 Du        
    256 ****       223.0000  -0.2500  48.0000 Du        
    257 ****       223.0000  -0.2500  48.2500 Du        
    258 ****       223.0000  -0.2500  48.5000 Du        
    259 ****       223.0000  -0.2500  48.7500 Du        
    260 ****       223.0000  -0.2500  49.0000 Du        
    261 ****       223.0000   0.0000  48.0000 Du        
    262 ****       223.0000   0.0000  48.2500 Du        
    263 ****       223.0000   0.0000  48.5000 Du        
    264 ****       223.0000   0.0000  48.7500 Du        
    265 ****       223.0000   0.0000  49.0000 Du        
    266 ****       223.0000   0.0000  49.2500 Du        
    267 ****       223.0000   0.2500  48.0000 Du        
    268 ****       223.0000   0.2500  48.2500 Du        
    269 ****       223.0000   0.2500  48.5000 Du        
    270 ****       223.0000   0.2500  48.7500 Du        
    271 ****       223.0000   0.2500  49.0000 Du        
    272 ****       223.0000   0.2500  49.2500 Du        
    273 ****       223.0000   0.2500  49.5000 Du        
    274 ****       223.0000   0.5000  48.5000 Du        
    275 ****       223.0000   0.5000  48.7500 Du        
    276 ****       223.0000   0.5000  49.0000 Du        
    277 ****       223.0000   0.5000  49.2500 Du        
    278 ****       223.0000   0.5000  49.5000 Du        
    279 ****       223.0000   0.7500  49.0000 Du        
    280 ****       223.0000   0.7500  49.2500 Du        
    281 ****       223.0000   0.7500  49.5000 Du        
    282 ****       223.0000   1.7500  39.5000 Du        
    283 ****       223.0000   1.7500  39.7500 Du        
    284 ****       223.0000   1.7500  40.0000 Du        
    285 ****       223.0000   2.0000  39.2500 Du        
    286 ****       223.0000   2.0000  39.5000 Du        
    287 ****       223.0000   2.0000  39.7500 Du        
    288 ****       223.0000   2.0000  40.0000 Du        
    289 ****       223.0000   2.0000  40.2500 Du        
    290 ****       223.0000   2.2500  39.2500 Du        
    291 ****       223.0000   2.2500  39.5000 Du        
    292 ****       223.0000   2.2500  39.7500 Du        
    293 ****       223.0000   2.2500  40.0000 Du        
    294 ****       223.0000   2.2500  40.2500 Du        
    295 ****       223.0000   2.5000  39.2500 Du        
    296 ****       223.0000   2.5000  39.5000 Du        
    297 ****       223.0000   2.5000  39.7500 Du        
    298 ****       223.0000   2.5000  40.0000 Du        
    299 ****       223.0000   2.5000  40.2500 Du        
    300 ****       223.0000   2.7500  39.2500 Du        
    301 ****       223.0000   2.7500  39.5000 Du        
    302 ****       223.0000   2.7500  39.7500 Du        
    303 ****       223.0000   2.7500  40.0000 Du        
    304 ****       223.0000   2.7500  40.2500 Du        
    305 ****       223.0000   3.0000  39.2500 Du        
    306 ****       223.0000   3.0000  39.5000 Du        
    307 ****       223.0000   3.0000  39.7500 Du        
    308 ****       223.0000   3.0000  40.0000 Du        
    309 ****       223.0000   3.0000  40.2500 Du        
    310 ****       223.0000   3.2500  39.5000 Du        
    311 ****       223.0000   3.2500  39.7500 Du        
    312 ****       223.0000   3.2500  40.0000 Du        
    313 ****       223.0000   3.2500  40.2500 Du        
    314 ****       223.0000   3.5000  39.5000 Du        
    315 ****       223.0000   3.5000  39.7500 Du        
    316 ****       223.0000   3.5000  40.0000 Du        
    317 ****       223.0000   3.5000  40.2500 Du        
    318 ****       223.0000   3.7500  39.7500 Du        
    319 ****       223.0000   3.7500  40.0000 Du        
    320 ****       223.0000   3.7500  40.2500 Du        
    321 ****       223.0000   4.0000  40.0000 Du        
    322 ****       223.0000   4.0000  40.2500 Du        
    323 ****       223.2500  -0.5000  48.2500 Du        
    324 ****       223.2500  -0.5000  48.5000 Du        
    325 ****       223.2500  -0.5000  48.7500 Du        
    326 ****       223.2500  -0.2500  47.7500 Du        
    327 ****       223.2500  -0.2500  48.0000 Du        
    328 ****       223.2500  -0.2500  48.2500 Du        
    329 ****       223.2500  -0.2500  48.5000 Du        
    330 ****       223.2500  -0.2500  48.7500 Du        
    331 ****       223.2500  -0.2500  49.0000 Du        
    332 ****       223.2500   0.0000  47.7500 Du        
    333 ****       223.2500   0.0000  48.0000 Du        
    334 ****       223.2500   0.0000  48.2500 Du        
    335 ****       223.2500   0.0000  48.5000 Du        
    336 ****       223.2500   0.0000  48.7500 Du        
    337 ****       223.2500   0.0000  49.0000 Du        
    338 ****       223.2500   0.0000  49.2500 Du        
    339 ****       223.2500   0.2500  47.7500 Du        
    340 ****       223.2500   0.2500  48.0000 Du        
    341 ****       223.2500   0.2500  48.2500 Du        
    342 ****       223.2500   0.2500  48.5000 Du        
    343 ****       223.2500   0.2500  48.7500 Du        
    344 ****       223.2500   0.2500  49.0000 Du        
    345 ****       223.2500   0.2500  49.2500 Du        
    346 ****       223.2500   0.2500  49.5000 Du        
    347 ****       223.2500   0.5000  48.5000 Du        
    348 ****       223.2500   0.5000  48.7500 Du        
    349 ****       223.2500   0.5000  49.0000 Du        
    350 ****       223.2500   0.5000  49.2500 Du        
    351 ****       223.2500   0.5000  49.5000 Du        
    352 ****       223.2500   0.7500  49.0000 Du        
    353 ****       223.2500   0.7500  49.2500 Du        
    354 ****       223.2500   0.7500  49.5000 Du        
    355 ****       223.2500   0.7500  49.7500 Du        
    356 ****       223.2500   1.0000  49.7500 Du        
    357 ****       223.2500   1.0000  50.0000 Du        
    358 ****       223.2500   1.7500  39.7500 Du        
    359 ****       223.2500   1.7500  40.0000 Du        
    360 ****       223.2500   1.7500  40.2500 Du        
    361 ****       223.2500   2.0000  39.5000 Du        
    362 ****       223.2500   2.0000  39.7500 Du        
    363 ****       223.2500   2.0000  40.0000 Du        
    364 ****       223.2500   2.0000  40.2500 Du        
    365 ****       223.2500   2.2500  39.5000 Du        
    366 ****       223.2500   2.2500  39.7500 Du        
    367 ****       223.2500   2.2500  40.0000 Du        
    368 ****       223.2500   2.2500  40.2500 Du        
    369 ****       223.2500   2.5000  39.5000 Du        
    370 ****       223.2500   2.5000  39.7500 Du        
    371 ****       223.2500   2.5000  40.0000 Du        
    372 ****       223.2500   2.5000  40.2500 Du        
    373 ****       223.2500   2.7500  39.5000 Du        
    374 ****       223.2500   2.7500  39.7500 Du        
    375 ****       223.2500   2.7500  40.0000 Du        
    376 ****       223.2500   2.7500  40.2500 Du        
    377 ****       223.2500   3.0000  39.5000 Du        
    378 ****       223.2500   3.0000  39.7500 Du        
    379 ****       223.2500   3.0000  40.0000 Du        
    380 ****       223.2500   3.0000  40.2500 Du        
    381 ****       223.2500   3.2500  39.5000 Du        
    382 ****       223.2500   3.2500  39.7500 Du        
    383 ****       223.2500   3.2500  40.0000 Du        
    384 ****       223.2500   3.2500  40.2500 Du        
    385 ****       223.2500   3.5000  39.7500 Du        
    386 ****       223.2500   3.5000  40.0000 Du        
    387 ****       223.2500   3.5000  40.2500 Du        
    388 ****       223.2500   3.7500  39.7500 Du        
    389 ****       223.2500   3.7500  40.0000 Du        
    390 ****       223.2500   3.7500  40.2500 Du        
    391 ****       223.5000  -0.5000  48.0000 Du        
    392 ****       223.5000  -0.5000  48.2500 Du        
    393 ****       223.5000  -0.5000  48.7500 Du        
    394 ****       223.5000  -0.2500  47.5000 Du        
    395 ****       223.5000  -0.2500  47.7500 Du        
    396 ****       223.5000  -0.2500  48.0000 Du        
    397 ****       223.5000  -0.2500  48.2500 Du        
    398 ****       223.5000  -0.2500  48.5000 Du        
    399 ****       223.5000  -0.2500  48.7500 Du        
    400 ****       223.5000  -0.2500  49.0000 Du        
    401 ****       223.5000   0.0000  47.5000 Du        
    402 ****       223.5000   0.0000  47.7500 Du        
    403 ****       223.5000   0.0000  48.0000 Du        
    404 ****       223.5000   0.0000  48.2500 Du        
    405 ****       223.5000   0.0000  48.5000 Du        
    406 ****       223.5000   0.0000  48.7500 Du        
    407 ****       223.5000   0.0000  49.0000 Du        
    408 ****       223.5000   0.0000  49.2500 Du        
    409 ****       223.5000   0.2500  47.7500 Du        
    410 ****       223.5000   0.2500  48.0000 Du        
    411 ****       223.5000   0.2500  48.2500 Du        
    412 ****       223.5000   0.2500  48.5000 Du        
    413 ****       223.5000   0.2500  48.7500 Du        
    414 ****       223.5000   0.2500  49.0000 Du        
    415 ****       223.5000   0.2500  49.2500 Du        
    416 ****       223.5000   0.2500  49.5000 Du        
    417 ****       223.5000   0.5000  47.5000 Du        
    418 ****       223.5000   0.5000  47.7500 Du        
    419 ****       223.5000   0.5000  48.0000 Du        
    420 ****       223.5000   0.5000  48.2500 Du        
    421 ****       223.5000   0.5000  48.5000 Du        
    422 ****       223.5000   0.5000  48.7500 Du        
    423 ****       223.5000   0.5000  49.0000 Du        
    424 ****       223.5000   0.5000  49.2500 Du        
    425 ****       223.5000   0.5000  49.5000 Du        
    426 ****       223.5000   0.5000  49.7500 Du        
    427 ****       223.5000   0.7500  49.0000 Du        
    428 ****       223.5000   0.7500  49.2500 Du        
    429 ****       223.5000   0.7500  49.5000 Du        
    430 ****       223.5000   0.7500  49.7500 Du        
    431 ****       223.5000   1.0000  49.5000 Du        
    432 ****       223.5000   1.0000  49.7500 Du        
    433 ****       223.5000   1.0000  50.0000 Du        
    434 ****       223.5000   1.7500  39.7500 Du        
    435 ****       223.5000   1.7500  40.0000 Du        
    436 ****       223.5000   1.7500  40.2500 Du        
    437 ****       223.5000   2.0000  39.7500 Du        
    438 ****       223.5000   2.0000  40.0000 Du        
    439 ****       223.5000   2.0000  40.2500 Du        
    440 ****       223.5000   2.2500  39.7500 Du        
    441 ****       223.5000   2.2500  40.0000 Du        
    442 ****       223.5000   2.2500  40.2500 Du        
    443 ****       223.5000   2.5000  39.7500 Du        
    444 ****       223.5000   2.5000  40.0000 Du        
    445 ****       223.5000   2.5000  40.2500 Du        
    446 ****       223.5000   2.7500  39.7500 Du        
    447 ****       223.5000   2.7500  40.0000 Du        
    448 ****       223.5000   2.7500  40.2500 Du        
    449 ****       223.5000   3.0000  39.7500 Du        
    450 ****       223.5000   3.0000  40.0000 Du        
    451 ****       223.5000   3.0000  40.2500 Du        
    452 ****       223.5000   3.2500  39.7500 Du        
    453 ****       223.5000   3.2500  40.0000 Du        
    454 ****       223.5000   3.2500  40.2500 Du        
    455 ****       223.5000   3.5000  39.7500 Du        
    456 ****       223.5000   3.5000  40.0000 Du        
    457 ****       223.5000   3.5000  40.2500 Du        
    458 ****       223.5000   3.7500  40.0000 Du        
    459 ****       223.7500  -0.2500  47.5000 Du        
    460 ****       223.7500  -0.2500  47.7500 Du        
    461 ****       223.7500  -0.2500  48.0000 Du        
    462 ****       223.7500  -0.2500  48.2500 Du        
    463 ****       223.7500  -0.2500  48.5000 Du        
    464 ****       223.7500  -0.2500  48.7500 Du        
    465 ****       223.7500  -0.2500  49.0000 Du        
    466 ****       223.7500   0.0000  47.0000 Du        
    467 ****       223.7500   0.0000  47.2500 Du        
    468 ****       223.7500   0.0000  47.5000 Du        
    469 ****       223.7500   0.0000  47.7500 Du        
    470 ****       223.7500   0.0000  48.0000 Du        
    471 ****       223.7500   0.0000  48.2500 Du        
    472 ****       223.7500   0.0000  48.5000 Du        
    473 ****       223.7500   0.0000  48.7500 Du        
    474 ****       223.7500   0.0000  49.0000 Du        
    475 ****       223.7500   0.0000  49.2500 Du        
    476 ****       223.7500   0.2500  47.0000 Du        
    477 ****       223.7500   0.2500  47.2500 Du        
    478 ****       223.7500   0.2500  47.5000 Du        
    479 ****       223.7500   0.2500  47.7500 Du        
    480 ****       223.7500   0.2500  48.0000 Du        
    481 ****       223.7500   0.2500  48.2500 Du        
    482 ****       223.7500   0.2500  48.5000 Du        
    483 ****       223.7500   0.2500  48.7500 Du        
    484 ****       223.7500   0.2500  49.0000 Du        
    485 ****       223.7500   0.2500  49.2500 Du        
    486 ****       223.7500   0.2500  49.5000 Du        
    487 ****       223.7500   0.5000  47.5000 Du        
    488 ****       223.7500   0.5000  47.7500 Du        
    489 ****       223.7500   0.5000  48.0000 Du        
    490 ****       223.7500   0.5000  48.2500 Du        
    491 ****       223.7500   0.5000  48.5000 Du        
    492 ****       223.7500   0.5000  48.7500 Du        
    493 ****       223.7500   0.5000  49.0000 Du        
    494 ****       223.7500   0.5000  49.2500 Du        
    495 ****       223.7500   0.5000  49.5000 Du        
    496 ****       223.7500   0.5000  49.7500 Du        
    497 ****       223.7500   0.7500  48.7500 Du        
    498 ****       223.7500   0.7500  49.0000 Du        
    499 ****       223.7500   0.7500  49.2500 Du        
    500 ****       223.7500   0.7500  49.5000 Du        
    501 ****       223.7500   0.7500  49.7500 Du        
    502 ****       223.7500   1.0000  49.7500 Du        
    503 ****       223.7500   1.0000  50.0000 Du        
    504 ****       223.7500   1.5000  40.0000 Du        
    505 ****       223.7500   1.7500  40.0000 Du        
    506 ****       223.7500   1.7500  40.2500 Du        
    507 ****       223.7500   2.0000  40.0000 Du        
    508 ****       223.7500   2.0000  40.2500 Du        
    509 ****       223.7500   2.2500  40.0000 Du        
    510 ****       223.7500   2.2500  40.2500 Du        
    511 ****       223.7500   2.5000  40.0000 Du        
    512 ****       223.7500   2.5000  40.2500 Du        
    513 ****       223.7500   2.7500  40.0000 Du        
    514 ****       223.7500   2.7500  40.2500 Du        
    515 ****       223.7500   3.0000  40.0000 Du        
    516 ****       223.7500   3.0000  40.2500 Du        
    517 ****       223.7500   3.2500  40.0000 Du        
    518 ****       223.7500   3.2500  40.2500 Du        
    519 ****       223.7500   3.5000  40.0000 Du        
    520 ****       224.0000  -0.2500  48.5000 Du        
    521 ****       224.0000  -0.2500  48.7500 Du        
    522 ****       224.0000  -0.2500  49.0000 Du        
    523 ****       224.0000   0.0000  47.0000 Du        
    524 ****       224.0000   0.0000  47.2500 Du        
    525 ****       224.0000   0.0000  47.5000 Du        
    526 ****       224.0000   0.0000  47.7500 Du        
    527 ****       224.0000   0.0000  48.0000 Du        
    528 ****       224.0000   0.0000  48.2500 Du        
    529 ****       224.0000   0.0000  48.5000 Du        
    530 ****       224.0000   0.0000  48.7500 Du        
    531 ****       224.0000   0.0000  49.0000 Du        
    532 ****       224.0000   0.0000  49.2500 Du        
    533 ****       224.0000   0.2500  47.0000 Du        
    534 ****       224.0000   0.2500  47.2500 Du        
    535 ****       224.0000   0.2500  47.5000 Du        
    536 ****       224.0000   0.2500  47.7500 Du        
    537 ****       224.0000   0.2500  48.0000 Du        
    538 ****       224.0000   0.2500  48.2500 Du        
    539 ****       224.0000   0.2500  48.5000 Du        
    540 ****       224.0000   0.2500  48.7500 Du        
    541 ****       224.0000   0.2500  49.0000 Du        
    542 ****       224.0000   0.2500  49.2500 Du        
    543 ****       224.0000   0.2500  49.5000 Du        
    544 ****       224.0000   0.5000  47.2500 Du        
    545 ****       224.0000   0.5000  47.5000 Du        
    546 ****       224.0000   0.5000  47.7500 Du        
    547 ****       224.0000   0.5000  48.0000 Du        
    548 ****       224.0000   0.5000  48.2500 Du        
    549 ****       224.0000   0.5000  48.5000 Du        
    550 ****       224.0000   0.5000  48.7500 Du        
    551 ****       224.0000   0.5000  49.0000 Du        
    552 ****       224.0000   0.5000  49.2500 Du        
    553 ****       224.0000   0.5000  49.5000 Du        
    554 ****       224.0000   0.5000  49.7500 Du        
    555 ****       224.0000   0.7500  48.7500 Du        
    556 ****       224.0000   0.7500  49.0000 Du        
    557 ****       224.0000   0.7500  49.2500 Du        
    558 ****       224.0000   0.7500  49.5000 Du        
    559 ****       224.0000   0.7500  49.7500 Du        
    560 ****       224.0000   1.0000  49.5000 Du        
    561 ****       224.0000   1.0000  49.7500 Du        
    562 ****       224.0000   1.0000  50.0000 Du        
    563 ****       224.0000   1.5000  40.2500 Du        
    564 ****       224.0000   1.7500  40.0000 Du        
    565 ****       224.0000   1.7500  40.2500 Du        
    566 ****       224.0000   2.0000  40.0000 Du        
    567 ****       224.0000   2.0000  40.2500 Du        
    568 ****       224.0000   2.2500  40.2500 Du        
    569 ****       224.0000   2.5000  40.2500 Du        
    570 ****       224.0000   2.7500  40.2500 Du        
    571 ****       224.0000   3.0000  40.2500 Du        
    572 ****       224.2500   0.0000  47.7500 Du        
    573 ****       224.2500   0.0000  48.0000 Du        
    574 ****       224.2500   0.0000  48.2500 Du        
    575 ****       224.2500   0.0000  48.5000 Du        
    576 ****       224.2500   0.0000  48.7500 Du        
    577 ****       224.2500   0.0000  49.0000 Du        
    578 ****       224.2500   0.0000  49.2500 Du        
    579 ****       224.2500   0.2500  46.7500 Du        
    580 ****       224.2500   0.2500  47.0000 Du        
    581 ****       224.2500   0.2500  47.2500 Du        
    582 ****       224.2500   0.2500  47.5000 Du        
    583 ****       224.2500   0.2500  47.7500 Du        
    584 ****       224.2500   0.2500  48.0000 Du        
    585 ****       224.2500   0.2500  48.2500 Du        
    586 ****       224.2500   0.2500  48.5000 Du        
    587 ****       224.2500   0.2500  48.7500 Du        
    588 ****       224.2500   0.2500  49.0000 Du        
    589 ****       224.2500   0.2500  49.2500 Du        
    590 ****       224.2500   0.2500  49.5000 Du        
    591 ****       224.2500   0.5000  47.0000 Du        
    592 ****       224.2500   0.5000  47.2500 Du        
    593 ****       224.2500   0.5000  47.5000 Du        
    594 ****       224.2500   0.5000  47.7500 Du        
    595 ****       224.2500   0.5000  48.0000 Du        
    596 ****       224.2500   0.5000  48.2500 Du        
    597 ****       224.2500   0.5000  48.5000 Du        
    598 ****       224.2500   0.5000  48.7500 Du        
    599 ****       224.2500   0.5000  49.0000 Du        
    600 ****       224.2500   0.5000  49.2500 Du        
    601 ****       224.2500   0.5000  49.5000 Du        
    602 ****       224.2500   0.5000  49.7500 Du        
    603 ****       224.2500   0.7500  48.7500 Du        
    604 ****       224.2500   0.7500  49.0000 Du        
    605 ****       224.2500   0.7500  49.2500 Du        
    606 ****       224.2500   0.7500  49.5000 Du        
    607 ****       224.2500   0.7500  49.7500 Du        
    608 ****       224.2500   1.0000  49.5000 Du        
    609 ****       224.2500   1.0000  49.7500 Du        
    610 ****       224.2500   1.5000  40.2500 Du        
    611 ****       224.2500   1.7500  40.2500 Du        
    612 ****       224.2500   2.0000  40.2500 Du        
    613 ****       224.2500   2.2500  40.2500 Du        
    614 ****       224.5000   0.0000  48.5000 Du        
    615 ****       224.5000   0.0000  48.7500 Du        
    616 ****       224.5000   0.0000  49.0000 Du        
    617 ****       224.5000   0.0000  49.2500 Du        
    618 ****       224.5000   0.2500  46.5000 Du        
    619 ****       224.5000   0.2500  46.7500 Du        
    620 ****       224.5000   0.2500  47.0000 Du        
    621 ****       224.5000   0.2500  47.2500 Du        
    622 ****       224.5000   0.2500  47.5000 Du        
    623 ****       224.5000   0.2500  47.7500 Du        
    624 ****       224.5000   0.2500  48.0000 Du        
    625 ****       224.5000   0.2500  48.2500 Du        
    626 ****       224.5000   0.2500  48.5000 Du        
    627 ****       224.5000   0.2500  48.7500 Du        
    628 ****       224.5000   0.2500  49.0000 Du        
    629 ****       224.5000   0.2500  49.2500 Du        
    630 ****       224.5000   0.2500  49.5000 Du        
    631 ****       224.5000   0.5000  46.5000 Du        
    632 ****       224.5000   0.5000  46.7500 Du        
    633 ****       224.5000   0.5000  47.0000 Du        
    634 ****       224.5000   0.5000  47.2500 Du        
    635 ****       224.5000   0.5000  47.5000 Du        
    636 ****       224.5000   0.5000  47.7500 Du        
    637 ****       224.5000   0.5000  48.0000 Du        
    638 ****       224.5000   0.5000  48.2500 Du        
    639 ****       224.5000   0.5000  48.5000 Du        
    640 ****       224.5000   0.5000  48.7500 Du        
    641 ****       224.5000   0.5000  49.0000 Du        
    642 ****       224.5000   0.5000  49.2500 Du        
    643 ****       224.5000   0.5000  49.5000 Du        
    644 ****       224.5000   0.5000  49.7500 Du        
    645 ****       224.5000   0.7500  46.7500 Du        
    646 ****       224.5000   0.7500  47.0000 Du        
    647 ****       224.5000   0.7500  47.2500 Du        
    648 ****       224.5000   0.7500  47.5000 Du        
    649 ****       224.5000   0.7500  47.7500 Du        
    650 ****       224.5000   0.7500  48.0000 Du        
    651 ****       224.5000   0.7500  48.2500 Du        
    652 ****       224.5000   0.7500  48.5000 Du        
    653 ****       224.5000   0.7500  48.7500 Du        
    654 ****       224.5000   0.7500  49.0000 Du        
    655 ****       224.5000   0.7500  49.2500 Du        
    656 ****       224.5000   0.7500  49.5000 Du        
    657 ****       224.5000   0.7500  49.7500 Du        
    658 ****       224.5000   1.0000  49.5000 Du        
    659 ****       224.5000   1.0000  49.7500 Du        
    660 ****       224.5000   1.5000  40.5000 Du        
    661 ****       224.5000   1.7500  40.2500 Du        
    662 ****       224.5000   1.7500  40.5000 Du        
    663 ****       224.7500   0.2500  46.5000 Du        
    664 ****       224.7500   0.2500  46.7500 Du        
    665 ****       224.7500   0.2500  47.0000 Du        
    666 ****       224.7500   0.2500  47.2500 Du        
    667 ****       224.7500   0.2500  47.5000 Du        
    668 ****       224.7500   0.2500  47.7500 Du        
    669 ****       224.7500   0.2500  48.0000 Du        
    670 ****       224.7500   0.2500  48.2500 Du        
    671 ****       224.7500   0.2500  48.5000 Du        
    672 ****       224.7500   0.2500  48.7500 Du        
    673 ****       224.7500   0.2500  49.0000 Du        
    674 ****       224.7500   0.2500  49.2500 Du        
    675 ****       224.7500   0.2500  49.5000 Du        
    676 ****       224.7500   0.5000  46.5000 Du        
    677 ****       224.7500   0.5000  46.7500 Du        
    678 ****       224.7500   0.5000  47.0000 Du        
    679 ****       224.7500   0.5000  47.2500 Du        
    680 ****       224.7500   0.5000  47.5000 Du        
    681 ****       224.7500   0.5000  47.7500 Du        
    682 ****       224.7500   0.5000  48.0000 Du        
    683 ****       224.7500   0.5000  48.2500 Du        
    684 ****       224.7500   0.5000  48.5000 Du        
    685 ****       224.7500   0.5000  48.7500 Du        
    686 ****       224.7500   0.5000  49.0000 Du        
    687 ****       224.7500   0.5000  49.2500 Du        
    688 ****       224.7500   0.5000  49.5000 Du        
    689 ****       224.7500   0.7500  46.7500 Du        
    690 ****       224.7500   0.7500  47.0000 Du        
    691 ****       224.7500   0.7500  47.2500 Du        
    692 ****       224.7500   0.7500  47.5000 Du        
    693 ****       224.7500   0.7500  47.7500 Du        
    694 ****       224.7500   0.7500  48.0000 Du        
    695 ****       224.7500   0.7500  48.2500 Du        
    696 ****       224.7500   0.7500  48.5000 Du        
    697 ****       224.7500   0.7500  48.7500 Du        
    698 ****       224.7500   0.7500  49.0000 Du        
    699 ****       224.7500   0.7500  49.2500 Du        
    700 ****       224.7500   0.7500  49.5000 Du        
    701 ****       224.7500   1.0000  49.2500 Du        
    702 ****       224.7500   1.0000  49.5000 Du        
    703 ****       224.7500   1.0000  49.7500 Du        
    704 ****       224.7500   1.5000  40.5000 Du        
    705 ****       224.7500   1.5000  40.7500 Du        
    706 ****       224.7500   1.7500  40.5000 Du        
    707 ****       225.0000   0.2500  46.5000 Du        
    708 ****       225.0000   0.2500  46.7500 Du        
    709 ****       225.0000   0.2500  47.0000 Du        
    710 ****       225.0000   0.5000  46.2500 Du        
    711 ****       225.0000   0.5000  46.5000 Du        
    712 ****       225.0000   0.5000  46.7500 Du        
    713 ****       225.0000   0.5000  47.0000 Du        
    714 ****       225.0000   0.5000  47.2500 Du        
    715 ****       225.0000   0.5000  47.5000 Du        
    716 ****       225.0000   0.5000  47.7500 Du        
    717 ****       225.0000   0.7500  46.5000 Du        
    718 ****       225.0000   0.7500  46.7500 Du        
    719 ****       225.0000   0.7500  47.0000 Du        
    720 ****       225.0000   0.7500  47.2500 Du        
    721 ****       225.0000   0.7500  47.5000 Du        
    722 ****       225.0000   0.7500  47.7500 Du        
    723 ****       225.0000   0.7500  48.0000 Du        
    724 ****       225.0000   1.0000  46.7500 Du        
    725 ****       225.0000   1.0000  47.0000 Du        
    726 ****       225.0000   1.0000  47.2500 Du        
    727 ****       225.0000   1.0000  47.5000 Du        
    728 ****       225.0000   1.5000  40.5000 Du        
    729 ****       225.0000   1.5000  40.7500 Du        
    730 ****       225.0000   1.7500  40.5000 Du        
    731 ****       225.0000   1.7500  40.7500 Du        
    732 ****       225.2500   0.2500  46.5000 Du        
    733 ****       225.2500   0.5000  46.0000 Du        
    734 ****       225.2500   0.5000  46.2500 Du        
    735 ****       225.2500   0.5000  46.5000 Du        
    736 ****       225.2500   0.5000  46.7500 Du        
    737 ****       225.2500   0.5000  47.0000 Du        
    738 ****       225.2500   0.5000  47.2500 Du        
    739 ****       225.2500   0.7500  46.0000 Du        
    740 ****       225.2500   0.7500  46.2500 Du        
    741 ****       225.2500   0.7500  46.5000 Du        
    742 ****       225.2500   0.7500  46.7500 Du        
    743 ****       225.2500   0.7500  47.0000 Du        
    744 ****       225.2500   0.7500  47.2500 Du        
    745 ****       225.2500   0.7500  47.5000 Du        
    746 ****       225.2500   1.0000  46.5000 Du        
    747 ****       225.2500   1.0000  46.7500 Du        
    748 ****       225.2500   1.0000  47.0000 Du        
    749 ****       225.2500   1.0000  47.2500 Du        
    750 ****       225.2500   1.0000  47.5000 Du        
    751 ****       225.2500   1.2500  40.7500 Du        
    752 ****       225.2500   1.5000  40.5000 Du        
    753 ****       225.2500   1.5000  40.7500 Du        
    754 ****       225.2500   1.5000  41.0000 Du        
    755 ****       225.2500   1.7500  40.7500 Du        
    756 ****       225.5000   0.2500  45.7500 Du        
    757 ****       225.5000   0.2500  46.0000 Du        
    758 ****       225.5000   0.2500  46.2500 Du        
    759 ****       225.5000   0.2500  46.5000 Du        
    760 ****       225.5000   0.5000  45.7500 Du        
    761 ****       225.5000   0.5000  46.0000 Du        
    762 ****       225.5000   0.5000  46.2500 Du        
    763 ****       225.5000   0.5000  46.5000 Du        
    764 ****       225.5000   0.5000  46.7500 Du        
    765 ****       225.5000   0.5000  47.0000 Du        
    766 ****       225.5000   0.7500  45.7500 Du        
    767 ****       225.5000   0.7500  46.0000 Du        
    768 ****       225.5000   0.7500  46.2500 Du        
    769 ****       225.5000   0.7500  46.5000 Du        
    770 ****       225.5000   0.7500  46.7500 Du        
    771 ****       225.5000   0.7500  47.0000 Du        
    772 ****       225.5000   0.7500  47.2500 Du        
    773 ****       225.5000   1.0000  46.0000 Du        
    774 ****       225.5000   1.0000  46.2500 Du        
    775 ****       225.5000   1.0000  46.5000 Du        
    776 ****       225.5000   1.0000  46.7500 Du        
    777 ****       225.5000   1.0000  47.0000 Du        
    778 ****       225.5000   1.0000  47.2500 Du        
    779 ****       225.5000   1.2500  40.7500 Du        
    780 ****       225.5000   1.2500  46.5000 Du        
    781 ****       225.5000   1.2500  46.7500 Du        
    782 ****       225.5000   1.2500  47.0000 Du        
    783 ****       225.5000   1.5000  40.7500 Du        
    784 ****       225.5000   1.5000  41.0000 Du        
    785 ****       225.5000   1.7500  40.7500 Du        
    786 ****       225.5000   1.7500  41.0000 Du        
    787 ****       225.7500   0.0000  45.5000 Du        
    788 ****       225.7500   0.2500  45.5000 Du        
    789 ****       225.7500   0.2500  45.7500 Du        
    790 ****       225.7500   0.2500  46.0000 Du        
    791 ****       225.7500   0.2500  46.2500 Du        
    792 ****       225.7500   0.5000  45.5000 Du        
    793 ****       225.7500   0.5000  45.7500 Du        
    794 ****       225.7500   0.5000  46.0000 Du        
    795 ****       225.7500   0.5000  46.2500 Du        
    796 ****       225.7500   0.5000  46.5000 Du        
    797 ****       225.7500   0.5000  46.7500 Du        
    798 ****       225.7500   0.7500  45.5000 Du        
    799 ****       225.7500   0.7500  45.7500 Du        
    800 ****       225.7500   0.7500  46.0000 Du        
    801 ****       225.7500   0.7500  46.2500 Du        
    802 ****       225.7500   0.7500  46.5000 Du        
    803 ****       225.7500   0.7500  46.7500 Du        
    804 ****       225.7500   1.0000  41.0000 Du        
    805 ****       225.7500   1.0000  45.7500 Du        
    806 ****       225.7500   1.0000  46.0000 Du        
    807 ****       225.7500   1.0000  46.2500 Du        
    808 ****       225.7500   1.0000  46.5000 Du        
    809 ****       225.7500   1.0000  46.7500 Du        
    810 ****       225.7500   1.0000  47.0000 Du        
    811 ****       225.7500   1.2500  40.7500 Du        
    812 ****       225.7500   1.2500  41.0000 Du        
    813 ****       225.7500   1.2500  41.2500 Du        
    814 ****       225.7500   1.2500  46.0000 Du        
    815 ****       225.7500   1.2500  46.2500 Du        
    816 ****       225.7500   1.2500  46.5000 Du        
    817 ****       225.7500   1.2500  46.7500 Du        
    818 ****       225.7500   1.5000  40.7500 Du        
    819 ****       225.7500   1.5000  41.0000 Du        
    820 ****       225.7500   1.5000  41.2500 Du        
    821 ****       225.7500   1.7500  40.7500 Du        
    822 ****       225.7500   1.7500  41.0000 Du        
    823 ****       225.7500   2.0000  41.0000 Du        
    824 ****       226.0000   0.0000  45.5000 Du        
    825 ****       226.0000   0.0000  45.7500 Du        
    826 ****       226.0000   0.2500  45.2500 Du        
    827 ****       226.0000   0.2500  45.5000 Du        
    828 ****       226.0000   0.2500  45.7500 Du        
    829 ****       226.0000   0.2500  46.0000 Du        
    830 ****       226.0000   0.2500  46.2500 Du        
    831 ****       226.0000   0.5000  45.2500 Du        
    832 ****       226.0000   0.5000  45.5000 Du        
    833 ****       226.0000   0.5000  45.7500 Du        
    834 ****       226.0000   0.5000  46.0000 Du        
    835 ****       226.0000   0.5000  46.2500 Du        
    836 ****       226.0000   0.5000  46.5000 Du        
    837 ****       226.0000   0.7500  45.2500 Du        
    838 ****       226.0000   0.7500  45.5000 Du        
    839 ****       226.0000   0.7500  45.7500 Du        
    840 ****       226.0000   0.7500  46.0000 Du        
    841 ****       226.0000   0.7500  46.2500 Du        
    842 ****       226.0000   0.7500  46.5000 Du        
    843 ****       226.0000   1.0000  41.0000 Du        
    844 ****       226.0000   1.0000  41.2500 Du        
    845 ****       226.0000   1.0000  45.5000 Du        
    846 ****       226.0000   1.0000  45.7500 Du        
    847 ****       226.0000   1.0000  46.0000 Du        
    848 ****       226.0000   1.0000  46.2500 Du        
    849 ****       226.0000   1.0000  46.5000 Du        
    850 ****       226.0000   1.2500  41.0000 Du        
    851 ****       226.0000   1.2500  41.2500 Du        
    852 ****       226.0000   1.2500  45.7500 Du        
    853 ****       226.0000   1.2500  46.0000 Du        
    854 ****       226.0000   1.2500  46.2500 Du        
    855 ****       226.0000   1.2500  46.5000 Du        
    856 ****       226.0000   1.5000  41.0000 Du        
    857 ****       226.0000   1.5000  41.2500 Du        
    858 ****       226.0000   1.7500  41.0000 Du        
    859 ****       226.0000   1.7500  41.2500 Du        
    860 ****       226.0000   2.0000  41.2500 Du        
    861 ****       226.2500   0.0000  45.2500 Du        
    862 ****       226.2500   0.0000  45.5000 Du        
    863 ****       226.2500   0.0000  45.7500 Du        
    864 ****       226.2500   0.2500  45.2500 Du        
    865 ****       226.2500   0.2500  45.5000 Du        
    866 ****       226.2500   0.2500  45.7500 Du        
    867 ****       226.2500   0.2500  46.0000 Du        
    868 ****       226.2500   0.2500  46.2500 Du        
    869 ****       226.2500   0.5000  45.0000 Du        
    870 ****       226.2500   0.5000  45.2500 Du        
    871 ****       226.2500   0.5000  45.5000 Du        
    872 ****       226.2500   0.5000  45.7500 Du        
    873 ****       226.2500   0.5000  46.0000 Du        
    874 ****       226.2500   0.5000  46.2500 Du        
    875 ****       226.2500   0.7500  45.0000 Du        
    876 ****       226.2500   0.7500  45.2500 Du        
    877 ****       226.2500   0.7500  45.5000 Du        
    878 ****       226.2500   0.7500  45.7500 Du        
    879 ****       226.2500   0.7500  46.0000 Du        
    880 ****       226.2500   0.7500  46.2500 Du        
    881 ****       226.2500   1.0000  41.2500 Du        
    882 ****       226.2500   1.0000  45.2500 Du        
    883 ****       226.2500   1.0000  45.5000 Du        
    884 ****       226.2500   1.0000  45.7500 Du        
    885 ****       226.2500   1.0000  46.0000 Du        
    886 ****       226.2500   1.0000  46.2500 Du        
    887 ****       226.2500   1.2500  41.2500 Du        
    888 ****       226.2500   1.2500  45.5000 Du        
    889 ****       226.2500   1.2500  45.7500 Du        
    890 ****       226.2500   1.2500  46.0000 Du        
    891 ****       226.2500   1.5000  41.0000 Du        
    892 ****       226.2500   1.5000  41.2500 Du        
    893 ****       226.2500   1.5000  45.7500 Du        
    894 ****       226.2500   1.7500  41.2500 Du        
    895 ****       226.2500   2.0000  41.2500 Du        
    896 ****       226.5000  -5.2500  43.0000 Du        
    897 ****       226.5000  -5.2500  43.2500 Du        
    898 ****       226.5000  -5.0000  43.2500 Du        
    899 ****       226.5000  -0.2500  45.0000 Du        
    900 ****       226.5000  -0.2500  45.2500 Du        
    901 ****       226.5000  -0.2500  45.5000 Du        
    902 ****       226.5000   0.0000  44.7500 Du        
    903 ****       226.5000   0.0000  45.0000 Du        
    904 ****       226.5000   0.0000  45.2500 Du        
    905 ****       226.5000   0.0000  45.5000 Du        
    906 ****       226.5000   0.0000  45.7500 Du        
    907 ****       226.5000   0.0000  46.0000 Du        
    908 ****       226.5000   0.2500  44.7500 Du        
    909 ****       226.5000   0.2500  45.0000 Du        
    910 ****       226.5000   0.2500  45.2500 Du        
    911 ****       226.5000   0.2500  45.5000 Du        
    912 ****       226.5000   0.2500  45.7500 Du        
    913 ****       226.5000   0.2500  46.0000 Du        
    914 ****       226.5000   0.5000  44.7500 Du        
    915 ****       226.5000   0.5000  45.0000 Du        
    916 ****       226.5000   0.5000  45.2500 Du        
    917 ****       226.5000   0.5000  45.5000 Du        
    918 ****       226.5000   0.5000  45.7500 Du        
    919 ****       226.5000   0.5000  46.0000 Du        
    920 ****       226.5000   0.7500  44.7500 Du        
    921 ****       226.5000   0.7500  45.0000 Du        
    922 ****       226.5000   0.7500  45.2500 Du        
    923 ****       226.5000   0.7500  45.5000 Du        
    924 ****       226.5000   0.7500  45.7500 Du        
    925 ****       226.5000   0.7500  46.0000 Du        
    926 ****       226.5000   1.0000  45.0000 Du        
    927 ****       226.5000   1.0000  45.2500 Du        
    928 ****       226.5000   1.0000  45.5000 Du        
    929 ****       226.5000   1.0000  45.7500 Du        
    930 ****       226.5000   1.0000  46.0000 Du        
    931 ****       226.5000   1.2500  41.2500 Du        
    932 ****       226.5000   1.2500  45.2500 Du        
    933 ****       226.5000   1.2500  45.5000 Du        
    934 ****       226.5000   1.2500  45.7500 Du        
    935 ****       226.5000   1.2500  46.0000 Du        
    936 ****       226.5000   1.5000  41.2500 Du        
    937 ****       226.5000   1.5000  41.5000 Du        
    938 ****       226.5000   1.5000  45.5000 Du        
    939 ****       226.5000   1.5000  45.7500 Du        
    940 ****       226.5000   1.7500  41.7500 Du        
    941 ****       226.7500  -5.2500  42.7500 Du        
    942 ****       226.7500  -5.2500  43.0000 Du        
    943 ****       226.7500  -5.2500  43.2500 Du        
    944 ****       226.7500  -5.0000  43.0000 Du        
    945 ****       226.7500  -0.5000  44.7500 Du        
    946 ****       226.7500  -0.5000  45.0000 Du        
    947 ****       226.7500  -0.2500  44.5000 Du        
    948 ****       226.7500  -0.2500  44.7500 Du        
    949 ****       226.7500  -0.2500  45.0000 Du        
    950 ****       226.7500  -0.2500  45.2500 Du        
    951 ****       226.7500  -0.2500  45.5000 Du        
    952 ****       226.7500  -0.2500  45.7500 Du        
    953 ****       226.7500   0.0000  44.5000 Du        
    954 ****       226.7500   0.0000  44.7500 Du        
    955 ****       226.7500   0.0000  45.0000 Du        
    956 ****       226.7500   0.0000  45.2500 Du        
    957 ****       226.7500   0.0000  45.5000 Du        
    958 ****       226.7500   0.0000  45.7500 Du        
    959 ****       226.7500   0.0000  46.0000 Du        
    960 ****       226.7500   0.2500  44.7500 Du        
    961 ****       226.7500   0.2500  45.0000 Du        
    962 ****       226.7500   0.2500  45.2500 Du        
    963 ****       226.7500   0.2500  45.5000 Du        
    964 ****       226.7500   0.2500  45.7500 Du        
    965 ****       226.7500   0.2500  46.0000 Du        
    966 ****       226.7500   0.5000  44.5000 Du        
    967 ****       226.7500   0.5000  44.7500 Du        
    968 ****       226.7500   0.5000  45.0000 Du        
    969 ****       226.7500   0.5000  45.2500 Du        
    970 ****       226.7500   0.5000  45.5000 Du        
    971 ****       226.7500   0.5000  45.7500 Du        
    972 ****       226.7500   0.5000  46.0000 Du        
    973 ****       226.7500   0.7500  44.5000 Du        
    974 ****       226.7500   0.7500  44.7500 Du        
    975 ****       226.7500   0.7500  45.0000 Du        
    976 ****       226.7500   0.7500  45.2500 Du        
    977 ****       226.7500   0.7500  45.5000 Du        
    978 ****       226.7500   0.7500  45.7500 Du        
    979 ****       226.7500   0.7500  46.0000 Du        
    980 ****       226.7500   1.0000  44.7500 Du        
    981 ****       226.7500   1.0000  45.0000 Du        
    982 ****       226.7500   1.0000  45.2500 Du        
    983 ****       226.7500   1.0000  45.5000 Du        
    984 ****       226.7500   1.0000  45.7500 Du        
    985 ****       226.7500   1.2500  45.0000 Du        
    986 ****       226.7500   1.2500  45.2500 Du        
    987 ****       226.7500   1.2500  45.5000 Du        
    988 ****       226.7500   1.2500  45.7500 Du        
    989 ****       226.7500   1.5000  41.7500 Du        
    990 ****       226.7500   1.5000  45.0000 Du        
    991 ****       226.7500   1.5000  45.2500 Du        
    992 ****       226.7500   1.5000  45.5000 Du        
    993 ****       226.7500   1.7500  41.7500 Du        
    994 ****       226.7500   1.7500  42.0000 Du        
    995 ****       226.7500   1.7500  45.5000 Du        
    996 ****       226.7500   2.0000  41.7500 Du        
    997 ****       227.0000  -5.2500  42.7500 Du        
    998 ****       227.0000  -5.2500  43.0000 Du        
    999 ****       227.0000  -0.7500  44.5000 Du        
   1000 ****       227.0000  -0.7500  44.7500 Du        
   1001 ****       227.0000  -0.7500  45.0000 Du        
   1002 ****       227.0000  -0.5000  44.5000 Du        
   1003 ****       227.0000  -0.5000  44.7500 Du        
   1004 ****       227.0000  -0.5000  45.0000 Du        
   1005 ****       227.0000  -0.5000  45.2500 Du        
   1006 ****       227.0000  -0.5000  45.5000 Du        
   1007 ****       227.0000  -0.2500  44.5000 Du        
   1008 ****       227.0000  -0.2500  44.7500 Du        
   1009 ****       227.0000  -0.2500  45.0000 Du        
   1010 ****       227.0000  -0.2500  45.2500 Du        
   1011 ****       227.0000  -0.2500  45.5000 Du        
   1012 ****       227.0000  -0.2500  45.7500 Du        
   1013 ****       227.0000   0.0000  44.5000 Du        
   1014 ****       227.0000   0.0000  44.7500 Du        
   1015 ****       227.0000   0.0000  45.0000 Du        
   1016 ****       227.0000   0.0000  45.2500 Du        
   1017 ****       227.0000   0.0000  45.5000 Du        
   1018 ****       227.0000   0.0000  45.7500 Du        
   1019 ****       227.0000   0.0000  46.0000 Du        
   1020 ****       227.0000   0.2500  44.5000 Du        
   1021 ****       227.0000   0.2500  44.7500 Du        
   1022 ****       227.0000   0.2500  45.0000 Du        
   1023 ****       227.0000   0.2500  45.2500 Du        
   1024 ****       227.0000   0.2500  45.5000 Du        
   1025 ****       227.0000   0.2500  45.7500 Du        
   1026 ****       227.0000   0.5000  44.5000 Du        
   1027 ****       227.0000   0.5000  44.7500 Du        
   1028 ****       227.0000   0.5000  45.0000 Du        
   1029 ****       227.0000   0.5000  45.2500 Du        
   1030 ****       227.0000   0.5000  45.5000 Du        
   1031 ****       227.0000   0.5000  45.7500 Du        
   1032 ****       227.0000   0.7500  44.5000 Du        
   1033 ****       227.0000   0.7500  44.7500 Du        
   1034 ****       227.0000   0.7500  45.0000 Du        
   1035 ****       227.0000   0.7500  45.2500 Du        
   1036 ****       227.0000   0.7500  45.5000 Du        
   1037 ****       227.0000   0.7500  45.7500 Du        
   1038 ****       227.0000   1.0000  44.0000 Du        
   1039 ****       227.0000   1.0000  44.2500 Du        
   1040 ****       227.0000   1.0000  44.5000 Du        
   1041 ****       227.0000   1.0000  44.7500 Du        
   1042 ****       227.0000   1.0000  45.0000 Du        
   1043 ****       227.0000   1.0000  45.2500 Du        
   1044 ****       227.0000   1.0000  45.5000 Du        
   1045 ****       227.0000   1.2500  44.7500 Du        
   1046 ****       227.0000   1.2500  45.0000 Du        
   1047 ****       227.0000   1.2500  45.2500 Du        
   1048 ****       227.0000   1.2500  45.5000 Du        
   1049 ****       227.0000   1.5000  44.7500 Du        
   1050 ****       227.0000   1.5000  45.0000 Du        
   1051 ****       227.0000   1.5000  45.2500 Du        
   1052 ****       227.0000   1.7500  41.7500 Du        
   1053 ****       227.0000   1.7500  42.0000 Du        
   1054 ****       227.0000   1.7500  42.2500 Du        
   1055 ****       227.0000   1.7500  44.7500 Du        
   1056 ****       227.0000   1.7500  45.0000 Du        
   1057 ****       227.0000   1.7500  45.2500 Du        
   1058 ****       227.0000   2.0000  41.7500 Du        
   1059 ****       227.0000   2.0000  42.0000 Du        
   1060 ****       227.0000   2.0000  42.2500 Du        
   1061 ****       227.0000   2.2500  42.0000 Du        
   1062 ****       227.2500  -1.0000  44.5000 Du        
   1063 ****       227.2500  -1.0000  44.7500 Du        
   1064 ****       227.2500  -1.0000  45.0000 Du        
   1065 ****       227.2500  -0.7500  44.5000 Du        
   1066 ****       227.2500  -0.7500  44.7500 Du        
   1067 ****       227.2500  -0.7500  45.0000 Du        
   1068 ****       227.2500  -0.7500  45.2500 Du        
   1069 ****       227.2500  -0.7500  45.5000 Du        
   1070 ****       227.2500  -0.5000  44.5000 Du        
   1071 ****       227.2500  -0.5000  44.7500 Du        
   1072 ****       227.2500  -0.5000  45.0000 Du        
   1073 ****       227.2500  -0.5000  45.2500 Du        
   1074 ****       227.2500  -0.5000  45.5000 Du        
   1075 ****       227.2500  -0.5000  45.7500 Du        
   1076 ****       227.2500  -0.2500  44.5000 Du        
   1077 ****       227.2500  -0.2500  44.7500 Du        
   1078 ****       227.2500  -0.2500  45.0000 Du        
   1079 ****       227.2500  -0.2500  45.2500 Du        
   1080 ****       227.2500  -0.2500  45.5000 Du        
   1081 ****       227.2500  -0.2500  45.7500 Du        
   1082 ****       227.2500   0.0000  44.2500 Du        
   1083 ****       227.2500   0.0000  44.5000 Du        
   1084 ****       227.2500   0.0000  44.7500 Du        
   1085 ****       227.2500   0.0000  45.0000 Du        
   1086 ****       227.2500   0.0000  45.2500 Du        
   1087 ****       227.2500   0.0000  45.5000 Du        
   1088 ****       227.2500   0.0000  45.7500 Du        
   1089 ****       227.2500   0.2500  44.5000 Du        
   1090 ****       227.2500   0.2500  44.7500 Du        
   1091 ****       227.2500   0.2500  45.0000 Du        
   1092 ****       227.2500   0.2500  45.2500 Du        
   1093 ****       227.2500   0.2500  45.5000 Du        
   1094 ****       227.2500   0.2500  45.7500 Du        
   1095 ****       227.2500   0.5000  44.5000 Du        
   1096 ****       227.2500   0.5000  44.7500 Du        
   1097 ****       227.2500   0.5000  45.0000 Du        
   1098 ****       227.2500   0.5000  45.2500 Du        
   1099 ****       227.2500   0.5000  45.5000 Du        
   1100 ****       227.2500   0.7500  44.0000 Du        
   1101 ****       227.2500   0.7500  44.2500 Du        
   1102 ****       227.2500   0.7500  44.5000 Du        
   1103 ****       227.2500   0.7500  44.7500 Du        
   1104 ****       227.2500   0.7500  45.0000 Du        
   1105 ****       227.2500   0.7500  45.2500 Du        
   1106 ****       227.2500   0.7500  45.5000 Du        
   1107 ****       227.2500   1.0000  43.7500 Du        
   1108 ****       227.2500   1.0000  44.0000 Du        
   1109 ****       227.2500   1.0000  44.2500 Du        
   1110 ****       227.2500   1.0000  44.5000 Du        
   1111 ****       227.2500   1.0000  44.7500 Du        
   1112 ****       227.2500   1.0000  45.0000 Du        
   1113 ****       227.2500   1.0000  45.2500 Du        
   1114 ****       227.2500   1.0000  45.5000 Du        
   1115 ****       227.2500   1.2500  44.0000 Du        
   1116 ****       227.2500   1.2500  44.2500 Du        
   1117 ****       227.2500   1.2500  44.5000 Du        
   1118 ****       227.2500   1.2500  44.7500 Du        
   1119 ****       227.2500   1.2500  45.0000 Du        
   1120 ****       227.2500   1.2500  45.2500 Du        
   1121 ****       227.2500   1.5000  42.0000 Du        
   1122 ****       227.2500   1.5000  44.5000 Du        
   1123 ****       227.2500   1.5000  44.7500 Du        
   1124 ****       227.2500   1.5000  45.0000 Du        
   1125 ****       227.2500   1.7500  42.0000 Du        
   1126 ****       227.2500   1.7500  42.2500 Du        
   1127 ****       227.2500   1.7500  42.5000 Du        
   1128 ****       227.2500   1.7500  42.7500 Du        
   1129 ****       227.2500   1.7500  44.2500 Du        
   1130 ****       227.2500   1.7500  44.5000 Du        
   1131 ****       227.2500   1.7500  44.7500 Du        
   1132 ****       227.2500   1.7500  45.0000 Du        
   1133 ****       227.2500   2.0000  42.0000 Du        
   1134 ****       227.2500   2.0000  42.2500 Du        
   1135 ****       227.2500   2.0000  42.5000 Du        
   1136 ****       227.2500   2.0000  42.7500 Du        
   1137 ****       227.2500   2.0000  44.7500 Du        
   1138 ****       227.2500   2.0000  45.0000 Du        
   1139 ****       227.2500   2.0000  45.2500 Du        
   1140 ****       227.2500   2.2500  42.0000 Du        
   1141 ****       227.2500   2.2500  42.2500 Du        
   1142 ****       227.2500   2.2500  42.5000 Du        
   1143 ****       227.2500   2.5000  42.2500 Du        
   1144 ****       227.2500   7.0000  47.0000 Du        
   1145 ****       227.5000  -1.2500  44.5000 Du        
   1146 ****       227.5000  -1.2500  44.7500 Du        
   1147 ****       227.5000  -1.0000  44.2500 Du        
   1148 ****       227.5000  -1.0000  44.5000 Du        
   1149 ****       227.5000  -1.0000  44.7500 Du        
   1150 ****       227.5000  -1.0000  45.0000 Du        
   1151 ****       227.5000  -1.0000  45.2500 Du        
   1152 ****       227.5000  -1.0000  45.5000 Du        
   1153 ****       227.5000  -0.7500  44.2500 Du        
   1154 ****       227.5000  -0.7500  44.5000 Du        
   1155 ****       227.5000  -0.7500  44.7500 Du        
   1156 ****       227.5000  -0.7500  45.0000 Du        
   1157 ****       227.5000  -0.7500  45.2500 Du        
   1158 ****       227.5000  -0.7500  45.5000 Du        
   1159 ****       227.5000  -0.7500  45.7500 Du        
   1160 ****       227.5000  -0.5000  44.2500 Du        
   1161 ****       227.5000  -0.5000  44.5000 Du        
   1162 ****       227.5000  -0.5000  44.7500 Du        
   1163 ****       227.5000  -0.5000  45.0000 Du        
   1164 ****       227.5000  -0.5000  45.2500 Du        
   1165 ****       227.5000  -0.5000  45.5000 Du        
   1166 ****       227.5000  -0.5000  45.7500 Du        
   1167 ****       227.5000  -0.2500  44.2500 Du        
   1168 ****       227.5000  -0.2500  44.5000 Du        
   1169 ****       227.5000  -0.2500  44.7500 Du        
   1170 ****       227.5000  -0.2500  45.0000 Du        
   1171 ****       227.5000  -0.2500  45.2500 Du        
   1172 ****       227.5000  -0.2500  45.5000 Du        
   1173 ****       227.5000  -0.2500  45.7500 Du        
   1174 ****       227.5000  -0.2500  46.0000 Du        
   1175 ****       227.5000   0.0000  44.2500 Du        
   1176 ****       227.5000   0.0000  44.5000 Du        
   1177 ****       227.5000   0.0000  44.7500 Du        
   1178 ****       227.5000   0.0000  45.0000 Du        
   1179 ****       227.5000   0.0000  45.2500 Du        
   1180 ****       227.5000   0.0000  45.5000 Du        
   1181 ****       227.5000   0.0000  45.7500 Du        
   1182 ****       227.5000   0.2500  44.2500 Du        
   1183 ****       227.5000   0.2500  44.5000 Du        
   1184 ****       227.5000   0.2500  44.7500 Du        
   1185 ****       227.5000   0.2500  45.0000 Du        
   1186 ****       227.5000   0.2500  45.2500 Du        
   1187 ****       227.5000   0.2500  45.5000 Du        
   1188 ****       227.5000   0.2500  45.7500 Du        
   1189 ****       227.5000   0.5000  43.5000 Du        
   1190 ****       227.5000   0.5000  44.0000 Du        
   1191 ****       227.5000   0.5000  44.2500 Du        
   1192 ****       227.5000   0.5000  44.5000 Du        
   1193 ****       227.5000   0.5000  44.7500 Du        
   1194 ****       227.5000   0.5000  45.0000 Du        
   1195 ****       227.5000   0.5000  45.2500 Du        
   1196 ****       227.5000   0.5000  45.5000 Du        
   1197 ****       227.5000   0.7500  43.5000 Du        
   1198 ****       227.5000   0.7500  43.7500 Du        
   1199 ****       227.5000   0.7500  44.0000 Du        
   1200 ****       227.5000   0.7500  44.2500 Du        
   1201 ****       227.5000   0.7500  44.5000 Du        
   1202 ****       227.5000   0.7500  44.7500 Du        
   1203 ****       227.5000   0.7500  45.0000 Du        
   1204 ****       227.5000   0.7500  45.2500 Du        
   1205 ****       227.5000   0.7500  45.5000 Du        
   1206 ****       227.5000   1.0000  43.5000 Du        
   1207 ****       227.5000   1.0000  43.7500 Du        
   1208 ****       227.5000   1.0000  44.0000 Du        
   1209 ****       227.5000   1.0000  44.2500 Du        
   1210 ****       227.5000   1.0000  44.5000 Du        
   1211 ****       227.5000   1.0000  44.7500 Du        
   1212 ****       227.5000   1.0000  45.0000 Du        
   1213 ****       227.5000   1.0000  45.2500 Du        
   1214 ****       227.5000   1.2500  43.7500 Du        
   1215 ****       227.5000   1.2500  44.0000 Du        
   1216 ****       227.5000   1.2500  44.2500 Du        
   1217 ****       227.5000   1.2500  44.5000 Du        
   1218 ****       227.5000   1.2500  44.7500 Du        
   1219 ****       227.5000   1.2500  45.0000 Du        
   1220 ****       227.5000   1.2500  45.2500 Du        
   1221 ****       227.5000   1.5000  42.0000 Du        
   1222 ****       227.5000   1.5000  42.2500 Du        
   1223 ****       227.5000   1.5000  42.5000 Du        
   1224 ****       227.5000   1.5000  42.7500 Du        
   1225 ****       227.5000   1.5000  43.5000 Du        
   1226 ****       227.5000   1.5000  43.7500 Du        
   1227 ****       227.5000   1.5000  44.0000 Du        
   1228 ****       227.5000   1.5000  44.2500 Du        
   1229 ****       227.5000   1.5000  44.5000 Du        
   1230 ****       227.5000   1.5000  44.7500 Du        
   1231 ****       227.5000   1.5000  45.0000 Du        
   1232 ****       227.5000   1.7500  42.0000 Du        
   1233 ****       227.5000   1.7500  42.2500 Du        
   1234 ****       227.5000   1.7500  42.5000 Du        
   1235 ****       227.5000   1.7500  42.7500 Du        
   1236 ****       227.5000   1.7500  43.0000 Du        
   1237 ****       227.5000   1.7500  43.2500 Du        
   1238 ****       227.5000   1.7500  43.5000 Du        
   1239 ****       227.5000   1.7500  43.7500 Du        
   1240 ****       227.5000   1.7500  44.0000 Du        
   1241 ****       227.5000   1.7500  44.2500 Du        
   1242 ****       227.5000   1.7500  44.5000 Du        
   1243 ****       227.5000   1.7500  44.7500 Du        
   1244 ****       227.5000   1.7500  45.0000 Du        
   1245 ****       227.5000   2.0000  42.2500 Du        
   1246 ****       227.5000   2.0000  42.5000 Du        
   1247 ****       227.5000   2.0000  42.7500 Du        
   1248 ****       227.5000   2.0000  43.0000 Du        
   1249 ****       227.5000   2.0000  43.2500 Du        
   1250 ****       227.5000   2.0000  43.7500 Du        
   1251 ****       227.5000   2.0000  44.0000 Du        
   1252 ****       227.5000   2.0000  44.2500 Du        
   1253 ****       227.5000   2.0000  44.5000 Du        
   1254 ****       227.5000   2.0000  44.7500 Du        
   1255 ****       227.5000   2.0000  45.0000 Du        
   1256 ****       227.5000   2.0000  45.2500 Du        
   1257 ****       227.5000   2.2500  42.2500 Du        
   1258 ****       227.5000   2.2500  42.5000 Du        
   1259 ****       227.5000   2.2500  42.7500 Du        
   1260 ****       227.5000   2.2500  43.0000 Du        
   1261 ****       227.5000   2.2500  43.2500 Du        
   1262 ****       227.5000   2.2500  44.5000 Du        
   1263 ****       227.5000   2.2500  44.7500 Du        
   1264 ****       227.5000   2.2500  45.0000 Du        
   1265 ****       227.5000   2.5000  42.2500 Du        
   1266 ****       227.5000   2.5000  42.5000 Du        
   1267 ****       227.5000   2.5000  42.7500 Du        
   1268 ****       227.5000   2.5000  43.0000 Du        
   1269 ****       227.5000   2.7500  42.2500 Du        
   1270 ****       227.5000   4.5000  46.5000 Du        
   1271 ****       227.5000   4.7500  46.5000 Du        
   1272 ****       227.5000   4.7500  46.7500 Du        
   1273 ****       227.5000   5.0000  46.2500 Du        
   1274 ****       227.5000   5.0000  46.5000 Du        
   1275 ****       227.5000   5.0000  46.7500 Du        
   1276 ****       227.5000   5.2500  46.2500 Du        
   1277 ****       227.5000   5.2500  46.5000 Du        
   1278 ****       227.5000   5.2500  46.7500 Du        
   1279 ****       227.5000   5.5000  46.2500 Du        
   1280 ****       227.5000   5.5000  46.5000 Du        
   1281 ****       227.5000   5.5000  46.7500 Du        
   1282 ****       227.5000   5.5000  47.0000 Du        
   1283 ****       227.5000   5.7500  46.2500 Du        
   1284 ****       227.5000   5.7500  46.5000 Du        
   1285 ****       227.5000   5.7500  46.7500 Du        
   1286 ****       227.5000   5.7500  47.0000 Du        
   1287 ****       227.5000   6.0000  46.5000 Du        
   1288 ****       227.5000   6.0000  46.7500 Du        
   1289 ****       227.5000   6.0000  47.0000 Du        
   1290 ****       227.5000   6.2500  46.5000 Du        
   1291 ****       227.5000   6.2500  46.7500 Du        
   1292 ****       227.5000   6.2500  47.0000 Du        
   1293 ****       227.5000   6.5000  46.7500 Du        
   1294 ****       227.5000   6.5000  47.0000 Du        
   1295 ****       227.5000   6.5000  47.2500 Du        
   1296 ****       227.5000   6.7500  46.7500 Du        
   1297 ****       227.5000   6.7500  47.0000 Du        
   1298 ****       227.5000   6.7500  47.2500 Du        
   1299 ****       227.5000   7.0000  46.7500 Du        
   1300 ****       227.5000   7.0000  47.0000 Du        
   1301 ****       227.5000   7.0000  47.2500 Du        
   1302 ****       227.5000   7.2500  46.7500 Du        
   1303 ****       227.5000   7.2500  47.0000 Du        
   1304 ****       227.5000   7.2500  47.2500 Du        
   1305 ****       227.5000   7.5000  47.0000 Du        
   1306 ****       227.5000   7.5000  47.2500 Du        
   1307 ****       227.5000   7.7500  47.2500 Du        
   1308 ****       227.7500  -1.2500  44.2500 Du        
   1309 ****       227.7500  -1.2500  44.5000 Du        
   1310 ****       227.7500  -1.2500  44.7500 Du        
   1311 ****       227.7500  -1.2500  45.0000 Du        
   1312 ****       227.7500  -1.2500  45.2500 Du        
   1313 ****       227.7500  -1.0000  44.0000 Du        
   1314 ****       227.7500  -1.0000  44.2500 Du        
   1315 ****       227.7500  -1.0000  44.5000 Du        
   1316 ****       227.7500  -1.0000  44.7500 Du        
   1317 ****       227.7500  -1.0000  45.0000 Du        
   1318 ****       227.7500  -1.0000  45.2500 Du        
   1319 ****       227.7500  -1.0000  45.5000 Du        
   1320 ****       227.7500  -0.7500  44.0000 Du        
   1321 ****       227.7500  -0.7500  44.2500 Du        
   1322 ****       227.7500  -0.7500  44.5000 Du        
   1323 ****       227.7500  -0.7500  44.7500 Du        
   1324 ****       227.7500  -0.7500  45.0000 Du        
   1325 ****       227.7500  -0.7500  45.2500 Du        
   1326 ****       227.7500  -0.7500  45.5000 Du        
   1327 ****       227.7500  -0.7500  45.7500 Du        
   1328 ****       227.7500  -0.5000  44.0000 Du        
   1329 ****       227.7500  -0.5000  44.2500 Du        
   1330 ****       227.7500  -0.5000  44.5000 Du        
   1331 ****       227.7500  -0.5000  44.7500 Du        
   1332 ****       227.7500  -0.5000  45.0000 Du        
   1333 ****       227.7500  -0.5000  45.2500 Du        
   1334 ****       227.7500  -0.5000  45.5000 Du        
   1335 ****       227.7500  -0.5000  45.7500 Du        
   1336 ****       227.7500  -0.2500  44.0000 Du        
   1337 ****       227.7500  -0.2500  44.2500 Du        
   1338 ****       227.7500  -0.2500  44.5000 Du        
   1339 ****       227.7500  -0.2500  44.7500 Du        
   1340 ****       227.7500  -0.2500  45.0000 Du        
   1341 ****       227.7500  -0.2500  45.2500 Du        
   1342 ****       227.7500  -0.2500  45.5000 Du        
   1343 ****       227.7500  -0.2500  45.7500 Du        
   1344 ****       227.7500   0.0000  43.7500 Du        
   1345 ****       227.7500   0.0000  44.0000 Du        
   1346 ****       227.7500   0.0000  44.2500 Du        
   1347 ****       227.7500   0.0000  44.5000 Du        
   1348 ****       227.7500   0.0000  44.7500 Du        
   1349 ****       227.7500   0.0000  45.0000 Du        
   1350 ****       227.7500   0.0000  45.2500 Du        
   1351 ****       227.7500   0.0000  45.5000 Du        
   1352 ****       227.7500   0.0000  45.7500 Du        
   1353 ****       227.7500   0.2500  43.7500 Du        
   1354 ****       227.7500   0.2500  44.0000 Du        
   1355 ****       227.7500   0.2500  44.2500 Du        
   1356 ****       227.7500   0.2500  44.5000 Du        
   1357 ****       227.7500   0.2500  44.7500 Du        
   1358 ****       227.7500   0.2500  45.0000 Du        
   1359 ****       227.7500   0.2500  45.2500 Du        
   1360 ****       227.7500   0.2500  45.5000 Du        
   1361 ****       227.7500   0.5000  43.5000 Du        
   1362 ****       227.7500   0.5000  43.7500 Du        
   1363 ****       227.7500   0.5000  44.0000 Du        
   1364 ****       227.7500   0.5000  44.2500 Du        
   1365 ****       227.7500   0.5000  44.5000 Du        
   1366 ****       227.7500   0.5000  44.7500 Du        
   1367 ****       227.7500   0.5000  45.0000 Du        
   1368 ****       227.7500   0.5000  45.2500 Du        
   1369 ****       227.7500   0.5000  45.5000 Du        
   1370 ****       227.7500   0.7500  42.7500 Du        
   1371 ****       227.7500   0.7500  43.0000 Du        
   1372 ****       227.7500   0.7500  43.2500 Du        
   1373 ****       227.7500   0.7500  43.5000 Du        
   1374 ****       227.7500   0.7500  43.7500 Du        
   1375 ****       227.7500   0.7500  44.0000 Du        
   1376 ****       227.7500   0.7500  44.2500 Du        
   1377 ****       227.7500   0.7500  44.5000 Du        
   1378 ****       227.7500   0.7500  44.7500 Du        
   1379 ****       227.7500   0.7500  45.0000 Du        
   1380 ****       227.7500   0.7500  45.2500 Du        
   1381 ****       227.7500   1.0000  42.2500 Du        
   1382 ****       227.7500   1.0000  42.5000 Du        
   1383 ****       227.7500   1.0000  42.7500 Du        
   1384 ****       227.7500   1.0000  43.0000 Du        
   1385 ****       227.7500   1.0000  43.2500 Du        
   1386 ****       227.7500   1.0000  43.5000 Du        
   1387 ****       227.7500   1.0000  43.7500 Du        
   1388 ****       227.7500   1.0000  44.0000 Du        
   1389 ****       227.7500   1.0000  44.2500 Du        
   1390 ****       227.7500   1.0000  44.5000 Du        
   1391 ****       227.7500   1.0000  44.7500 Du        
   1392 ****       227.7500   1.0000  45.0000 Du        
   1393 ****       227.7500   1.0000  45.2500 Du        
   1394 ****       227.7500   1.2500  42.5000 Du        
   1395 ****       227.7500   1.2500  42.7500 Du        
   1396 ****       227.7500   1.2500  43.0000 Du        
   1397 ****       227.7500   1.2500  43.2500 Du        
   1398 ****       227.7500   1.2500  43.5000 Du        
   1399 ****       227.7500   1.2500  43.7500 Du        
   1400 ****       227.7500   1.2500  44.0000 Du        
   1401 ****       227.7500   1.2500  44.2500 Du        
   1402 ****       227.7500   1.2500  44.5000 Du        
   1403 ****       227.7500   1.2500  44.7500 Du        
   1404 ****       227.7500   1.2500  45.0000 Du        
   1405 ****       227.7500   1.2500  45.2500 Du        
   1406 ****       227.7500   1.5000  42.2500 Du        
   1407 ****       227.7500   1.5000  42.5000 Du        
   1408 ****       227.7500   1.5000  42.7500 Du        
   1409 ****       227.7500   1.5000  43.0000 Du        
   1410 ****       227.7500   1.5000  43.2500 Du        
   1411 ****       227.7500   1.5000  43.5000 Du        
   1412 ****       227.7500   1.5000  43.7500 Du        
   1413 ****       227.7500   1.5000  44.0000 Du        
   1414 ****       227.7500   1.5000  44.2500 Du        
   1415 ****       227.7500   1.5000  44.5000 Du        
   1416 ****       227.7500   1.5000  44.7500 Du        
   1417 ****       227.7500   1.5000  45.0000 Du        
   1418 ****       227.7500   1.7500  42.2500 Du        
   1419 ****       227.7500   1.7500  42.5000 Du        
   1420 ****       227.7500   1.7500  42.7500 Du        
   1421 ****       227.7500   1.7500  43.0000 Du        
   1422 ****       227.7500   1.7500  43.2500 Du        
   1423 ****       227.7500   1.7500  43.5000 Du        
   1424 ****       227.7500   1.7500  43.7500 Du        
   1425 ****       227.7500   1.7500  44.0000 Du        
   1426 ****       227.7500   1.7500  44.2500 Du        
   1427 ****       227.7500   1.7500  44.5000 Du        
   1428 ****       227.7500   1.7500  44.7500 Du        
   1429 ****       227.7500   1.7500  45.0000 Du        
   1430 ****       227.7500   2.0000  42.2500 Du        
   1431 ****       227.7500   2.0000  42.5000 Du        
   1432 ****       227.7500   2.0000  42.7500 Du        
   1433 ****       227.7500   2.0000  43.0000 Du        
   1434 ****       227.7500   2.0000  43.2500 Du        
   1435 ****       227.7500   2.0000  43.5000 Du        
   1436 ****       227.7500   2.0000  43.7500 Du        
   1437 ****       227.7500   2.0000  44.0000 Du        
   1438 ****       227.7500   2.0000  44.2500 Du        
   1439 ****       227.7500   2.0000  44.5000 Du        
   1440 ****       227.7500   2.0000  44.7500 Du        
   1441 ****       227.7500   2.0000  45.0000 Du        
   1442 ****       227.7500   2.2500  42.5000 Du        
   1443 ****       227.7500   2.2500  42.7500 Du        
   1444 ****       227.7500   2.2500  43.0000 Du        
   1445 ****       227.7500   2.2500  43.2500 Du        
   1446 ****       227.7500   2.2500  43.5000 Du        
   1447 ****       227.7500   2.2500  43.7500 Du        
   1448 ****       227.7500   2.2500  44.0000 Du        
   1449 ****       227.7500   2.2500  44.2500 Du        
   1450 ****       227.7500   2.2500  44.5000 Du        
   1451 ****       227.7500   2.2500  44.7500 Du        
   1452 ****       227.7500   2.2500  45.0000 Du        
   1453 ****       227.7500   2.5000  42.2500 Du        
   1454 ****       227.7500   2.5000  42.5000 Du        
   1455 ****       227.7500   2.5000  42.7500 Du        
   1456 ****       227.7500   2.5000  43.0000 Du        
   1457 ****       227.7500   2.5000  43.2500 Du        
   1458 ****       227.7500   2.5000  43.5000 Du        
   1459 ****       227.7500   2.5000  43.7500 Du        
   1460 ****       227.7500   2.5000  44.0000 Du        
   1461 ****       227.7500   2.5000  44.2500 Du        
   1462 ****       227.7500   2.5000  44.5000 Du        
   1463 ****       227.7500   2.5000  44.7500 Du        
   1464 ****       227.7500   2.5000  45.0000 Du        
   1465 ****       227.7500   2.7500  42.5000 Du        
   1466 ****       227.7500   2.7500  42.7500 Du        
   1467 ****       227.7500   2.7500  43.0000 Du        
   1468 ****       227.7500   2.7500  43.2500 Du        
   1469 ****       227.7500   2.7500  44.7500 Du        
   1470 ****       227.7500   2.7500  45.0000 Du        
   1471 ****       227.7500   3.0000  42.7500 Du        
   1472 ****       227.7500   3.0000  43.0000 Du        
   1473 ****       227.7500   4.5000  46.2500 Du        
   1474 ****       227.7500   4.7500  46.0000 Du        
   1475 ****       227.7500   4.7500  46.2500 Du        
   1476 ****       227.7500   4.7500  46.5000 Du        
   1477 ****       227.7500   5.0000  46.0000 Du        
   1478 ****       227.7500   5.0000  46.2500 Du        
   1479 ****       227.7500   5.0000  46.5000 Du        
   1480 ****       227.7500   5.0000  46.7500 Du        
   1481 ****       227.7500   5.2500  46.0000 Du        
   1482 ****       227.7500   5.2500  46.2500 Du        
   1483 ****       227.7500   5.2500  46.5000 Du        
   1484 ****       227.7500   5.2500  46.7500 Du        
   1485 ****       227.7500   5.2500  47.0000 Du        
   1486 ****       227.7500   5.5000  46.0000 Du        
   1487 ****       227.7500   5.5000  46.2500 Du        
   1488 ****       227.7500   5.5000  46.5000 Du        
   1489 ****       227.7500   5.5000  46.7500 Du        
   1490 ****       227.7500   5.5000  47.0000 Du        
   1491 ****       227.7500   5.7500  46.0000 Du        
   1492 ****       227.7500   5.7500  46.2500 Du        
   1493 ****       227.7500   5.7500  46.5000 Du        
   1494 ****       227.7500   5.7500  46.7500 Du        
   1495 ****       227.7500   5.7500  47.0000 Du        
   1496 ****       227.7500   5.7500  47.2500 Du        
   1497 ****       227.7500   6.0000  46.0000 Du        
   1498 ****       227.7500   6.0000  46.2500 Du        
   1499 ****       227.7500   6.0000  46.5000 Du        
   1500 ****       227.7500   6.0000  46.7500 Du        
   1501 ****       227.7500   6.0000  47.0000 Du        
   1502 ****       227.7500   6.0000  47.2500 Du        
   1503 ****       227.7500   6.2500  46.2500 Du        
   1504 ****       227.7500   6.2500  46.5000 Du        
   1505 ****       227.7500   6.2500  46.7500 Du        
   1506 ****       227.7500   6.2500  47.0000 Du        
   1507 ****       227.7500   6.2500  47.2500 Du        
   1508 ****       227.7500   6.2500  47.5000 Du        
   1509 ****       227.7500   6.5000  46.2500 Du        
   1510 ****       227.7500   6.5000  46.5000 Du        
   1511 ****       227.7500   6.5000  46.7500 Du        
   1512 ****       227.7500   6.5000  47.0000 Du        
   1513 ****       227.7500   6.5000  47.2500 Du        
   1514 ****       227.7500   6.5000  47.5000 Du        
   1515 ****       227.7500   6.7500  46.5000 Du        
   1516 ****       227.7500   6.7500  46.7500 Du        
   1517 ****       227.7500   6.7500  47.0000 Du        
   1518 ****       227.7500   6.7500  47.2500 Du        
   1519 ****       227.7500   6.7500  47.5000 Du        
   1520 ****       227.7500   7.0000  46.5000 Du        
   1521 ****       227.7500   7.0000  46.7500 Du        
   1522 ****       227.7500   7.0000  47.0000 Du        
   1523 ****       227.7500   7.0000  47.2500 Du        
   1524 ****       227.7500   7.0000  47.5000 Du        
   1525 ****       227.7500   7.2500  46.5000 Du        
   1526 ****       227.7500   7.2500  46.7500 Du        
   1527 ****       227.7500   7.2500  47.0000 Du        
   1528 ****       227.7500   7.2500  47.2500 Du        
   1529 ****       227.7500   7.2500  47.5000 Du        
   1530 ****       227.7500   7.5000  46.7500 Du        
   1531 ****       227.7500   7.5000  47.0000 Du        
   1532 ****       227.7500   7.5000  47.2500 Du        
   1533 ****       227.7500   7.5000  47.5000 Du        
   1534 ****       227.7500   7.7500  46.7500 Du        
   1535 ****       227.7500   7.7500  47.0000 Du        
   1536 ****       227.7500   7.7500  47.2500 Du        
   1537 ****       227.7500   7.7500  47.5000 Du        
   1538 ****       227.7500   8.0000  47.0000 Du        
   1539 ****       227.7500   8.0000  47.2500 Du        
   1540 ****       227.7500   8.2500  47.2500 Du        
   1541 ****       228.0000  -1.2500  44.0000 Du        
   1542 ****       228.0000  -1.2500  44.2500 Du        
   1543 ****       228.0000  -1.2500  44.5000 Du        
   1544 ****       228.0000  -1.2500  44.7500 Du        
   1545 ****       228.0000  -1.2500  45.0000 Du        
   1546 ****       228.0000  -1.0000  43.7500 Du        
   1547 ****       228.0000  -1.0000  44.0000 Du        
   1548 ****       228.0000  -1.0000  44.2500 Du        
   1549 ****       228.0000  -1.0000  44.5000 Du        
   1550 ****       228.0000  -1.0000  44.7500 Du        
   1551 ****       228.0000  -1.0000  45.0000 Du        
   1552 ****       228.0000  -1.0000  45.2500 Du        
   1553 ****       228.0000  -1.0000  45.5000 Du        
   1554 ****       228.0000  -0.7500  44.0000 Du        
   1555 ****       228.0000  -0.7500  44.2500 Du        
   1556 ****       228.0000  -0.7500  44.5000 Du        
   1557 ****       228.0000  -0.7500  44.7500 Du        
   1558 ****       228.0000  -0.7500  45.0000 Du        
   1559 ****       228.0000  -0.7500  45.2500 Du        
   1560 ****       228.0000  -0.7500  45.5000 Du        
   1561 ****       228.0000  -0.7500  45.7500 Du        
   1562 ****       228.0000  -0.5000  43.5000 Du        
   1563 ****       228.0000  -0.5000  43.7500 Du        
   1564 ****       228.0000  -0.5000  44.0000 Du        
   1565 ****       228.0000  -0.5000  44.2500 Du        
   1566 ****       228.0000  -0.5000  44.5000 Du        
   1567 ****       228.0000  -0.5000  44.7500 Du        
   1568 ****       228.0000  -0.5000  45.0000 Du        
   1569 ****       228.0000  -0.5000  45.2500 Du        
   1570 ****       228.0000  -0.5000  45.5000 Du        
   1571 ****       228.0000  -0.5000  45.7500 Du        
   1572 ****       228.0000  -0.2500  43.7500 Du        
   1573 ****       228.0000  -0.2500  44.0000 Du        
   1574 ****       228.0000  -0.2500  44.2500 Du        
   1575 ****       228.0000  -0.2500  44.5000 Du        
   1576 ****       228.0000  -0.2500  44.7500 Du        
   1577 ****       228.0000  -0.2500  45.0000 Du        
   1578 ****       228.0000  -0.2500  45.2500 Du        
   1579 ****       228.0000  -0.2500  45.5000 Du        
   1580 ****       228.0000  -0.2500  45.7500 Du        
   1581 ****       228.0000   0.0000  43.5000 Du        
   1582 ****       228.0000   0.0000  43.7500 Du        
   1583 ****       228.0000   0.0000  44.0000 Du        
   1584 ****       228.0000   0.0000  44.2500 Du        
   1585 ****       228.0000   0.0000  44.5000 Du        
   1586 ****       228.0000   0.0000  44.7500 Du        
   1587 ****       228.0000   0.0000  45.0000 Du        
   1588 ****       228.0000   0.0000  45.2500 Du        
   1589 ****       228.0000   0.0000  45.5000 Du        
   1590 ****       228.0000   0.0000  45.7500 Du        
   1591 ****       228.0000   0.2500  42.0000 Du        
   1592 ****       228.0000   0.2500  43.5000 Du        
   1593 ****       228.0000   0.2500  43.7500 Du        
   1594 ****       228.0000   0.2500  44.0000 Du        
   1595 ****       228.0000   0.2500  44.2500 Du        
   1596 ****       228.0000   0.2500  44.5000 Du        
   1597 ****       228.0000   0.2500  44.7500 Du        
   1598 ****       228.0000   0.2500  45.0000 Du        
   1599 ****       228.0000   0.2500  45.2500 Du        
   1600 ****       228.0000   0.2500  45.5000 Du        
   1601 ****       228.0000   0.5000  43.5000 Du        
   1602 ****       228.0000   0.5000  43.7500 Du        
   1603 ****       228.0000   0.5000  44.0000 Du        
   1604 ****       228.0000   0.5000  44.2500 Du        
   1605 ****       228.0000   0.5000  44.5000 Du        
   1606 ****       228.0000   0.5000  44.7500 Du        
   1607 ****       228.0000   0.5000  45.0000 Du        
   1608 ****       228.0000   0.5000  45.2500 Du        
   1609 ****       228.0000   0.5000  45.5000 Du        
   1610 ****       228.0000   0.7500  42.7500 Du        
   1611 ****       228.0000   0.7500  43.0000 Du        
   1612 ****       228.0000   0.7500  43.2500 Du        
   1613 ****       228.0000   0.7500  43.5000 Du        
   1614 ****       228.0000   0.7500  43.7500 Du        
   1615 ****       228.0000   0.7500  44.0000 Du        
   1616 ****       228.0000   0.7500  44.2500 Du        
   1617 ****       228.0000   0.7500  44.5000 Du        
   1618 ****       228.0000   0.7500  44.7500 Du        
   1619 ****       228.0000   0.7500  45.0000 Du        
   1620 ****       228.0000   0.7500  45.2500 Du        
   1621 ****       228.0000   1.0000  42.2500 Du        
   1622 ****       228.0000   1.0000  42.5000 Du        
   1623 ****       228.0000   1.0000  42.7500 Du        
   1624 ****       228.0000   1.0000  43.0000 Du        
   1625 ****       228.0000   1.0000  43.2500 Du        
   1626 ****       228.0000   1.0000  43.5000 Du        
   1627 ****       228.0000   1.0000  43.7500 Du        
   1628 ****       228.0000   1.0000  44.0000 Du        
   1629 ****       228.0000   1.0000  44.2500 Du        
   1630 ****       228.0000   1.0000  44.5000 Du        
   1631 ****       228.0000   1.0000  44.7500 Du        
   1632 ****       228.0000   1.0000  45.0000 Du        
   1633 ****       228.0000   1.0000  45.2500 Du        
   1634 ****       228.0000   1.2500  42.5000 Du        
   1635 ****       228.0000   1.2500  42.7500 Du        
   1636 ****       228.0000   1.2500  43.0000 Du        
   1637 ****       228.0000   1.2500  43.2500 Du        
   1638 ****       228.0000   1.2500  43.5000 Du        
   1639 ****       228.0000   1.2500  43.7500 Du        
   1640 ****       228.0000   1.2500  44.0000 Du        
   1641 ****       228.0000   1.2500  44.2500 Du        
   1642 ****       228.0000   1.2500  44.5000 Du        
   1643 ****       228.0000   1.2500  44.7500 Du        
   1644 ****       228.0000   1.2500  45.0000 Du        
   1645 ****       228.0000   1.5000  42.2500 Du        
   1646 ****       228.0000   1.5000  42.5000 Du        
   1647 ****       228.0000   1.5000  42.7500 Du        
   1648 ****       228.0000   1.5000  43.0000 Du        
   1649 ****       228.0000   1.5000  43.2500 Du        
   1650 ****       228.0000   1.5000  43.5000 Du        
   1651 ****       228.0000   1.5000  43.7500 Du        
   1652 ****       228.0000   1.5000  44.0000 Du        
   1653 ****       228.0000   1.5000  44.2500 Du        
   1654 ****       228.0000   1.5000  44.5000 Du        
   1655 ****       228.0000   1.5000  44.7500 Du        
   1656 ****       228.0000   1.5000  45.0000 Du        
   1657 ****       228.0000   1.7500  42.5000 Du        
   1658 ****       228.0000   1.7500  42.7500 Du        
   1659 ****       228.0000   1.7500  43.0000 Du        
   1660 ****       228.0000   1.7500  43.2500 Du        
   1661 ****       228.0000   1.7500  43.5000 Du        
   1662 ****       228.0000   1.7500  43.7500 Du        
   1663 ****       228.0000   1.7500  44.0000 Du        
   1664 ****       228.0000   1.7500  44.2500 Du        
   1665 ****       228.0000   1.7500  44.5000 Du        
   1666 ****       228.0000   1.7500  44.7500 Du        
   1667 ****       228.0000   1.7500  45.0000 Du        
   1668 ****       228.0000   2.0000  42.5000 Du        
   1669 ****       228.0000   2.0000  42.7500 Du        
   1670 ****       228.0000   2.0000  43.0000 Du        
   1671 ****       228.0000   2.0000  43.2500 Du        
   1672 ****       228.0000   2.0000  43.5000 Du        
   1673 ****       228.0000   2.0000  43.7500 Du        
   1674 ****       228.0000   2.0000  44.0000 Du        
   1675 ****       228.0000   2.0000  44.2500 Du        
   1676 ****       228.0000   2.0000  44.5000 Du        
   1677 ****       228.0000   2.0000  44.7500 Du        
   1678 ****       228.0000   2.0000  45.0000 Du        
   1679 ****       228.0000   2.2500  42.5000 Du        
   1680 ****       228.0000   2.2500  42.7500 Du        
   1681 ****       228.0000   2.2500  43.0000 Du        
   1682 ****       228.0000   2.2500  43.2500 Du        
   1683 ****       228.0000   2.2500  43.5000 Du        
   1684 ****       228.0000   2.2500  43.7500 Du        
   1685 ****       228.0000   2.2500  44.0000 Du        
   1686 ****       228.0000   2.2500  44.2500 Du        
   1687 ****       228.0000   2.2500  44.5000 Du        
   1688 ****       228.0000   2.2500  44.7500 Du        
   1689 ****       228.0000   2.2500  45.0000 Du        
   1690 ****       228.0000   2.5000  42.7500 Du        
   1691 ****       228.0000   2.5000  43.0000 Du        
   1692 ****       228.0000   2.5000  43.2500 Du        
   1693 ****       228.0000   2.5000  43.5000 Du        
   1694 ****       228.0000   2.5000  43.7500 Du        
   1695 ****       228.0000   2.5000  44.0000 Du        
   1696 ****       228.0000   2.5000  44.2500 Du        
   1697 ****       228.0000   2.5000  44.5000 Du        
   1698 ****       228.0000   2.5000  44.7500 Du        
   1699 ****       228.0000   2.5000  45.0000 Du        
   1700 ****       228.0000   2.7500  42.7500 Du        
   1701 ****       228.0000   2.7500  43.0000 Du        
   1702 ****       228.0000   2.7500  43.2500 Du        
   1703 ****       228.0000   2.7500  43.5000 Du        
   1704 ****       228.0000   2.7500  43.7500 Du        
   1705 ****       228.0000   2.7500  44.0000 Du        
   1706 ****       228.0000   2.7500  44.2500 Du        
   1707 ****       228.0000   2.7500  44.5000 Du        
   1708 ****       228.0000   2.7500  44.7500 Du        
   1709 ****       228.0000   2.7500  45.0000 Du        
   1710 ****       228.0000   2.7500  45.2500 Du        
   1711 ****       228.0000   3.0000  42.7500 Du        
   1712 ****       228.0000   3.0000  43.0000 Du        
   1713 ****       228.0000   3.0000  43.2500 Du        
   1714 ****       228.0000   3.0000  43.5000 Du        
   1715 ****       228.0000   3.0000  43.7500 Du        
   1716 ****       228.0000   3.0000  44.0000 Du        
   1717 ****       228.0000   3.0000  44.2500 Du        
   1718 ****       228.0000   3.0000  44.5000 Du        
   1719 ****       228.0000   3.0000  44.7500 Du        
   1720 ****       228.0000   3.0000  45.0000 Du        
   1721 ****       228.0000   3.0000  45.2500 Du        
   1722 ****       228.0000   3.2500  43.0000 Du        
   1723 ****       228.0000   3.2500  43.2500 Du        
   1724 ****       228.0000   3.2500  45.0000 Du        
   1725 ****       228.0000   4.5000  46.0000 Du        
   1726 ****       228.0000   4.7500  45.7500 Du        
   1727 ****       228.0000   4.7500  46.0000 Du        
   1728 ****       228.0000   4.7500  46.2500 Du        
   1729 ****       228.0000   5.0000  45.7500 Du        
   1730 ****       228.0000   5.0000  46.0000 Du        
   1731 ****       228.0000   5.0000  46.2500 Du        
   1732 ****       228.0000   5.2500  45.5000 Du        
   1733 ****       228.0000   5.2500  45.7500 Du        
   1734 ****       228.0000   5.2500  46.0000 Du        
   1735 ****       228.0000   5.2500  46.2500 Du        
   1736 ****       228.0000   5.2500  46.5000 Du        
   1737 ****       228.0000   5.5000  45.5000 Du        
   1738 ****       228.0000   5.5000  45.7500 Du        
   1739 ****       228.0000   5.5000  46.0000 Du        
   1740 ****       228.0000   5.5000  46.2500 Du        
   1741 ****       228.0000   5.5000  46.5000 Du        
   1742 ****       228.0000   5.5000  46.7500 Du        
   1743 ****       228.0000   5.5000  47.0000 Du        
   1744 ****       228.0000   5.7500  45.5000 Du        
   1745 ****       228.0000   5.7500  45.7500 Du        
   1746 ****       228.0000   5.7500  46.0000 Du        
   1747 ****       228.0000   5.7500  46.2500 Du        
   1748 ****       228.0000   5.7500  46.5000 Du        
   1749 ****       228.0000   5.7500  46.7500 Du        
   1750 ****       228.0000   5.7500  47.0000 Du        
   1751 ****       228.0000   5.7500  47.2500 Du        
   1752 ****       228.0000   6.0000  45.7500 Du        
   1753 ****       228.0000   6.0000  46.0000 Du        
   1754 ****       228.0000   6.0000  46.2500 Du        
   1755 ****       228.0000   6.0000  46.5000 Du        
   1756 ****       228.0000   6.0000  46.7500 Du        
   1757 ****       228.0000   6.0000  47.0000 Du        
   1758 ****       228.0000   6.0000  47.2500 Du        
   1759 ****       228.0000   6.0000  47.5000 Du        
   1760 ****       228.0000   6.0000  47.7500 Du        
   1761 ****       228.0000   6.2500  45.7500 Du        
   1762 ****       228.0000   6.2500  46.0000 Du        
   1763 ****       228.0000   6.2500  46.2500 Du        
   1764 ****       228.0000   6.2500  46.5000 Du        
   1765 ****       228.0000   6.2500  46.7500 Du        
   1766 ****       228.0000   6.2500  47.0000 Du        
   1767 ****       228.0000   6.2500  47.2500 Du        
   1768 ****       228.0000   6.2500  47.5000 Du        
   1769 ****       228.0000   6.2500  47.7500 Du        
   1770 ****       228.0000   6.5000  46.0000 Du        
   1771 ****       228.0000   6.5000  46.2500 Du        
   1772 ****       228.0000   6.5000  46.5000 Du        
   1773 ****       228.0000   6.5000  46.7500 Du        
   1774 ****       228.0000   6.5000  47.0000 Du        
   1775 ****       228.0000   6.5000  47.2500 Du        
   1776 ****       228.0000   6.5000  47.5000 Du        
   1777 ****       228.0000   6.5000  47.7500 Du        
   1778 ****       228.0000   6.7500  46.2500 Du        
   1779 ****       228.0000   6.7500  46.5000 Du        
   1780 ****       228.0000   6.7500  46.7500 Du        
   1781 ****       228.0000   6.7500  47.0000 Du        
   1782 ****       228.0000   6.7500  47.2500 Du        
   1783 ****       228.0000   6.7500  47.5000 Du        
   1784 ****       228.0000   6.7500  47.7500 Du        
   1785 ****       228.0000   7.0000  46.2500 Du        
   1786 ****       228.0000   7.0000  46.5000 Du        
   1787 ****       228.0000   7.0000  46.7500 Du        
   1788 ****       228.0000   7.0000  47.0000 Du        
   1789 ****       228.0000   7.0000  47.2500 Du        
   1790 ****       228.0000   7.0000  47.5000 Du        
   1791 ****       228.0000   7.0000  47.7500 Du        
   1792 ****       228.0000   7.2500  46.2500 Du        
   1793 ****       228.0000   7.2500  46.5000 Du        
   1794 ****       228.0000   7.2500  46.7500 Du        
   1795 ****       228.0000   7.2500  47.0000 Du        
   1796 ****       228.0000   7.2500  47.2500 Du        
   1797 ****       228.0000   7.2500  47.5000 Du        
   1798 ****       228.0000   7.5000  46.2500 Du        
   1799 ****       228.0000   7.5000  46.5000 Du        
   1800 ****       228.0000   7.5000  46.7500 Du        
   1801 ****       228.0000   7.5000  47.0000 Du        
   1802 ****       228.0000   7.5000  47.2500 Du        
   1803 ****       228.0000   7.5000  47.5000 Du        
   1804 ****       228.0000   7.7500  46.5000 Du        
   1805 ****       228.0000   7.7500  46.7500 Du        
   1806 ****       228.0000   7.7500  47.0000 Du        
   1807 ****       228.0000   7.7500  47.2500 Du        
   1808 ****       228.0000   7.7500  47.5000 Du        
   1809 ****       228.0000   8.0000  46.5000 Du        
   1810 ****       228.0000   8.0000  46.7500 Du        
   1811 ****       228.0000   8.0000  47.0000 Du        
   1812 ****       228.0000   8.0000  47.2500 Du        
   1813 ****       228.0000   8.0000  47.5000 Du        
   1814 ****       228.0000   8.2500  46.7500 Du        
   1815 ****       228.0000   8.2500  47.0000 Du        
   1816 ****       228.0000   8.2500  47.2500 Du        
   1817 ****       228.0000   8.2500  47.5000 Du        
   1818 ****       228.0000   8.5000  47.0000 Du        
   1819 ****       228.0000   8.5000  47.2500 Du        
   1820 ****       228.0000   8.5000  47.5000 Du        
   1821 ****       228.0000   8.7500  47.2500 Du        
   1822 ****       228.2500  -2.0000  39.5000 Du        
   1823 ****       228.2500  -1.7500  39.7500 Du        
   1824 ****       228.2500  -1.2500  44.0000 Du        
   1825 ****       228.2500  -1.2500  44.2500 Du        
   1826 ****       228.2500  -1.2500  44.5000 Du        
   1827 ****       228.2500  -1.2500  44.7500 Du        
   1828 ****       228.2500  -1.0000  43.7500 Du        
   1829 ****       228.2500  -1.0000  44.0000 Du        
   1830 ****       228.2500  -1.0000  44.2500 Du        
   1831 ****       228.2500  -1.0000  44.5000 Du        
   1832 ****       228.2500  -1.0000  44.7500 Du        
   1833 ****       228.2500  -1.0000  45.0000 Du        
   1834 ****       228.2500  -1.0000  45.2500 Du        
   1835 ****       228.2500  -1.0000  45.5000 Du        
   1836 ****       228.2500  -0.7500  43.7500 Du        
   1837 ****       228.2500  -0.7500  44.0000 Du        
   1838 ****       228.2500  -0.7500  44.2500 Du        
   1839 ****       228.2500  -0.7500  44.5000 Du        
   1840 ****       228.2500  -0.7500  44.7500 Du        
   1841 ****       228.2500  -0.7500  45.0000 Du        
   1842 ****       228.2500  -0.7500  45.2500 Du        
   1843 ****       228.2500  -0.7500  45.5000 Du        
   1844 ****       228.2500  -0.7500  45.7500 Du        
   1845 ****       228.2500  -0.5000  43.5000 Du        
   1846 ****       228.2500  -0.5000  43.7500 Du        
   1847 ****       228.2500  -0.5000  44.0000 Du        
   1848 ****       228.2500  -0.5000  44.2500 Du        
   1849 ****       228.2500  -0.5000  44.5000 Du        
   1850 ****       228.2500  -0.5000  44.7500 Du        
   1851 ****       228.2500  -0.5000  45.0000 Du        
   1852 ****       228.2500  -0.5000  45.2500 Du        
   1853 ****       228.2500  -0.5000  45.5000 Du        
   1854 ****       228.2500  -0.5000  45.7500 Du        
   1855 ****       228.2500  -0.2500  43.5000 Du        
   1856 ****       228.2500  -0.2500  43.7500 Du        
   1857 ****       228.2500  -0.2500  44.0000 Du        
   1858 ****       228.2500  -0.2500  44.2500 Du        
   1859 ****       228.2500  -0.2500  44.5000 Du        
   1860 ****       228.2500  -0.2500  44.7500 Du        
   1861 ****       228.2500  -0.2500  45.0000 Du        
   1862 ****       228.2500  -0.2500  45.2500 Du        
   1863 ****       228.2500  -0.2500  45.5000 Du        
   1864 ****       228.2500  -0.2500  45.7500 Du        
   1865 ****       228.2500   0.0000  41.7500 Du        
   1866 ****       228.2500   0.0000  42.0000 Du        
   1867 ****       228.2500   0.0000  43.5000 Du        
   1868 ****       228.2500   0.0000  43.7500 Du        
   1869 ****       228.2500   0.0000  44.0000 Du        
   1870 ****       228.2500   0.0000  44.2500 Du        
   1871 ****       228.2500   0.0000  44.5000 Du        
   1872 ****       228.2500   0.0000  44.7500 Du        
   1873 ****       228.2500   0.0000  45.0000 Du        
   1874 ****       228.2500   0.0000  45.2500 Du        
   1875 ****       228.2500   0.0000  45.5000 Du        
   1876 ****       228.2500   0.0000  45.7500 Du        
   1877 ****       228.2500   0.2500  42.0000 Du        
   1878 ****       228.2500   0.2500  43.2500 Du        
   1879 ****       228.2500   0.2500  43.5000 Du        
   1880 ****       228.2500   0.2500  43.7500 Du        
   1881 ****       228.2500   0.2500  44.0000 Du        
   1882 ****       228.2500   0.2500  44.2500 Du        
   1883 ****       228.2500   0.2500  44.5000 Du        
   1884 ****       228.2500   0.2500  44.7500 Du        
   1885 ****       228.2500   0.2500  45.0000 Du        
   1886 ****       228.2500   0.2500  45.2500 Du        
   1887 ****       228.2500   0.2500  45.5000 Du        
   1888 ****       228.2500   0.5000  42.7500 Du        
   1889 ****       228.2500   0.5000  43.0000 Du        
   1890 ****       228.2500   0.5000  43.2500 Du        
   1891 ****       228.2500   0.5000  43.5000 Du        
   1892 ****       228.2500   0.5000  43.7500 Du        
   1893 ****       228.2500   0.5000  44.0000 Du        
   1894 ****       228.2500   0.5000  44.2500 Du        
   1895 ****       228.2500   0.5000  44.5000 Du        
   1896 ****       228.2500   0.5000  44.7500 Du        
   1897 ****       228.2500   0.5000  45.0000 Du        
   1898 ****       228.2500   0.5000  45.2500 Du        
   1899 ****       228.2500   0.5000  45.5000 Du        
   1900 ****       228.2500   0.7500  42.2500 Du        
   1901 ****       228.2500   0.7500  42.5000 Du        
   1902 ****       228.2500   0.7500  42.7500 Du        
   1903 ****       228.2500   0.7500  43.0000 Du        
   1904 ****       228.2500   0.7500  43.2500 Du        
   1905 ****       228.2500   0.7500  43.5000 Du        
   1906 ****       228.2500   0.7500  43.7500 Du        
   1907 ****       228.2500   0.7500  44.0000 Du        
   1908 ****       228.2500   0.7500  44.2500 Du        
   1909 ****       228.2500   0.7500  44.5000 Du        
   1910 ****       228.2500   0.7500  44.7500 Du        
   1911 ****       228.2500   0.7500  45.0000 Du        
   1912 ****       228.2500   0.7500  45.2500 Du        
   1913 ****       228.2500   1.0000  42.5000 Du        
   1914 ****       228.2500   1.0000  42.7500 Du        
   1915 ****       228.2500   1.0000  43.0000 Du        
   1916 ****       228.2500   1.0000  43.2500 Du        
   1917 ****       228.2500   1.0000  43.5000 Du        
   1918 ****       228.2500   1.0000  43.7500 Du        
   1919 ****       228.2500   1.0000  44.0000 Du        
   1920 ****       228.2500   1.0000  44.2500 Du        
   1921 ****       228.2500   1.0000  44.5000 Du        
   1922 ****       228.2500   1.0000  44.7500 Du        
   1923 ****       228.2500   1.0000  45.0000 Du        
   1924 ****       228.2500   1.0000  45.2500 Du        
   1925 ****       228.2500   1.2500  42.7500 Du        
   1926 ****       228.2500   1.2500  43.0000 Du        
   1927 ****       228.2500   1.2500  43.2500 Du        
   1928 ****       228.2500   1.2500  43.5000 Du        
   1929 ****       228.2500   1.2500  43.7500 Du        
   1930 ****       228.2500   1.2500  44.0000 Du        
   1931 ****       228.2500   1.2500  44.2500 Du        
   1932 ****       228.2500   1.2500  44.5000 Du        
   1933 ****       228.2500   1.2500  44.7500 Du        
   1934 ****       228.2500   1.2500  45.0000 Du        
   1935 ****       228.2500   1.5000  42.7500 Du        
   1936 ****       228.2500   1.5000  43.0000 Du        
   1937 ****       228.2500   1.5000  43.2500 Du        
   1938 ****       228.2500   1.5000  43.5000 Du        
   1939 ****       228.2500   1.5000  43.7500 Du        
   1940 ****       228.2500   1.5000  44.0000 Du        
   1941 ****       228.2500   1.5000  44.2500 Du        
   1942 ****       228.2500   1.5000  44.5000 Du        
   1943 ****       228.2500   1.5000  44.7500 Du        
   1944 ****       228.2500   1.5000  45.0000 Du        
   1945 ****       228.2500   1.7500  42.7500 Du        
   1946 ****       228.2500   1.7500  43.0000 Du        
   1947 ****       228.2500   1.7500  43.2500 Du        
   1948 ****       228.2500   1.7500  43.5000 Du        
   1949 ****       228.2500   1.7500  43.7500 Du        
   1950 ****       228.2500   1.7500  44.0000 Du        
   1951 ****       228.2500   1.7500  44.2500 Du        
   1952 ****       228.2500   1.7500  44.5000 Du        
   1953 ****       228.2500   1.7500  44.7500 Du        
   1954 ****       228.2500   1.7500  45.0000 Du        
   1955 ****       228.2500   2.0000  42.7500 Du        
   1956 ****       228.2500   2.0000  43.0000 Du        
   1957 ****       228.2500   2.0000  43.2500 Du        
   1958 ****       228.2500   2.0000  43.5000 Du        
   1959 ****       228.2500   2.0000  43.7500 Du        
   1960 ****       228.2500   2.0000  44.0000 Du        
   1961 ****       228.2500   2.0000  44.2500 Du        
   1962 ****       228.2500   2.0000  44.5000 Du        
   1963 ****       228.2500   2.0000  44.7500 Du        
   1964 ****       228.2500   2.0000  45.0000 Du        
   1965 ****       228.2500   2.2500  42.7500 Du        
   1966 ****       228.2500   2.2500  43.0000 Du        
   1967 ****       228.2500   2.2500  43.2500 Du        
   1968 ****       228.2500   2.2500  43.5000 Du        
   1969 ****       228.2500   2.2500  43.7500 Du        
   1970 ****       228.2500   2.2500  44.0000 Du        
   1971 ****       228.2500   2.2500  44.2500 Du        
   1972 ****       228.2500   2.2500  44.5000 Du        
   1973 ****       228.2500   2.2500  44.7500 Du        
   1974 ****       228.2500   2.2500  45.0000 Du        
   1975 ****       228.2500   2.5000  43.0000 Du        
   1976 ****       228.2500   2.5000  43.2500 Du        
   1977 ****       228.2500   2.5000  43.5000 Du        
   1978 ****       228.2500   2.5000  43.7500 Du        
   1979 ****       228.2500   2.5000  44.0000 Du        
   1980 ****       228.2500   2.5000  44.2500 Du        
   1981 ****       228.2500   2.5000  44.5000 Du        
   1982 ****       228.2500   2.5000  44.7500 Du        
   1983 ****       228.2500   2.5000  45.0000 Du        
   1984 ****       228.2500   2.7500  43.0000 Du        
   1985 ****       228.2500   2.7500  43.2500 Du        
   1986 ****       228.2500   2.7500  43.5000 Du        
   1987 ****       228.2500   2.7500  43.7500 Du        
   1988 ****       228.2500   2.7500  44.0000 Du        
   1989 ****       228.2500   2.7500  44.2500 Du        
   1990 ****       228.2500   2.7500  44.5000 Du        
   1991 ****       228.2500   2.7500  44.7500 Du        
   1992 ****       228.2500   2.7500  45.0000 Du        
   1993 ****       228.2500   3.0000  43.0000 Du        
   1994 ****       228.2500   3.0000  43.2500 Du        
   1995 ****       228.2500   3.0000  43.5000 Du        
   1996 ****       228.2500   3.0000  43.7500 Du        
   1997 ****       228.2500   3.0000  44.0000 Du        
   1998 ****       228.2500   3.0000  44.2500 Du        
   1999 ****       228.2500   3.0000  44.5000 Du        
   2000 ****       228.2500   3.0000  44.7500 Du        
   2001 ****       228.2500   3.0000  45.0000 Du        
   2002 ****       228.2500   3.0000  45.2500 Du        
   2003 ****       228.2500   3.2500  43.2500 Du        
   2004 ****       228.2500   3.2500  43.5000 Du        
   2005 ****       228.2500   3.2500  43.7500 Du        
   2006 ****       228.2500   3.2500  44.0000 Du        
   2007 ****       228.2500   3.2500  44.2500 Du        
   2008 ****       228.2500   3.2500  44.5000 Du        
   2009 ****       228.2500   3.2500  44.7500 Du        
   2010 ****       228.2500   3.2500  45.0000 Du        
   2011 ****       228.2500   3.2500  45.2500 Du        
   2012 ****       228.2500   3.5000  43.2500 Du        
   2013 ****       228.2500   3.5000  43.5000 Du        
   2014 ****       228.2500   3.5000  43.7500 Du        
   2015 ****       228.2500   3.5000  44.0000 Du        
   2016 ****       228.2500   3.5000  44.2500 Du        
   2017 ****       228.2500   3.5000  44.5000 Du        
   2018 ****       228.2500   3.5000  44.7500 Du        
   2019 ****       228.2500   3.5000  45.0000 Du        
   2020 ****       228.2500   3.7500  43.5000 Du        
   2021 ****       228.2500   3.7500  43.7500 Du        
   2022 ****       228.2500   3.7500  44.0000 Du        
   2023 ****       228.2500   3.7500  44.2500 Du        
   2024 ****       228.2500   3.7500  44.7500 Du        
   2025 ****       228.2500   3.7500  45.0000 Du        
   2026 ****       228.2500   3.7500  45.2500 Du        
   2027 ****       228.2500   4.0000  45.0000 Du        
   2028 ****       228.2500   4.0000  45.2500 Du        
   2029 ****       228.2500   4.2500  45.2500 Du        
   2030 ****       228.2500   4.5000  45.2500 Du        
   2031 ****       228.2500   4.5000  45.5000 Du        
   2032 ****       228.2500   4.7500  45.0000 Du        
   2033 ****       228.2500   4.7500  45.2500 Du        
   2034 ****       228.2500   4.7500  45.5000 Du        
   2035 ****       228.2500   4.7500  45.7500 Du        
   2036 ****       228.2500   5.0000  44.7500 Du        
   2037 ****       228.2500   5.0000  45.0000 Du        
   2038 ****       228.2500   5.0000  45.2500 Du        
   2039 ****       228.2500   5.0000  45.5000 Du        
   2040 ****       228.2500   5.0000  45.7500 Du        
   2041 ****       228.2500   5.0000  46.0000 Du        
   2042 ****       228.2500   5.2500  44.7500 Du        
   2043 ****       228.2500   5.2500  45.0000 Du        
   2044 ****       228.2500   5.2500  45.2500 Du        
   2045 ****       228.2500   5.2500  45.5000 Du        
   2046 ****       228.2500   5.2500  45.7500 Du        
   2047 ****       228.2500   5.2500  46.0000 Du        
   2048 ****       228.2500   5.2500  46.2500 Du        
   2049 ****       228.2500   5.5000  44.2500 Du        
   2050 ****       228.2500   5.5000  44.5000 Du        
   2051 ****       228.2500   5.5000  44.7500 Du        
   2052 ****       228.2500   5.5000  45.0000 Du        
   2053 ****       228.2500   5.5000  45.2500 Du        
   2054 ****       228.2500   5.5000  45.5000 Du        
   2055 ****       228.2500   5.5000  45.7500 Du        
   2056 ****       228.2500   5.5000  46.0000 Du        
   2057 ****       228.2500   5.5000  46.2500 Du        
   2058 ****       228.2500   5.5000  46.5000 Du        
   2059 ****       228.2500   5.7500  44.7500 Du        
   2060 ****       228.2500   5.7500  45.0000 Du        
   2061 ****       228.2500   5.7500  45.2500 Du        
   2062 ****       228.2500   5.7500  45.5000 Du        
   2063 ****       228.2500   5.7500  45.7500 Du        
   2064 ****       228.2500   5.7500  46.0000 Du        
   2065 ****       228.2500   5.7500  46.2500 Du        
   2066 ****       228.2500   5.7500  46.5000 Du        
   2067 ****       228.2500   5.7500  46.7500 Du        
   2068 ****       228.2500   5.7500  47.0000 Du        
   2069 ****       228.2500   6.0000  45.0000 Du        
   2070 ****       228.2500   6.0000  45.2500 Du        
   2071 ****       228.2500   6.0000  45.5000 Du        
   2072 ****       228.2500   6.0000  45.7500 Du        
   2073 ****       228.2500   6.0000  46.0000 Du        
   2074 ****       228.2500   6.0000  46.2500 Du        
   2075 ****       228.2500   6.0000  46.5000 Du        
   2076 ****       228.2500   6.0000  46.7500 Du        
   2077 ****       228.2500   6.0000  47.0000 Du        
   2078 ****       228.2500   6.0000  47.2500 Du        
   2079 ****       228.2500   6.0000  47.5000 Du        
   2080 ****       228.2500   6.2500  45.2500 Du        
   2081 ****       228.2500   6.2500  45.5000 Du        
   2082 ****       228.2500   6.2500  45.7500 Du        
   2083 ****       228.2500   6.2500  46.0000 Du        
   2084 ****       228.2500   6.2500  46.2500 Du        
   2085 ****       228.2500   6.2500  46.5000 Du        
   2086 ****       228.2500   6.2500  46.7500 Du        
   2087 ****       228.2500   6.2500  47.0000 Du        
   2088 ****       228.2500   6.2500  47.2500 Du        
   2089 ****       228.2500   6.2500  47.5000 Du        
   2090 ****       228.2500   6.2500  47.7500 Du        
   2091 ****       228.2500   6.2500  48.0000 Du        
   2092 ****       228.2500   6.5000  45.7500 Du        
   2093 ****       228.2500   6.5000  46.0000 Du        
   2094 ****       228.2500   6.5000  46.2500 Du        
   2095 ****       228.2500   6.5000  46.5000 Du        
   2096 ****       228.2500   6.5000  46.7500 Du        
   2097 ****       228.2500   6.5000  47.0000 Du        
   2098 ****       228.2500   6.5000  47.2500 Du        
   2099 ****       228.2500   6.5000  47.5000 Du        
   2100 ****       228.2500   6.5000  47.7500 Du        
   2101 ****       228.2500   6.5000  48.0000 Du        
   2102 ****       228.2500   6.7500  45.7500 Du        
   2103 ****       228.2500   6.7500  46.0000 Du        
   2104 ****       228.2500   6.7500  46.2500 Du        
   2105 ****       228.2500   6.7500  46.5000 Du        
   2106 ****       228.2500   6.7500  46.7500 Du        
   2107 ****       228.2500   6.7500  47.0000 Du        
   2108 ****       228.2500   6.7500  47.2500 Du        
   2109 ****       228.2500   6.7500  47.5000 Du        
   2110 ****       228.2500   6.7500  47.7500 Du        
   2111 ****       228.2500   6.7500  48.0000 Du        
   2112 ****       228.2500   7.0000  46.0000 Du        
   2113 ****       228.2500   7.0000  46.2500 Du        
   2114 ****       228.2500   7.0000  46.5000 Du        
   2115 ****       228.2500   7.0000  46.7500 Du        
   2116 ****       228.2500   7.0000  47.0000 Du        
   2117 ****       228.2500   7.0000  47.2500 Du        
   2118 ****       228.2500   7.0000  47.5000 Du        
   2119 ****       228.2500   7.0000  47.7500 Du        
   2120 ****       228.2500   7.2500  46.0000 Du        
   2121 ****       228.2500   7.2500  46.2500 Du        
   2122 ****       228.2500   7.2500  46.5000 Du        
   2123 ****       228.2500   7.2500  46.7500 Du        
   2124 ****       228.2500   7.2500  47.0000 Du        
   2125 ****       228.2500   7.2500  47.2500 Du        
   2126 ****       228.2500   7.2500  47.5000 Du        
   2127 ****       228.2500   7.2500  47.7500 Du        
   2128 ****       228.2500   7.5000  46.0000 Du        
   2129 ****       228.2500   7.5000  46.2500 Du        
   2130 ****       228.2500   7.5000  46.5000 Du        
   2131 ****       228.2500   7.5000  46.7500 Du        
   2132 ****       228.2500   7.5000  47.0000 Du        
   2133 ****       228.2500   7.5000  47.2500 Du        
   2134 ****       228.2500   7.5000  47.5000 Du        
   2135 ****       228.2500   7.5000  47.7500 Du        
   2136 ****       228.2500   7.7500  46.0000 Du        
   2137 ****       228.2500   7.7500  46.2500 Du        
   2138 ****       228.2500   7.7500  46.5000 Du        
   2139 ****       228.2500   7.7500  46.7500 Du        
   2140 ****       228.2500   7.7500  47.0000 Du        
   2141 ****       228.2500   7.7500  47.2500 Du        
   2142 ****       228.2500   7.7500  47.5000 Du        
   2143 ****       228.2500   8.0000  46.2500 Du        
   2144 ****       228.2500   8.0000  46.5000 Du        
   2145 ****       228.2500   8.0000  46.7500 Du        
   2146 ****       228.2500   8.0000  47.0000 Du        
   2147 ****       228.2500   8.0000  47.2500 Du        
   2148 ****       228.2500   8.0000  47.5000 Du        
   2149 ****       228.2500   8.2500  46.2500 Du        
   2150 ****       228.2500   8.2500  46.5000 Du        
   2151 ****       228.2500   8.2500  46.7500 Du        
   2152 ****       228.2500   8.2500  47.0000 Du        
   2153 ****       228.2500   8.2500  47.2500 Du        
   2154 ****       228.2500   8.2500  47.5000 Du        
   2155 ****       228.2500   8.5000  46.5000 Du        
   2156 ****       228.2500   8.5000  46.7500 Du        
   2157 ****       228.2500   8.5000  47.0000 Du        
   2158 ****       228.2500   8.5000  47.2500 Du        
   2159 ****       228.2500   8.5000  47.5000 Du        
   2160 ****       228.2500   8.7500  46.7500 Du        
   2161 ****       228.2500   8.7500  47.0000 Du        
   2162 ****       228.2500   8.7500  47.2500 Du        
   2163 ****       228.2500   9.0000  47.0000 Du        
   2164 ****       228.2500   9.0000  47.2500 Du        
   2165 ****       228.5000  -1.7500  39.7500 Du        
   2166 ****       228.5000  -1.2500  43.5000 Du        
   2167 ****       228.5000  -1.2500  43.7500 Du        
   2168 ****       228.5000  -1.2500  44.0000 Du        
   2169 ****       228.5000  -1.0000  43.5000 Du        
   2170 ****       228.5000  -1.0000  43.7500 Du        
   2171 ****       228.5000  -1.0000  44.0000 Du        
   2172 ****       228.5000  -1.0000  44.2500 Du        
   2173 ****       228.5000  -1.0000  44.5000 Du        
   2174 ****       228.5000  -1.0000  44.7500 Du        
   2175 ****       228.5000  -1.0000  45.0000 Du        
   2176 ****       228.5000  -0.7500  43.5000 Du        
   2177 ****       228.5000  -0.7500  43.7500 Du        
   2178 ****       228.5000  -0.7500  44.0000 Du        
   2179 ****       228.5000  -0.7500  44.2500 Du        
   2180 ****       228.5000  -0.7500  44.5000 Du        
   2181 ****       228.5000  -0.7500  44.7500 Du        
   2182 ****       228.5000  -0.7500  45.0000 Du        
   2183 ****       228.5000  -0.7500  45.2500 Du        
   2184 ****       228.5000  -0.7500  45.5000 Du        
   2185 ****       228.5000  -0.5000  43.0000 Du        
   2186 ****       228.5000  -0.5000  43.2500 Du        
   2187 ****       228.5000  -0.5000  43.5000 Du        
   2188 ****       228.5000  -0.5000  43.7500 Du        
   2189 ****       228.5000  -0.5000  44.0000 Du        
   2190 ****       228.5000  -0.5000  44.2500 Du        
   2191 ****       228.5000  -0.5000  44.5000 Du        
   2192 ****       228.5000  -0.5000  44.7500 Du        
   2193 ****       228.5000  -0.5000  45.0000 Du        
   2194 ****       228.5000  -0.5000  45.2500 Du        
   2195 ****       228.5000  -0.5000  45.5000 Du        
   2196 ****       228.5000  -0.5000  45.7500 Du        
   2197 ****       228.5000  -0.2500  43.0000 Du        
   2198 ****       228.5000  -0.2500  43.2500 Du        
   2199 ****       228.5000  -0.2500  43.5000 Du        
   2200 ****       228.5000  -0.2500  43.7500 Du        
   2201 ****       228.5000  -0.2500  44.0000 Du        
   2202 ****       228.5000  -0.2500  44.2500 Du        
   2203 ****       228.5000  -0.2500  44.5000 Du        
   2204 ****       228.5000  -0.2500  44.7500 Du        
   2205 ****       228.5000  -0.2500  45.0000 Du        
   2206 ****       228.5000  -0.2500  45.2500 Du        
   2207 ****       228.5000  -0.2500  45.5000 Du        
   2208 ****       228.5000  -0.2500  45.7500 Du        
   2209 ****       228.5000   0.0000  42.7500 Du        
   2210 ****       228.5000   0.0000  43.0000 Du        
   2211 ****       228.5000   0.0000  43.2500 Du        
   2212 ****       228.5000   0.0000  43.5000 Du        
   2213 ****       228.5000   0.0000  43.7500 Du        
   2214 ****       228.5000   0.0000  44.0000 Du        
   2215 ****       228.5000   0.0000  44.2500 Du        
   2216 ****       228.5000   0.0000  44.5000 Du        
   2217 ****       228.5000   0.0000  44.7500 Du        
   2218 ****       228.5000   0.0000  45.0000 Du        
   2219 ****       228.5000   0.0000  45.2500 Du        
   2220 ****       228.5000   0.0000  45.5000 Du        
   2221 ****       228.5000   0.0000  45.7500 Du        
   2222 ****       228.5000   0.2500  42.7500 Du        
   2223 ****       228.5000   0.2500  43.0000 Du        
   2224 ****       228.5000   0.2500  43.2500 Du        
   2225 ****       228.5000   0.2500  43.5000 Du        
   2226 ****       228.5000   0.2500  43.7500 Du        
   2227 ****       228.5000   0.2500  44.0000 Du        
   2228 ****       228.5000   0.2500  44.2500 Du        
   2229 ****       228.5000   0.2500  44.5000 Du        
   2230 ****       228.5000   0.2500  44.7500 Du        
   2231 ****       228.5000   0.2500  45.0000 Du        
   2232 ****       228.5000   0.2500  45.2500 Du        
   2233 ****       228.5000   0.2500  45.5000 Du        
   2234 ****       228.5000   0.5000  42.0000 Du        
   2235 ****       228.5000   0.5000  42.2500 Du        
   2236 ****       228.5000   0.5000  42.5000 Du        
   2237 ****       228.5000   0.5000  42.7500 Du        
   2238 ****       228.5000   0.5000  43.0000 Du        
   2239 ****       228.5000   0.5000  43.2500 Du        
   2240 ****       228.5000   0.5000  43.5000 Du        
   2241 ****       228.5000   0.5000  43.7500 Du        
   2242 ****       228.5000   0.5000  44.0000 Du        
   2243 ****       228.5000   0.5000  44.2500 Du        
   2244 ****       228.5000   0.5000  44.5000 Du        
   2245 ****       228.5000   0.5000  44.7500 Du        
   2246 ****       228.5000   0.5000  45.0000 Du        
   2247 ****       228.5000   0.5000  45.2500 Du        
   2248 ****       228.5000   0.5000  45.5000 Du        
   2249 ****       228.5000   0.7500  42.2500 Du        
   2250 ****       228.5000   0.7500  42.5000 Du        
   2251 ****       228.5000   0.7500  42.7500 Du        
   2252 ****       228.5000   0.7500  43.0000 Du        
   2253 ****       228.5000   0.7500  43.2500 Du        
   2254 ****       228.5000   0.7500  43.5000 Du        
   2255 ****       228.5000   0.7500  43.7500 Du        
   2256 ****       228.5000   0.7500  44.0000 Du        
   2257 ****       228.5000   0.7500  44.2500 Du        
   2258 ****       228.5000   0.7500  44.5000 Du        
   2259 ****       228.5000   0.7500  44.7500 Du        
   2260 ****       228.5000   0.7500  45.0000 Du        
   2261 ****       228.5000   0.7500  45.2500 Du        
   2262 ****       228.5000   1.0000  42.2500 Du        
   2263 ****       228.5000   1.0000  42.7500 Du        
   2264 ****       228.5000   1.0000  43.0000 Du        
   2265 ****       228.5000   1.0000  43.2500 Du        
   2266 ****       228.5000   1.0000  43.5000 Du        
   2267 ****       228.5000   1.0000  43.7500 Du        
   2268 ****       228.5000   1.0000  44.0000 Du        
   2269 ****       228.5000   1.0000  44.2500 Du        
   2270 ****       228.5000   1.0000  44.5000 Du        
   2271 ****       228.5000   1.0000  44.7500 Du        
   2272 ****       228.5000   1.0000  45.0000 Du        
   2273 ****       228.5000   1.2500  42.7500 Du        
   2274 ****       228.5000   1.2500  43.0000 Du        
   2275 ****       228.5000   1.2500  43.2500 Du        
   2276 ****       228.5000   1.2500  43.5000 Du        
   2277 ****       228.5000   1.2500  43.7500 Du        
   2278 ****       228.5000   1.2500  44.0000 Du        
   2279 ****       228.5000   1.2500  44.2500 Du        
   2280 ****       228.5000   1.2500  44.5000 Du        
   2281 ****       228.5000   1.2500  44.7500 Du        
   2282 ****       228.5000   1.2500  45.0000 Du        
   2283 ****       228.5000   1.5000  42.7500 Du        
   2284 ****       228.5000   1.5000  43.0000 Du        
   2285 ****       228.5000   1.5000  43.2500 Du        
   2286 ****       228.5000   1.5000  43.5000 Du        
   2287 ****       228.5000   1.5000  43.7500 Du        
   2288 ****       228.5000   1.5000  44.0000 Du        
   2289 ****       228.5000   1.5000  44.2500 Du        
   2290 ****       228.5000   1.5000  44.5000 Du        
   2291 ****       228.5000   1.5000  44.7500 Du        
   2292 ****       228.5000   1.5000  45.0000 Du        
   2293 ****       228.5000   1.7500  43.0000 Du        
   2294 ****       228.5000   1.7500  43.2500 Du        
   2295 ****       228.5000   1.7500  43.5000 Du        
   2296 ****       228.5000   1.7500  43.7500 Du        
   2297 ****       228.5000   1.7500  44.0000 Du        
   2298 ****       228.5000   1.7500  44.2500 Du        
   2299 ****       228.5000   1.7500  44.5000 Du        
   2300 ****       228.5000   1.7500  44.7500 Du        
   2301 ****       228.5000   2.0000  43.0000 Du        
   2302 ****       228.5000   2.0000  43.2500 Du        
   2303 ****       228.5000   2.0000  43.5000 Du        
   2304 ****       228.5000   2.0000  43.7500 Du        
   2305 ****       228.5000   2.0000  44.0000 Du        
   2306 ****       228.5000   2.0000  44.2500 Du        
   2307 ****       228.5000   2.0000  44.5000 Du        
   2308 ****       228.5000   2.0000  44.7500 Du        
   2309 ****       228.5000   2.2500  43.2500 Du        
   2310 ****       228.5000   2.2500  43.5000 Du        
   2311 ****       228.5000   2.2500  43.7500 Du        
   2312 ****       228.5000   2.2500  44.0000 Du        
   2313 ****       228.5000   2.2500  44.2500 Du        
   2314 ****       228.5000   2.2500  44.5000 Du        
   2315 ****       228.5000   2.2500  44.7500 Du        
   2316 ****       228.5000   2.5000  43.2500 Du        
   2317 ****       228.5000   2.5000  43.5000 Du        
   2318 ****       228.5000   2.5000  43.7500 Du        
   2319 ****       228.5000   2.5000  44.0000 Du        
   2320 ****       228.5000   2.5000  44.2500 Du        
   2321 ****       228.5000   2.5000  44.5000 Du        
   2322 ****       228.5000   2.5000  44.7500 Du        
   2323 ****       228.5000   2.5000  45.0000 Du        
   2324 ****       228.5000   2.7500  43.2500 Du        
   2325 ****       228.5000   2.7500  43.5000 Du        
   2326 ****       228.5000   2.7500  43.7500 Du        
   2327 ****       228.5000   2.7500  44.0000 Du        
   2328 ****       228.5000   2.7500  44.2500 Du        
   2329 ****       228.5000   2.7500  44.5000 Du        
   2330 ****       228.5000   2.7500  44.7500 Du        
   2331 ****       228.5000   2.7500  45.0000 Du        
   2332 ****       228.5000   3.0000  43.5000 Du        
   2333 ****       228.5000   3.0000  43.7500 Du        
   2334 ****       228.5000   3.0000  44.0000 Du        
   2335 ****       228.5000   3.0000  44.2500 Du        
   2336 ****       228.5000   3.0000  44.5000 Du        
   2337 ****       228.5000   3.0000  44.7500 Du        
   2338 ****       228.5000   3.0000  45.0000 Du        
   2339 ****       228.5000   3.2500  43.5000 Du        
   2340 ****       228.5000   3.2500  43.7500 Du        
   2341 ****       228.5000   3.2500  44.0000 Du        
   2342 ****       228.5000   3.2500  44.2500 Du        
   2343 ****       228.5000   3.2500  44.5000 Du        
   2344 ****       228.5000   3.2500  44.7500 Du        
   2345 ****       228.5000   3.2500  45.0000 Du        
   2346 ****       228.5000   3.5000  43.5000 Du        
   2347 ****       228.5000   3.5000  43.7500 Du        
   2348 ****       228.5000   3.5000  44.0000 Du        
   2349 ****       228.5000   3.5000  44.2500 Du        
   2350 ****       228.5000   3.5000  44.5000 Du        
   2351 ****       228.5000   3.5000  44.7500 Du        
   2352 ****       228.5000   3.5000  45.0000 Du        
   2353 ****       228.5000   3.7500  43.5000 Du        
   2354 ****       228.5000   3.7500  43.7500 Du        
   2355 ****       228.5000   3.7500  44.0000 Du        
   2356 ****       228.5000   3.7500  44.2500 Du        
   2357 ****       228.5000   3.7500  44.5000 Du        
   2358 ****       228.5000   3.7500  44.7500 Du        
   2359 ****       228.5000   3.7500  45.0000 Du        
   2360 ****       228.5000   4.0000  43.5000 Du        
   2361 ****       228.5000   4.0000  43.7500 Du        
   2362 ****       228.5000   4.0000  44.0000 Du        
   2363 ****       228.5000   4.0000  44.2500 Du        
   2364 ****       228.5000   4.0000  44.5000 Du        
   2365 ****       228.5000   4.0000  44.7500 Du        
   2366 ****       228.5000   4.0000  45.0000 Du        
   2367 ****       228.5000   4.0000  45.2500 Du        
   2368 ****       228.5000   4.2500  43.5000 Du        
   2369 ****       228.5000   4.2500  43.7500 Du        
   2370 ****       228.5000   4.2500  44.0000 Du        
   2371 ****       228.5000   4.2500  44.2500 Du        
   2372 ****       228.5000   4.2500  44.5000 Du        
   2373 ****       228.5000   4.2500  44.7500 Du        
   2374 ****       228.5000   4.2500  45.0000 Du        
   2375 ****       228.5000   4.2500  45.2500 Du        
   2376 ****       228.5000   4.5000  43.5000 Du        
   2377 ****       228.5000   4.5000  43.7500 Du        
   2378 ****       228.5000   4.5000  44.0000 Du        
   2379 ****       228.5000   4.5000  44.2500 Du        
   2380 ****       228.5000   4.5000  44.5000 Du        
   2381 ****       228.5000   4.5000  44.7500 Du        
   2382 ****       228.5000   4.5000  45.0000 Du        
   2383 ****       228.5000   4.5000  45.2500 Du        
   2384 ****       228.5000   4.5000  45.5000 Du        
   2385 ****       228.5000   4.7500  43.5000 Du        
   2386 ****       228.5000   4.7500  43.7500 Du        
   2387 ****       228.5000   4.7500  44.0000 Du        
   2388 ****       228.5000   4.7500  44.2500 Du        
   2389 ****       228.5000   4.7500  44.5000 Du        
   2390 ****       228.5000   4.7500  44.7500 Du        
   2391 ****       228.5000   4.7500  45.0000 Du        
   2392 ****       228.5000   4.7500  45.2500 Du        
   2393 ****       228.5000   4.7500  45.5000 Du        
   2394 ****       228.5000   5.0000  43.5000 Du        
   2395 ****       228.5000   5.0000  43.7500 Du        
   2396 ****       228.5000   5.0000  44.0000 Du        
   2397 ****       228.5000   5.0000  44.2500 Du        
   2398 ****       228.5000   5.0000  44.5000 Du        
   2399 ****       228.5000   5.0000  44.7500 Du        
   2400 ****       228.5000   5.0000  45.0000 Du        
   2401 ****       228.5000   5.0000  45.2500 Du        
   2402 ****       228.5000   5.0000  45.5000 Du        
   2403 ****       228.5000   5.0000  45.7500 Du        
   2404 ****       228.5000   5.2500  43.7500 Du        
   2405 ****       228.5000   5.2500  44.0000 Du        
   2406 ****       228.5000   5.2500  44.2500 Du        
   2407 ****       228.5000   5.2500  44.5000 Du        
   2408 ****       228.5000   5.2500  44.7500 Du        
   2409 ****       228.5000   5.2500  45.0000 Du        
   2410 ****       228.5000   5.2500  45.2500 Du        
   2411 ****       228.5000   5.2500  45.5000 Du        
   2412 ****       228.5000   5.2500  45.7500 Du        
   2413 ****       228.5000   5.2500  46.0000 Du        
   2414 ****       228.5000   5.5000  43.7500 Du        
   2415 ****       228.5000   5.5000  44.0000 Du        
   2416 ****       228.5000   5.5000  44.2500 Du        
   2417 ****       228.5000   5.5000  44.5000 Du        
   2418 ****       228.5000   5.5000  44.7500 Du        
   2419 ****       228.5000   5.5000  45.0000 Du        
   2420 ****       228.5000   5.5000  45.2500 Du        
   2421 ****       228.5000   5.5000  45.5000 Du        
   2422 ****       228.5000   5.5000  45.7500 Du        
   2423 ****       228.5000   5.5000  46.0000 Du        
   2424 ****       228.5000   5.7500  44.0000 Du        
   2425 ****       228.5000   5.7500  44.2500 Du        
   2426 ****       228.5000   5.7500  44.5000 Du        
   2427 ****       228.5000   5.7500  44.7500 Du        
   2428 ****       228.5000   5.7500  45.0000 Du        
   2429 ****       228.5000   5.7500  45.2500 Du        
   2430 ****       228.5000   5.7500  45.5000 Du        
   2431 ****       228.5000   5.7500  45.7500 Du        
   2432 ****       228.5000   5.7500  46.0000 Du        
   2433 ****       228.5000   5.7500  46.2500 Du        
   2434 ****       228.5000   5.7500  46.5000 Du        
   2435 ****       228.5000   6.0000  44.5000 Du        
   2436 ****       228.5000   6.0000  44.7500 Du        
   2437 ****       228.5000   6.0000  45.0000 Du        
   2438 ****       228.5000   6.0000  45.2500 Du        
   2439 ****       228.5000   6.0000  45.5000 Du        
   2440 ****       228.5000   6.0000  45.7500 Du        
   2441 ****       228.5000   6.0000  46.0000 Du        
   2442 ****       228.5000   6.0000  46.2500 Du        
   2443 ****       228.5000   6.0000  46.5000 Du        
   2444 ****       228.5000   6.0000  46.7500 Du        
   2445 ****       228.5000   6.0000  47.0000 Du        
   2446 ****       228.5000   6.2500  44.7500 Du        
   2447 ****       228.5000   6.2500  45.0000 Du        
   2448 ****       228.5000   6.2500  45.2500 Du        
   2449 ****       228.5000   6.2500  45.5000 Du        
   2450 ****       228.5000   6.2500  45.7500 Du        
   2451 ****       228.5000   6.2500  46.0000 Du        
   2452 ****       228.5000   6.2500  46.2500 Du        
   2453 ****       228.5000   6.2500  46.5000 Du        
   2454 ****       228.5000   6.2500  46.7500 Du        
   2455 ****       228.5000   6.2500  47.0000 Du        
   2456 ****       228.5000   6.2500  47.2500 Du        
   2457 ****       228.5000   6.2500  47.5000 Du        
   2458 ****       228.5000   6.2500  47.7500 Du        
   2459 ****       228.5000   6.2500  48.0000 Du        
   2460 ****       228.5000   6.5000  45.2500 Du        
   2461 ****       228.5000   6.5000  45.5000 Du        
   2462 ****       228.5000   6.5000  45.7500 Du        
   2463 ****       228.5000   6.5000  46.0000 Du        
   2464 ****       228.5000   6.5000  46.2500 Du        
   2465 ****       228.5000   6.5000  46.5000 Du        
   2466 ****       228.5000   6.5000  46.7500 Du        
   2467 ****       228.5000   6.5000  47.0000 Du        
   2468 ****       228.5000   6.5000  47.2500 Du        
   2469 ****       228.5000   6.5000  47.5000 Du        
   2470 ****       228.5000   6.5000  47.7500 Du        
   2471 ****       228.5000   6.5000  48.0000 Du        
   2472 ****       228.5000   6.7500  45.5000 Du        
   2473 ****       228.5000   6.7500  45.7500 Du        
   2474 ****       228.5000   6.7500  46.0000 Du        
   2475 ****       228.5000   6.7500  46.2500 Du        
   2476 ****       228.5000   6.7500  46.5000 Du        
   2477 ****       228.5000   6.7500  46.7500 Du        
   2478 ****       228.5000   6.7500  47.0000 Du        
   2479 ****       228.5000   6.7500  47.2500 Du        
   2480 ****       228.5000   6.7500  47.5000 Du        
   2481 ****       228.5000   6.7500  47.7500 Du        
   2482 ****       228.5000   6.7500  48.0000 Du        
   2483 ****       228.5000   7.0000  45.7500 Du        
   2484 ****       228.5000   7.0000  46.0000 Du        
   2485 ****       228.5000   7.0000  46.2500 Du        
   2486 ****       228.5000   7.0000  46.5000 Du        
   2487 ****       228.5000   7.0000  46.7500 Du        
   2488 ****       228.5000   7.0000  47.0000 Du        
   2489 ****       228.5000   7.0000  47.2500 Du        
   2490 ****       228.5000   7.0000  47.5000 Du        
   2491 ****       228.5000   7.0000  47.7500 Du        
   2492 ****       228.5000   7.0000  48.0000 Du        
   2493 ****       228.5000   7.2500  45.7500 Du        
   2494 ****       228.5000   7.2500  46.0000 Du        
   2495 ****       228.5000   7.2500  46.2500 Du        
   2496 ****       228.5000   7.2500  46.5000 Du        
   2497 ****       228.5000   7.2500  46.7500 Du        
   2498 ****       228.5000   7.2500  47.0000 Du        
   2499 ****       228.5000   7.2500  47.2500 Du        
   2500 ****       228.5000   7.2500  47.5000 Du        
   2501 ****       228.5000   7.2500  47.7500 Du        
   2502 ****       228.5000   7.5000  45.7500 Du        
   2503 ****       228.5000   7.5000  46.0000 Du        
   2504 ****       228.5000   7.5000  46.2500 Du        
   2505 ****       228.5000   7.5000  46.5000 Du        
   2506 ****       228.5000   7.5000  46.7500 Du        
   2507 ****       228.5000   7.5000  47.0000 Du        
   2508 ****       228.5000   7.5000  47.2500 Du        
   2509 ****       228.5000   7.5000  47.5000 Du        
   2510 ****       228.5000   7.5000  47.7500 Du        
   2511 ****       228.5000   7.7500  46.0000 Du        
   2512 ****       228.5000   7.7500  46.2500 Du        
   2513 ****       228.5000   7.7500  46.5000 Du        
   2514 ****       228.5000   7.7500  46.7500 Du        
   2515 ****       228.5000   7.7500  47.0000 Du        
   2516 ****       228.5000   7.7500  47.2500 Du        
   2517 ****       228.5000   7.7500  47.5000 Du        
   2518 ****       228.5000   8.0000  46.0000 Du        
   2519 ****       228.5000   8.0000  46.2500 Du        
   2520 ****       228.5000   8.0000  46.5000 Du        
   2521 ****       228.5000   8.0000  46.7500 Du        
   2522 ****       228.5000   8.0000  47.0000 Du        
   2523 ****       228.5000   8.0000  47.2500 Du        
   2524 ****       228.5000   8.0000  47.5000 Du        
   2525 ****       228.5000   8.2500  46.2500 Du        
   2526 ****       228.5000   8.2500  46.5000 Du        
   2527 ****       228.5000   8.2500  46.7500 Du        
   2528 ****       228.5000   8.2500  47.0000 Du        
   2529 ****       228.5000   8.2500  47.2500 Du        
   2530 ****       228.5000   8.5000  46.5000 Du        
   2531 ****       228.5000   8.5000  46.7500 Du        
   2532 ****       228.5000   8.5000  47.0000 Du        
   2533 ****       228.5000   8.7500  46.7500 Du        
   2534 ****       228.7500  -2.2500  39.2500 Du        
   2535 ****       228.7500  -2.0000  39.2500 Du        
   2536 ****       228.7500  -2.0000  39.5000 Du        
   2537 ****       228.7500  -2.0000  39.7500 Du        
   2538 ****       228.7500  -1.7500  40.2500 Du        
   2539 ****       228.7500  -1.5000  40.0000 Du        
   2540 ****       228.7500  -1.2500  43.0000 Du        
   2541 ****       228.7500  -1.2500  43.5000 Du        
   2542 ****       228.7500  -1.2500  43.7500 Du        
   2543 ****       228.7500  -1.2500  44.0000 Du        
   2544 ****       228.7500  -1.0000  43.0000 Du        
   2545 ****       228.7500  -1.0000  43.2500 Du        
   2546 ****       228.7500  -1.0000  43.5000 Du        
   2547 ****       228.7500  -1.0000  43.7500 Du        
   2548 ****       228.7500  -1.0000  44.0000 Du        
   2549 ****       228.7500  -1.0000  44.2500 Du        
   2550 ****       228.7500  -1.0000  44.5000 Du        
   2551 ****       228.7500  -1.0000  44.7500 Du        
   2552 ****       228.7500  -0.7500  41.2500 Du        
   2553 ****       228.7500  -0.7500  42.7500 Du        
   2554 ****       228.7500  -0.7500  43.0000 Du        
   2555 ****       228.7500  -0.7500  43.2500 Du        
   2556 ****       228.7500  -0.7500  43.5000 Du        
   2557 ****       228.7500  -0.7500  43.7500 Du        
   2558 ****       228.7500  -0.7500  44.0000 Du        
   2559 ****       228.7500  -0.7500  44.2500 Du        
   2560 ****       228.7500  -0.7500  44.5000 Du        
   2561 ****       228.7500  -0.7500  44.7500 Du        
   2562 ****       228.7500  -0.7500  45.0000 Du        
   2563 ****       228.7500  -0.7500  45.2500 Du        
   2564 ****       228.7500  -0.5000  41.2500 Du        
   2565 ****       228.7500  -0.5000  42.5000 Du        
   2566 ****       228.7500  -0.5000  42.7500 Du        
   2567 ****       228.7500  -0.5000  43.0000 Du        
   2568 ****       228.7500  -0.5000  43.2500 Du        
   2569 ****       228.7500  -0.5000  43.5000 Du        
   2570 ****       228.7500  -0.5000  43.7500 Du        
   2571 ****       228.7500  -0.5000  44.0000 Du        
   2572 ****       228.7500  -0.5000  44.2500 Du        
   2573 ****       228.7500  -0.5000  44.5000 Du        
   2574 ****       228.7500  -0.5000  44.7500 Du        
   2575 ****       228.7500  -0.5000  45.0000 Du        
   2576 ****       228.7500  -0.5000  45.2500 Du        
   2577 ****       228.7500  -0.5000  45.5000 Du        
   2578 ****       228.7500  -0.2500  42.5000 Du        
   2579 ****       228.7500  -0.2500  42.7500 Du        
   2580 ****       228.7500  -0.2500  43.0000 Du        
   2581 ****       228.7500  -0.2500  43.2500 Du        
   2582 ****       228.7500  -0.2500  43.5000 Du        
   2583 ****       228.7500  -0.2500  43.7500 Du        
   2584 ****       228.7500  -0.2500  44.0000 Du        
   2585 ****       228.7500  -0.2500  44.2500 Du        
   2586 ****       228.7500  -0.2500  44.5000 Du        
   2587 ****       228.7500  -0.2500  44.7500 Du        
   2588 ****       228.7500  -0.2500  45.0000 Du        
   2589 ****       228.7500  -0.2500  45.2500 Du        
   2590 ****       228.7500  -0.2500  45.5000 Du        
   2591 ****       228.7500  -0.2500  45.7500 Du        
   2592 ****       228.7500   0.0000  42.0000 Du        
   2593 ****       228.7500   0.0000  42.2500 Du        
   2594 ****       228.7500   0.0000  42.5000 Du        
   2595 ****       228.7500   0.0000  42.7500 Du        
   2596 ****       228.7500   0.0000  43.0000 Du        
   2597 ****       228.7500   0.0000  43.2500 Du        
   2598 ****       228.7500   0.0000  43.5000 Du        
   2599 ****       228.7500   0.0000  43.7500 Du        
   2600 ****       228.7500   0.0000  44.0000 Du        
   2601 ****       228.7500   0.0000  44.2500 Du        
   2602 ****       228.7500   0.0000  44.5000 Du        
   2603 ****       228.7500   0.0000  44.7500 Du        
   2604 ****       228.7500   0.0000  45.0000 Du        
   2605 ****       228.7500   0.0000  45.2500 Du        
   2606 ****       228.7500   0.0000  45.5000 Du        
   2607 ****       228.7500   0.0000  45.7500 Du        
   2608 ****       228.7500   0.2500  42.0000 Du        
   2609 ****       228.7500   0.2500  42.2500 Du        
   2610 ****       228.7500   0.2500  42.5000 Du        
   2611 ****       228.7500   0.2500  42.7500 Du        
   2612 ****       228.7500   0.2500  43.0000 Du        
   2613 ****       228.7500   0.2500  43.2500 Du        
   2614 ****       228.7500   0.2500  43.5000 Du        
   2615 ****       228.7500   0.2500  43.7500 Du        
   2616 ****       228.7500   0.2500  44.0000 Du        
   2617 ****       228.7500   0.2500  44.2500 Du        
   2618 ****       228.7500   0.2500  44.5000 Du        
   2619 ****       228.7500   0.2500  44.7500 Du        
   2620 ****       228.7500   0.2500  45.0000 Du        
   2621 ****       228.7500   0.2500  45.2500 Du        
   2622 ****       228.7500   0.2500  45.5000 Du        
   2623 ****       228.7500   0.5000  42.0000 Du        
   2624 ****       228.7500   0.5000  42.2500 Du        
   2625 ****       228.7500   0.5000  42.5000 Du        
   2626 ****       228.7500   0.5000  42.7500 Du        
   2627 ****       228.7500   0.5000  43.0000 Du        
   2628 ****       228.7500   0.5000  43.2500 Du        
   2629 ****       228.7500   0.5000  43.5000 Du        
   2630 ****       228.7500   0.5000  43.7500 Du        
   2631 ****       228.7500   0.5000  44.0000 Du        
   2632 ****       228.7500   0.5000  44.2500 Du        
   2633 ****       228.7500   0.5000  44.5000 Du        
   2634 ****       228.7500   0.5000  44.7500 Du        
   2635 ****       228.7500   0.5000  45.0000 Du        
   2636 ****       228.7500   0.5000  45.2500 Du        
   2637 ****       228.7500   0.7500  42.2500 Du        
   2638 ****       228.7500   0.7500  42.5000 Du        
   2639 ****       228.7500   0.7500  42.7500 Du        
   2640 ****       228.7500   0.7500  43.0000 Du        
   2641 ****       228.7500   0.7500  43.2500 Du        
   2642 ****       228.7500   0.7500  43.5000 Du        
   2643 ****       228.7500   0.7500  43.7500 Du        
   2644 ****       228.7500   0.7500  44.0000 Du        
   2645 ****       228.7500   0.7500  44.2500 Du        
   2646 ****       228.7500   0.7500  44.5000 Du        
   2647 ****       228.7500   0.7500  44.7500 Du        
   2648 ****       228.7500   0.7500  45.0000 Du        
   2649 ****       228.7500   0.7500  45.2500 Du        
   2650 ****       228.7500   1.0000  42.5000 Du        
   2651 ****       228.7500   1.0000  42.7500 Du        
   2652 ****       228.7500   1.0000  43.0000 Du        
   2653 ****       228.7500   1.0000  43.2500 Du        
   2654 ****       228.7500   1.0000  43.5000 Du        
   2655 ****       228.7500   1.0000  43.7500 Du        
   2656 ****       228.7500   1.0000  44.0000 Du        
   2657 ****       228.7500   1.0000  44.2500 Du        
   2658 ****       228.7500   1.0000  44.5000 Du        
   2659 ****       228.7500   1.0000  44.7500 Du        
   2660 ****       228.7500   1.0000  45.0000 Du        
   2661 ****       228.7500   1.2500  42.7500 Du        
   2662 ****       228.7500   1.2500  43.0000 Du        
   2663 ****       228.7500   1.2500  43.2500 Du        
   2664 ****       228.7500   1.2500  43.5000 Du        
   2665 ****       228.7500   1.2500  43.7500 Du        
   2666 ****       228.7500   1.2500  44.0000 Du        
   2667 ****       228.7500   1.2500  44.2500 Du        
   2668 ****       228.7500   1.2500  44.5000 Du        
   2669 ****       228.7500   1.2500  44.7500 Du        
   2670 ****       228.7500   1.2500  45.0000 Du        
   2671 ****       228.7500   1.5000  43.0000 Du        
   2672 ****       228.7500   1.5000  43.2500 Du        
   2673 ****       228.7500   1.5000  43.5000 Du        
   2674 ****       228.7500   1.5000  43.7500 Du        
   2675 ****       228.7500   1.5000  44.0000 Du        
   2676 ****       228.7500   1.5000  44.2500 Du        
   2677 ****       228.7500   1.5000  44.5000 Du        
   2678 ****       228.7500   1.5000  44.7500 Du        
   2679 ****       228.7500   1.5000  45.0000 Du        
   2680 ****       228.7500   1.7500  43.0000 Du        
   2681 ****       228.7500   1.7500  43.2500 Du        
   2682 ****       228.7500   1.7500  43.5000 Du        
   2683 ****       228.7500   1.7500  43.7500 Du        
   2684 ****       228.7500   1.7500  44.0000 Du        
   2685 ****       228.7500   1.7500  44.2500 Du        
   2686 ****       228.7500   1.7500  44.5000 Du        
   2687 ****       228.7500   1.7500  44.7500 Du        
   2688 ****       228.7500   2.0000  43.2500 Du        
   2689 ****       228.7500   2.0000  43.5000 Du        
   2690 ****       228.7500   2.0000  43.7500 Du        
   2691 ****       228.7500   2.0000  44.0000 Du        
   2692 ****       228.7500   2.0000  44.2500 Du        
   2693 ****       228.7500   2.0000  44.5000 Du        
   2694 ****       228.7500   2.0000  44.7500 Du        
   2695 ****       228.7500   2.2500  43.2500 Du        
   2696 ****       228.7500   2.2500  43.5000 Du        
   2697 ****       228.7500   2.2500  43.7500 Du        
   2698 ****       228.7500   2.2500  44.0000 Du        
   2699 ****       228.7500   2.2500  44.2500 Du        
   2700 ****       228.7500   2.2500  44.5000 Du        
   2701 ****       228.7500   2.2500  44.7500 Du        
   2702 ****       228.7500   2.5000  43.5000 Du        
   2703 ****       228.7500   2.5000  43.7500 Du        
   2704 ****       228.7500   2.5000  44.0000 Du        
   2705 ****       228.7500   2.5000  44.2500 Du        
   2706 ****       228.7500   2.5000  44.5000 Du        
   2707 ****       228.7500   2.5000  44.7500 Du        
   2708 ****       228.7500   2.7500  43.7500 Du        
   2709 ****       228.7500   2.7500  44.0000 Du        
   2710 ****       228.7500   2.7500  44.2500 Du        
   2711 ****       228.7500   2.7500  44.5000 Du        
   2712 ****       228.7500   2.7500  44.7500 Du        
   2713 ****       228.7500   3.0000  43.7500 Du        
   2714 ****       228.7500   3.0000  44.0000 Du        
   2715 ****       228.7500   3.0000  44.2500 Du        
   2716 ****       228.7500   3.0000  44.5000 Du        
   2717 ****       228.7500   3.0000  44.7500 Du        
   2718 ****       228.7500   3.2500  43.7500 Du        
   2719 ****       228.7500   3.2500  44.0000 Du        
   2720 ****       228.7500   3.2500  44.2500 Du        
   2721 ****       228.7500   3.2500  44.5000 Du        
   2722 ****       228.7500   3.2500  44.7500 Du        
   2723 ****       228.7500   3.5000  43.7500 Du        
   2724 ****       228.7500   3.5000  44.0000 Du        
   2725 ****       228.7500   3.5000  44.2500 Du        
   2726 ****       228.7500   3.5000  44.5000 Du        
   2727 ****       228.7500   3.5000  44.7500 Du        
   2728 ****       228.7500   3.5000  45.0000 Du        
   2729 ****       228.7500   3.7500  43.7500 Du        
   2730 ****       228.7500   3.7500  44.0000 Du        
   2731 ****       228.7500   3.7500  44.2500 Du        
   2732 ****       228.7500   3.7500  44.5000 Du        
   2733 ****       228.7500   3.7500  44.7500 Du        
   2734 ****       228.7500   3.7500  45.0000 Du        
   2735 ****       228.7500   4.0000  43.7500 Du        
   2736 ****       228.7500   4.0000  44.0000 Du        
   2737 ****       228.7500   4.0000  44.2500 Du        
   2738 ****       228.7500   4.0000  44.5000 Du        
   2739 ****       228.7500   4.0000  44.7500 Du        
   2740 ****       228.7500   4.0000  45.0000 Du        
   2741 ****       228.7500   4.2500  43.7500 Du        
   2742 ****       228.7500   4.2500  44.0000 Du        
   2743 ****       228.7500   4.2500  44.2500 Du        
   2744 ****       228.7500   4.2500  44.5000 Du        
   2745 ****       228.7500   4.2500  44.7500 Du        
   2746 ****       228.7500   4.2500  45.0000 Du        
   2747 ****       228.7500   4.2500  45.2500 Du        
   2748 ****       228.7500   4.5000  43.7500 Du        
   2749 ****       228.7500   4.5000  44.0000 Du        
   2750 ****       228.7500   4.5000  44.2500 Du        
   2751 ****       228.7500   4.5000  44.5000 Du        
   2752 ****       228.7500   4.5000  44.7500 Du        
   2753 ****       228.7500   4.5000  45.0000 Du        
   2754 ****       228.7500   4.5000  45.2500 Du        
   2755 ****       228.7500   4.7500  43.5000 Du        
   2756 ****       228.7500   4.7500  43.7500 Du        
   2757 ****       228.7500   4.7500  44.0000 Du        
   2758 ****       228.7500   4.7500  44.2500 Du        
   2759 ****       228.7500   4.7500  44.5000 Du        
   2760 ****       228.7500   4.7500  44.7500 Du        
   2761 ****       228.7500   4.7500  45.0000 Du        
   2762 ****       228.7500   4.7500  45.2500 Du        
   2763 ****       228.7500   4.7500  45.5000 Du        
   2764 ****       228.7500   5.0000  43.5000 Du        
   2765 ****       228.7500   5.0000  43.7500 Du        
   2766 ****       228.7500   5.0000  44.0000 Du        
   2767 ****       228.7500   5.0000  44.2500 Du        
   2768 ****       228.7500   5.0000  44.5000 Du        
   2769 ****       228.7500   5.0000  44.7500 Du        
   2770 ****       228.7500   5.0000  45.0000 Du        
   2771 ****       228.7500   5.0000  45.2500 Du        
   2772 ****       228.7500   5.0000  45.5000 Du        
   2773 ****       228.7500   5.2500  43.5000 Du        
   2774 ****       228.7500   5.2500  43.7500 Du        
   2775 ****       228.7500   5.2500  44.0000 Du        
   2776 ****       228.7500   5.2500  44.2500 Du        
   2777 ****       228.7500   5.2500  44.5000 Du        
   2778 ****       228.7500   5.2500  44.7500 Du        
   2779 ****       228.7500   5.2500  45.0000 Du        
   2780 ****       228.7500   5.2500  45.2500 Du        
   2781 ****       228.7500   5.2500  45.5000 Du        
   2782 ****       228.7500   5.2500  45.7500 Du        
   2783 ****       228.7500   5.5000  43.7500 Du        
   2784 ****       228.7500   5.5000  44.0000 Du        
   2785 ****       228.7500   5.5000  44.2500 Du        
   2786 ****       228.7500   5.5000  44.5000 Du        
   2787 ****       228.7500   5.5000  44.7500 Du        
   2788 ****       228.7500   5.5000  45.0000 Du        
   2789 ****       228.7500   5.5000  45.2500 Du        
   2790 ****       228.7500   5.5000  45.5000 Du        
   2791 ****       228.7500   5.5000  45.7500 Du        
   2792 ****       228.7500   5.5000  46.0000 Du        
   2793 ****       228.7500   5.7500  44.0000 Du        
   2794 ****       228.7500   5.7500  44.2500 Du        
   2795 ****       228.7500   5.7500  44.5000 Du        
   2796 ****       228.7500   5.7500  44.7500 Du        
   2797 ****       228.7500   5.7500  45.0000 Du        
   2798 ****       228.7500   5.7500  45.2500 Du        
   2799 ****       228.7500   5.7500  45.5000 Du        
   2800 ****       228.7500   5.7500  45.7500 Du        
   2801 ****       228.7500   5.7500  46.0000 Du        
   2802 ****       228.7500   5.7500  46.2500 Du        
   2803 ****       228.7500   6.0000  44.2500 Du        
   2804 ****       228.7500   6.0000  44.5000 Du        
   2805 ****       228.7500   6.0000  44.7500 Du        
   2806 ****       228.7500   6.0000  45.0000 Du        
   2807 ****       228.7500   6.0000  45.2500 Du        
   2808 ****       228.7500   6.0000  45.5000 Du        
   2809 ****       228.7500   6.0000  45.7500 Du        
   2810 ****       228.7500   6.0000  46.0000 Du        
   2811 ****       228.7500   6.0000  46.2500 Du        
   2812 ****       228.7500   6.0000  46.5000 Du        
   2813 ****       228.7500   6.2500  44.7500 Du        
   2814 ****       228.7500   6.2500  45.0000 Du        
   2815 ****       228.7500   6.2500  45.2500 Du        
   2816 ****       228.7500   6.2500  45.5000 Du        
   2817 ****       228.7500   6.2500  45.7500 Du        
   2818 ****       228.7500   6.2500  46.0000 Du        
   2819 ****       228.7500   6.2500  46.2500 Du        
   2820 ****       228.7500   6.2500  46.5000 Du        
   2821 ****       228.7500   6.2500  46.7500 Du        
   2822 ****       228.7500   6.2500  47.0000 Du        
   2823 ****       228.7500   6.5000  45.0000 Du        
   2824 ****       228.7500   6.5000  45.2500 Du        
   2825 ****       228.7500   6.5000  45.5000 Du        
   2826 ****       228.7500   6.5000  45.7500 Du        
   2827 ****       228.7500   6.5000  46.0000 Du        
   2828 ****       228.7500   6.5000  46.2500 Du        
   2829 ****       228.7500   6.5000  46.5000 Du        
   2830 ****       228.7500   6.5000  46.7500 Du        
   2831 ****       228.7500   6.5000  47.0000 Du        
   2832 ****       228.7500   6.5000  47.2500 Du        
   2833 ****       228.7500   6.5000  47.5000 Du        
   2834 ****       228.7500   6.5000  47.7500 Du        
   2835 ****       228.7500   6.5000  48.0000 Du        
   2836 ****       228.7500   6.7500  45.2500 Du        
   2837 ****       228.7500   6.7500  45.5000 Du        
   2838 ****       228.7500   6.7500  45.7500 Du        
   2839 ****       228.7500   6.7500  46.0000 Du        
   2840 ****       228.7500   6.7500  46.2500 Du        
   2841 ****       228.7500   6.7500  46.5000 Du        
   2842 ****       228.7500   6.7500  46.7500 Du        
   2843 ****       228.7500   6.7500  47.0000 Du        
   2844 ****       228.7500   6.7500  47.2500 Du        
   2845 ****       228.7500   6.7500  47.5000 Du        
   2846 ****       228.7500   6.7500  47.7500 Du        
   2847 ****       228.7500   6.7500  48.0000 Du        
   2848 ****       228.7500   7.0000  45.5000 Du        
   2849 ****       228.7500   7.0000  45.7500 Du        
   2850 ****       228.7500   7.0000  46.0000 Du        
   2851 ****       228.7500   7.0000  46.2500 Du        
   2852 ****       228.7500   7.0000  46.5000 Du        
   2853 ****       228.7500   7.0000  46.7500 Du        
   2854 ****       228.7500   7.0000  47.0000 Du        
   2855 ****       228.7500   7.0000  47.2500 Du        
   2856 ****       228.7500   7.0000  47.5000 Du        
   2857 ****       228.7500   7.0000  47.7500 Du        
   2858 ****       228.7500   7.0000  48.0000 Du        
   2859 ****       228.7500   7.2500  45.7500 Du        
   2860 ****       228.7500   7.2500  46.0000 Du        
   2861 ****       228.7500   7.2500  46.2500 Du        
   2862 ****       228.7500   7.2500  46.5000 Du        
   2863 ****       228.7500   7.2500  46.7500 Du        
   2864 ****       228.7500   7.2500  47.0000 Du        
   2865 ****       228.7500   7.2500  47.2500 Du        
   2866 ****       228.7500   7.2500  47.5000 Du        
   2867 ****       228.7500   7.2500  47.7500 Du        
   2868 ****       228.7500   7.5000  45.7500 Du        
   2869 ****       228.7500   7.5000  46.0000 Du        
   2870 ****       228.7500   7.5000  46.2500 Du        
   2871 ****       228.7500   7.5000  46.5000 Du        
   2872 ****       228.7500   7.5000  46.7500 Du        
   2873 ****       228.7500   7.5000  47.0000 Du        
   2874 ****       228.7500   7.5000  47.2500 Du        
   2875 ****       228.7500   7.5000  47.5000 Du        
   2876 ****       228.7500   7.5000  47.7500 Du        
   2877 ****       228.7500   7.7500  46.0000 Du        
   2878 ****       228.7500   7.7500  46.2500 Du        
   2879 ****       228.7500   7.7500  46.5000 Du        
   2880 ****       228.7500   7.7500  46.7500 Du        
   2881 ****       228.7500   7.7500  47.0000 Du        
   2882 ****       228.7500   7.7500  47.2500 Du        
   2883 ****       228.7500   7.7500  47.5000 Du        
   2884 ****       228.7500   8.0000  46.0000 Du        
   2885 ****       228.7500   8.0000  46.2500 Du        
   2886 ****       228.7500   8.0000  46.5000 Du        
   2887 ****       228.7500   8.0000  46.7500 Du        
   2888 ****       228.7500   8.0000  47.0000 Du        
   2889 ****       228.7500   8.0000  47.2500 Du        
   2890 ****       228.7500   8.2500  46.5000 Du        
   2891 ****       228.7500   8.2500  46.7500 Du        
   2892 ****       229.0000  -1.2500  43.0000 Du        
   2893 ****       229.0000  -1.2500  43.2500 Du        
   2894 ****       229.0000  -1.2500  43.5000 Du        
   2895 ****       229.0000  -1.2500  43.7500 Du        
   2896 ****       229.0000  -1.0000  41.0000 Du        
   2897 ****       229.0000  -1.0000  42.7500 Du        
   2898 ****       229.0000  -1.0000  43.0000 Du        
   2899 ****       229.0000  -1.0000  43.2500 Du        
   2900 ****       229.0000  -1.0000  43.5000 Du        
   2901 ****       229.0000  -1.0000  43.7500 Du        
   2902 ****       229.0000  -1.0000  44.0000 Du        
   2903 ****       229.0000  -1.0000  44.2500 Du        
   2904 ****       229.0000  -0.7500  41.2500 Du        
   2905 ****       229.0000  -0.7500  42.5000 Du        
   2906 ****       229.0000  -0.7500  42.7500 Du        
   2907 ****       229.0000  -0.7500  43.0000 Du        
   2908 ****       229.0000  -0.7500  43.2500 Du        
   2909 ****       229.0000  -0.7500  43.5000 Du        
   2910 ****       229.0000  -0.7500  43.7500 Du        
   2911 ****       229.0000  -0.7500  44.0000 Du        
   2912 ****       229.0000  -0.7500  44.2500 Du        
   2913 ****       229.0000  -0.7500  44.5000 Du        
   2914 ****       229.0000  -0.7500  44.7500 Du        
   2915 ****       229.0000  -0.7500  45.0000 Du        
   2916 ****       229.0000  -0.5000  41.2500 Du        
   2917 ****       229.0000  -0.5000  41.5000 Du        
   2918 ****       229.0000  -0.5000  41.7500 Du        
   2919 ****       229.0000  -0.5000  42.2500 Du        
   2920 ****       229.0000  -0.5000  42.5000 Du        
   2921 ****       229.0000  -0.5000  42.7500 Du        
   2922 ****       229.0000  -0.5000  43.0000 Du        
   2923 ****       229.0000  -0.5000  43.2500 Du        
   2924 ****       229.0000  -0.5000  43.5000 Du        
   2925 ****       229.0000  -0.5000  43.7500 Du        
   2926 ****       229.0000  -0.5000  44.0000 Du        
   2927 ****       229.0000  -0.5000  44.2500 Du        
   2928 ****       229.0000  -0.5000  44.5000 Du        
   2929 ****       229.0000  -0.5000  44.7500 Du        
   2930 ****       229.0000  -0.5000  45.0000 Du        
   2931 ****       229.0000  -0.5000  45.2500 Du        
   2932 ****       229.0000  -0.2500  41.7500 Du        
   2933 ****       229.0000  -0.2500  42.0000 Du        
   2934 ****       229.0000  -0.2500  42.2500 Du        
   2935 ****       229.0000  -0.2500  42.5000 Du        
   2936 ****       229.0000  -0.2500  42.7500 Du        
   2937 ****       229.0000  -0.2500  43.0000 Du        
   2938 ****       229.0000  -0.2500  43.2500 Du        
   2939 ****       229.0000  -0.2500  43.5000 Du        
   2940 ****       229.0000  -0.2500  43.7500 Du        
   2941 ****       229.0000  -0.2500  44.0000 Du        
   2942 ****       229.0000  -0.2500  44.2500 Du        
   2943 ****       229.0000  -0.2500  44.5000 Du        
   2944 ****       229.0000  -0.2500  44.7500 Du        
   2945 ****       229.0000  -0.2500  45.0000 Du        
   2946 ****       229.0000  -0.2500  45.2500 Du        
   2947 ****       229.0000  -0.2500  45.5000 Du        
   2948 ****       229.0000   0.0000  41.7500 Du        
   2949 ****       229.0000   0.0000  42.0000 Du        
   2950 ****       229.0000   0.0000  42.2500 Du        
   2951 ****       229.0000   0.0000  42.5000 Du        
   2952 ****       229.0000   0.0000  42.7500 Du        
   2953 ****       229.0000   0.0000  43.0000 Du        
   2954 ****       229.0000   0.0000  43.2500 Du        
   2955 ****       229.0000   0.0000  43.5000 Du        
   2956 ****       229.0000   0.0000  43.7500 Du        
   2957 ****       229.0000   0.0000  44.0000 Du        
   2958 ****       229.0000   0.0000  44.2500 Du        
   2959 ****       229.0000   0.0000  44.5000 Du        
   2960 ****       229.0000   0.0000  44.7500 Du        
   2961 ****       229.0000   0.0000  45.0000 Du        
   2962 ****       229.0000   0.0000  45.2500 Du        
   2963 ****       229.0000   0.0000  45.5000 Du        
   2964 ****       229.0000   0.2500  41.7500 Du        
   2965 ****       229.0000   0.2500  42.0000 Du        
   2966 ****       229.0000   0.2500  42.2500 Du        
   2967 ****       229.0000   0.2500  42.5000 Du        
   2968 ****       229.0000   0.2500  42.7500 Du        
   2969 ****       229.0000   0.2500  43.0000 Du        
   2970 ****       229.0000   0.2500  43.2500 Du        
   2971 ****       229.0000   0.2500  43.5000 Du        
   2972 ****       229.0000   0.2500  43.7500 Du        
   2973 ****       229.0000   0.2500  44.0000 Du        
   2974 ****       229.0000   0.2500  44.2500 Du        
   2975 ****       229.0000   0.2500  44.5000 Du        
   2976 ****       229.0000   0.2500  44.7500 Du        
   2977 ****       229.0000   0.2500  45.0000 Du        
   2978 ****       229.0000   0.2500  45.2500 Du        
   2979 ****       229.0000   0.2500  45.5000 Du        
   2980 ****       229.0000   0.5000  42.0000 Du        
   2981 ****       229.0000   0.5000  42.2500 Du        
   2982 ****       229.0000   0.5000  42.5000 Du        
   2983 ****       229.0000   0.5000  42.7500 Du        
   2984 ****       229.0000   0.5000  43.0000 Du        
   2985 ****       229.0000   0.5000  43.2500 Du        
   2986 ****       229.0000   0.5000  43.5000 Du        
   2987 ****       229.0000   0.5000  43.7500 Du        
   2988 ****       229.0000   0.5000  44.0000 Du        
   2989 ****       229.0000   0.5000  44.2500 Du        
   2990 ****       229.0000   0.5000  44.5000 Du        
   2991 ****       229.0000   0.5000  44.7500 Du        
   2992 ****       229.0000   0.5000  45.0000 Du        
   2993 ****       229.0000   0.5000  45.2500 Du        
   2994 ****       229.0000   0.7500  42.2500 Du        
   2995 ****       229.0000   0.7500  42.5000 Du        
   2996 ****       229.0000   0.7500  42.7500 Du        
   2997 ****       229.0000   0.7500  43.0000 Du        
   2998 ****       229.0000   0.7500  43.2500 Du        
   2999 ****       229.0000   0.7500  43.5000 Du        
   3000 ****       229.0000   0.7500  43.7500 Du        
   3001 ****       229.0000   0.7500  44.0000 Du        
   3002 ****       229.0000   0.7500  44.2500 Du        
   3003 ****       229.0000   0.7500  44.5000 Du        
   3004 ****       229.0000   0.7500  44.7500 Du        
   3005 ****       229.0000   0.7500  45.0000 Du        
   3006 ****       229.0000   0.7500  45.2500 Du        
   3007 ****       229.0000   1.0000  42.5000 Du        
   3008 ****       229.0000   1.0000  42.7500 Du        
   3009 ****       229.0000   1.0000  43.0000 Du        
   3010 ****       229.0000   1.0000  43.2500 Du        
   3011 ****       229.0000   1.0000  43.5000 Du        
   3012 ****       229.0000   1.0000  43.7500 Du        
   3013 ****       229.0000   1.0000  44.0000 Du        
   3014 ****       229.0000   1.0000  44.2500 Du        
   3015 ****       229.0000   1.0000  44.5000 Du        
   3016 ****       229.0000   1.0000  44.7500 Du        
   3017 ****       229.0000   1.0000  45.0000 Du        
   3018 ****       229.0000   1.2500  42.7500 Du        
   3019 ****       229.0000   1.2500  43.0000 Du        
   3020 ****       229.0000   1.2500  43.2500 Du        
   3021 ****       229.0000   1.2500  43.5000 Du        
   3022 ****       229.0000   1.2500  43.7500 Du        
   3023 ****       229.0000   1.2500  44.0000 Du        
   3024 ****       229.0000   1.2500  44.2500 Du        
   3025 ****       229.0000   1.2500  44.5000 Du        
   3026 ****       229.0000   1.2500  44.7500 Du        
   3027 ****       229.0000   1.2500  45.0000 Du        
   3028 ****       229.0000   1.5000  43.0000 Du        
   3029 ****       229.0000   1.5000  43.2500 Du        
   3030 ****       229.0000   1.5000  43.5000 Du        
   3031 ****       229.0000   1.5000  43.7500 Du        
   3032 ****       229.0000   1.5000  44.0000 Du        
   3033 ****       229.0000   1.5000  44.2500 Du        
   3034 ****       229.0000   1.5000  44.5000 Du        
   3035 ****       229.0000   1.5000  44.7500 Du        
   3036 ****       229.0000   1.7500  43.2500 Du        
   3037 ****       229.0000   1.7500  43.5000 Du        
   3038 ****       229.0000   1.7500  43.7500 Du        
   3039 ****       229.0000   1.7500  44.0000 Du        
   3040 ****       229.0000   1.7500  44.2500 Du        
   3041 ****       229.0000   1.7500  44.5000 Du        
   3042 ****       229.0000   1.7500  44.7500 Du        
   3043 ****       229.0000   2.0000  43.5000 Du        
   3044 ****       229.0000   2.0000  43.7500 Du        
   3045 ****       229.0000   2.0000  44.0000 Du        
   3046 ****       229.0000   2.0000  44.2500 Du        
   3047 ****       229.0000   2.0000  44.5000 Du        
   3048 ****       229.0000   2.0000  44.7500 Du        
   3049 ****       229.0000   2.2500  43.7500 Du        
   3050 ****       229.0000   2.2500  44.0000 Du        
   3051 ****       229.0000   2.2500  44.2500 Du        
   3052 ****       229.0000   2.2500  44.5000 Du        
   3053 ****       229.0000   2.2500  44.7500 Du        
   3054 ****       229.0000   2.5000  43.7500 Du        
   3055 ****       229.0000   2.5000  44.0000 Du        
   3056 ****       229.0000   2.5000  44.2500 Du        
   3057 ****       229.0000   2.5000  44.5000 Du        
   3058 ****       229.0000   2.7500  44.0000 Du        
   3059 ****       229.0000   2.7500  44.2500 Du        
   3060 ****       229.0000   2.7500  44.5000 Du        
   3061 ****       229.0000   3.0000  44.0000 Du        
   3062 ****       229.0000   3.0000  44.2500 Du        
   3063 ****       229.0000   3.0000  44.5000 Du        
   3064 ****       229.0000   3.2500  44.0000 Du        
   3065 ****       229.0000   3.2500  44.2500 Du        
   3066 ****       229.0000   3.2500  44.5000 Du        
   3067 ****       229.0000   3.2500  44.7500 Du        
   3068 ****       229.0000   3.5000  44.0000 Du        
   3069 ****       229.0000   3.5000  44.2500 Du        
   3070 ****       229.0000   3.5000  44.5000 Du        
   3071 ****       229.0000   3.5000  44.7500 Du        
   3072 ****       229.0000   3.7500  44.0000 Du        
   3073 ****       229.0000   3.7500  44.2500 Du        
   3074 ****       229.0000   3.7500  44.5000 Du        
   3075 ****       229.0000   3.7500  44.7500 Du        
   3076 ****       229.0000   4.0000  44.0000 Du        
   3077 ****       229.0000   4.0000  44.2500 Du        
   3078 ****       229.0000   4.0000  44.5000 Du        
   3079 ****       229.0000   4.0000  44.7500 Du        
   3080 ****       229.0000   4.2500  44.0000 Du        
   3081 ****       229.0000   4.2500  44.2500 Du        
   3082 ****       229.0000   4.2500  44.5000 Du        
   3083 ****       229.0000   4.2500  44.7500 Du        
   3084 ****       229.0000   4.2500  45.0000 Du        
   3085 ****       229.0000   4.5000  44.0000 Du        
   3086 ****       229.0000   4.5000  44.2500 Du        
   3087 ****       229.0000   4.5000  44.5000 Du        
   3088 ****       229.0000   4.5000  44.7500 Du        
   3089 ****       229.0000   4.5000  45.0000 Du        
   3090 ****       229.0000   4.7500  43.7500 Du        
   3091 ****       229.0000   4.7500  44.0000 Du        
   3092 ****       229.0000   4.7500  44.2500 Du        
   3093 ****       229.0000   4.7500  44.5000 Du        
   3094 ****       229.0000   4.7500  44.7500 Du        
   3095 ****       229.0000   4.7500  45.0000 Du        
   3096 ****       229.0000   4.7500  45.2500 Du        
   3097 ****       229.0000   5.0000  43.7500 Du        
   3098 ****       229.0000   5.0000  44.0000 Du        
   3099 ****       229.0000   5.0000  44.2500 Du        
   3100 ****       229.0000   5.0000  44.5000 Du        
   3101 ****       229.0000   5.0000  44.7500 Du        
   3102 ****       229.0000   5.0000  45.0000 Du        
   3103 ****       229.0000   5.0000  45.2500 Du        
   3104 ****       229.0000   5.0000  45.5000 Du        
   3105 ****       229.0000   5.2500  43.7500 Du        
   3106 ****       229.0000   5.2500  44.0000 Du        
   3107 ****       229.0000   5.2500  44.2500 Du        
   3108 ****       229.0000   5.2500  44.5000 Du        
   3109 ****       229.0000   5.2500  44.7500 Du        
   3110 ****       229.0000   5.2500  45.0000 Du        
   3111 ****       229.0000   5.2500  45.2500 Du        
   3112 ****       229.0000   5.2500  45.5000 Du        
   3113 ****       229.0000   5.5000  43.7500 Du        
   3114 ****       229.0000   5.5000  44.0000 Du        
   3115 ****       229.0000   5.5000  44.2500 Du        
   3116 ****       229.0000   5.5000  44.5000 Du        
   3117 ****       229.0000   5.5000  44.7500 Du        
   3118 ****       229.0000   5.5000  45.0000 Du        
   3119 ****       229.0000   5.5000  45.2500 Du        
   3120 ****       229.0000   5.5000  45.5000 Du        
   3121 ****       229.0000   5.5000  45.7500 Du        
   3122 ****       229.0000   5.7500  44.0000 Du        
   3123 ****       229.0000   5.7500  44.2500 Du        
   3124 ****       229.0000   5.7500  44.5000 Du        
   3125 ****       229.0000   5.7500  44.7500 Du        
   3126 ****       229.0000   5.7500  45.0000 Du        
   3127 ****       229.0000   5.7500  45.2500 Du        
   3128 ****       229.0000   5.7500  45.5000 Du        
   3129 ****       229.0000   5.7500  45.7500 Du        
   3130 ****       229.0000   5.7500  46.0000 Du        
   3131 ****       229.0000   6.0000  44.2500 Du        
   3132 ****       229.0000   6.0000  44.5000 Du        
   3133 ****       229.0000   6.0000  44.7500 Du        
   3134 ****       229.0000   6.0000  45.0000 Du        
   3135 ****       229.0000   6.0000  45.2500 Du        
   3136 ****       229.0000   6.0000  45.5000 Du        
   3137 ****       229.0000   6.0000  45.7500 Du        
   3138 ****       229.0000   6.0000  46.0000 Du        
   3139 ****       229.0000   6.0000  46.2500 Du        
   3140 ****       229.0000   6.2500  44.5000 Du        
   3141 ****       229.0000   6.2500  44.7500 Du        
   3142 ****       229.0000   6.2500  45.0000 Du        
   3143 ****       229.0000   6.2500  45.2500 Du        
   3144 ****       229.0000   6.2500  45.5000 Du        
   3145 ****       229.0000   6.2500  45.7500 Du        
   3146 ****       229.0000   6.2500  46.0000 Du        
   3147 ****       229.0000   6.2500  46.2500 Du        
   3148 ****       229.0000   6.2500  46.5000 Du        
   3149 ****       229.0000   6.5000  45.0000 Du        
   3150 ****       229.0000   6.5000  45.2500 Du        
   3151 ****       229.0000   6.5000  45.5000 Du        
   3152 ****       229.0000   6.5000  45.7500 Du        
   3153 ****       229.0000   6.5000  46.0000 Du        
   3154 ****       229.0000   6.5000  46.2500 Du        
   3155 ****       229.0000   6.5000  46.5000 Du        
   3156 ****       229.0000   6.5000  46.7500 Du        
   3157 ****       229.0000   6.5000  47.0000 Du        
   3158 ****       229.0000   6.7500  45.2500 Du        
   3159 ****       229.0000   6.7500  45.5000 Du        
   3160 ****       229.0000   6.7500  45.7500 Du        
   3161 ****       229.0000   6.7500  46.0000 Du        
   3162 ****       229.0000   6.7500  46.2500 Du        
   3163 ****       229.0000   6.7500  46.5000 Du        
   3164 ****       229.0000   6.7500  46.7500 Du        
   3165 ****       229.0000   6.7500  47.0000 Du        
   3166 ****       229.0000   6.7500  47.2500 Du        
   3167 ****       229.0000   6.7500  47.5000 Du        
   3168 ****       229.0000   6.7500  47.7500 Du        
   3169 ****       229.0000   6.7500  48.0000 Du        
   3170 ****       229.0000   7.0000  45.5000 Du        
   3171 ****       229.0000   7.0000  45.7500 Du        
   3172 ****       229.0000   7.0000  46.0000 Du        
   3173 ****       229.0000   7.0000  46.2500 Du        
   3174 ****       229.0000   7.0000  46.5000 Du        
   3175 ****       229.0000   7.0000  46.7500 Du        
   3176 ****       229.0000   7.0000  47.0000 Du        
   3177 ****       229.0000   7.0000  47.2500 Du        
   3178 ****       229.0000   7.0000  47.5000 Du        
   3179 ****       229.0000   7.0000  47.7500 Du        
   3180 ****       229.0000   7.0000  48.0000 Du        
   3181 ****       229.0000   7.2500  45.7500 Du        
   3182 ****       229.0000   7.2500  46.0000 Du        
   3183 ****       229.0000   7.2500  46.2500 Du        
   3184 ****       229.0000   7.2500  46.5000 Du        
   3185 ****       229.0000   7.2500  46.7500 Du        
   3186 ****       229.0000   7.2500  47.0000 Du        
   3187 ****       229.0000   7.2500  47.2500 Du        
   3188 ****       229.0000   7.2500  47.5000 Du        
   3189 ****       229.0000   7.5000  45.7500 Du        
   3190 ****       229.0000   7.5000  46.0000 Du        
   3191 ****       229.0000   7.5000  46.2500 Du        
   3192 ****       229.0000   7.5000  46.5000 Du        
   3193 ****       229.0000   7.5000  46.7500 Du        
   3194 ****       229.0000   7.5000  47.0000 Du        
   3195 ****       229.0000   7.5000  47.2500 Du        
   3196 ****       229.0000   7.7500  46.0000 Du        
   3197 ****       229.0000   7.7500  46.2500 Du        
   3198 ****       229.0000   7.7500  46.5000 Du        
   3199 ****       229.0000   7.7500  46.7500 Du        
   3200 ****       229.2500  -1.2500  42.0000 Du        
   3201 ****       229.2500  -1.2500  42.5000 Du        
   3202 ****       229.2500  -1.2500  42.7500 Du        
   3203 ****       229.2500  -1.2500  43.0000 Du        
   3204 ****       229.2500  -1.2500  43.2500 Du        
   3205 ****       229.2500  -1.2500  43.5000 Du        
   3206 ****       229.2500  -1.0000  42.0000 Du        
   3207 ****       229.2500  -1.0000  42.2500 Du        
   3208 ****       229.2500  -1.0000  42.5000 Du        
   3209 ****       229.2500  -1.0000  42.7500 Du        
   3210 ****       229.2500  -1.0000  43.0000 Du        
   3211 ****       229.2500  -1.0000  43.2500 Du        
   3212 ****       229.2500  -1.0000  43.5000 Du        
   3213 ****       229.2500  -1.0000  43.7500 Du        
   3214 ****       229.2500  -1.0000  44.0000 Du        
   3215 ****       229.2500  -0.7500  42.0000 Du        
   3216 ****       229.2500  -0.7500  42.2500 Du        
   3217 ****       229.2500  -0.7500  42.5000 Du        
   3218 ****       229.2500  -0.7500  42.7500 Du        
   3219 ****       229.2500  -0.7500  43.0000 Du        
   3220 ****       229.2500  -0.7500  43.2500 Du        
   3221 ****       229.2500  -0.7500  43.5000 Du        
   3222 ****       229.2500  -0.7500  43.7500 Du        
   3223 ****       229.2500  -0.7500  44.0000 Du        
   3224 ****       229.2500  -0.7500  44.2500 Du        
   3225 ****       229.2500  -0.7500  44.5000 Du        
   3226 ****       229.2500  -0.5000  41.7500 Du        
   3227 ****       229.2500  -0.5000  42.0000 Du        
   3228 ****       229.2500  -0.5000  42.2500 Du        
   3229 ****       229.2500  -0.5000  42.5000 Du        
   3230 ****       229.2500  -0.5000  42.7500 Du        
   3231 ****       229.2500  -0.5000  43.0000 Du        
   3232 ****       229.2500  -0.5000  43.2500 Du        
   3233 ****       229.2500  -0.5000  43.5000 Du        
   3234 ****       229.2500  -0.5000  43.7500 Du        
   3235 ****       229.2500  -0.5000  44.0000 Du        
   3236 ****       229.2500  -0.5000  44.2500 Du        
   3237 ****       229.2500  -0.5000  44.5000 Du        
   3238 ****       229.2500  -0.5000  44.7500 Du        
   3239 ****       229.2500  -0.5000  45.0000 Du        
   3240 ****       229.2500  -0.2500  41.7500 Du        
   3241 ****       229.2500  -0.2500  42.0000 Du        
   3242 ****       229.2500  -0.2500  42.2500 Du        
   3243 ****       229.2500  -0.2500  42.5000 Du        
   3244 ****       229.2500  -0.2500  42.7500 Du        
   3245 ****       229.2500  -0.2500  43.0000 Du        
   3246 ****       229.2500  -0.2500  43.2500 Du        
   3247 ****       229.2500  -0.2500  43.5000 Du        
   3248 ****       229.2500  -0.2500  43.7500 Du        
   3249 ****       229.2500  -0.2500  44.0000 Du        
   3250 ****       229.2500  -0.2500  44.2500 Du        
   3251 ****       229.2500  -0.2500  44.5000 Du        
   3252 ****       229.2500  -0.2500  44.7500 Du        
   3253 ****       229.2500  -0.2500  45.0000 Du        
   3254 ****       229.2500  -0.2500  45.2500 Du        
   3255 ****       229.2500   0.0000  41.7500 Du        
   3256 ****       229.2500   0.0000  42.0000 Du        
   3257 ****       229.2500   0.0000  42.2500 Du        
   3258 ****       229.2500   0.0000  42.5000 Du        
   3259 ****       229.2500   0.0000  42.7500 Du        
   3260 ****       229.2500   0.0000  43.0000 Du        
   3261 ****       229.2500   0.0000  43.2500 Du        
   3262 ****       229.2500   0.0000  43.5000 Du        
   3263 ****       229.2500   0.0000  43.7500 Du        
   3264 ****       229.2500   0.0000  44.0000 Du        
   3265 ****       229.2500   0.0000  44.2500 Du        
   3266 ****       229.2500   0.0000  44.5000 Du        
   3267 ****       229.2500   0.0000  44.7500 Du        
   3268 ****       229.2500   0.0000  45.0000 Du        
   3269 ****       229.2500   0.0000  45.2500 Du        
   3270 ****       229.2500   0.2500  41.7500 Du        
   3271 ****       229.2500   0.2500  42.0000 Du        
   3272 ****       229.2500   0.2500  42.2500 Du        
   3273 ****       229.2500   0.2500  42.5000 Du        
   3274 ****       229.2500   0.2500  42.7500 Du        
   3275 ****       229.2500   0.2500  43.0000 Du        
   3276 ****       229.2500   0.2500  43.2500 Du        
   3277 ****       229.2500   0.2500  43.5000 Du        
   3278 ****       229.2500   0.2500  43.7500 Du        
   3279 ****       229.2500   0.2500  44.0000 Du        
   3280 ****       229.2500   0.2500  44.2500 Du        
   3281 ****       229.2500   0.2500  44.5000 Du        
   3282 ****       229.2500   0.2500  44.7500 Du        
   3283 ****       229.2500   0.2500  45.0000 Du        
   3284 ****       229.2500   0.2500  45.2500 Du        
   3285 ****       229.2500   0.5000  42.0000 Du        
   3286 ****       229.2500   0.5000  42.2500 Du        
   3287 ****       229.2500   0.5000  42.5000 Du        
   3288 ****       229.2500   0.5000  42.7500 Du        
   3289 ****       229.2500   0.5000  43.0000 Du        
   3290 ****       229.2500   0.5000  43.2500 Du        
   3291 ****       229.2500   0.5000  43.5000 Du        
   3292 ****       229.2500   0.5000  43.7500 Du        
   3293 ****       229.2500   0.5000  44.0000 Du        
   3294 ****       229.2500   0.5000  44.2500 Du        
   3295 ****       229.2500   0.5000  44.5000 Du        
   3296 ****       229.2500   0.5000  44.7500 Du        
   3297 ****       229.2500   0.5000  45.0000 Du        
   3298 ****       229.2500   0.5000  45.2500 Du        
   3299 ****       229.2500   0.7500  42.2500 Du        
   3300 ****       229.2500   0.7500  42.5000 Du        
   3301 ****       229.2500   0.7500  42.7500 Du        
   3302 ****       229.2500   0.7500  43.0000 Du        
   3303 ****       229.2500   0.7500  43.2500 Du        
   3304 ****       229.2500   0.7500  43.5000 Du        
   3305 ****       229.2500   0.7500  43.7500 Du        
   3306 ****       229.2500   0.7500  44.0000 Du        
   3307 ****       229.2500   0.7500  44.2500 Du        
   3308 ****       229.2500   0.7500  44.5000 Du        
   3309 ****       229.2500   0.7500  44.7500 Du        
   3310 ****       229.2500   0.7500  45.0000 Du        
   3311 ****       229.2500   1.0000  42.5000 Du        
   3312 ****       229.2500   1.0000  42.7500 Du        
   3313 ****       229.2500   1.0000  43.0000 Du        
   3314 ****       229.2500   1.0000  43.2500 Du        
   3315 ****       229.2500   1.0000  43.5000 Du        
   3316 ****       229.2500   1.0000  43.7500 Du        
   3317 ****       229.2500   1.0000  44.0000 Du        
   3318 ****       229.2500   1.0000  44.2500 Du        
   3319 ****       229.2500   1.0000  44.5000 Du        
   3320 ****       229.2500   1.0000  44.7500 Du        
   3321 ****       229.2500   1.0000  45.0000 Du        
   3322 ****       229.2500   1.2500  42.7500 Du        
   3323 ****       229.2500   1.2500  43.0000 Du        
   3324 ****       229.2500   1.2500  43.2500 Du        
   3325 ****       229.2500   1.2500  43.5000 Du        
   3326 ****       229.2500   1.2500  43.7500 Du        
   3327 ****       229.2500   1.2500  44.0000 Du        
   3328 ****       229.2500   1.2500  44.2500 Du        
   3329 ****       229.2500   1.2500  44.5000 Du        
   3330 ****       229.2500   1.2500  44.7500 Du        
   3331 ****       229.2500   1.5000  43.0000 Du        
   3332 ****       229.2500   1.5000  43.2500 Du        
   3333 ****       229.2500   1.5000  43.5000 Du        
   3334 ****       229.2500   1.5000  43.7500 Du        
   3335 ****       229.2500   1.5000  44.0000 Du        
   3336 ****       229.2500   1.5000  44.2500 Du        
   3337 ****       229.2500   1.5000  44.5000 Du        
   3338 ****       229.2500   1.7500  43.2500 Du        
   3339 ****       229.2500   1.7500  43.5000 Du        
   3340 ****       229.2500   1.7500  43.7500 Du        
   3341 ****       229.2500   1.7500  44.0000 Du        
   3342 ****       229.2500   1.7500  44.2500 Du        
   3343 ****       229.2500   1.7500  44.5000 Du        
   3344 ****       229.2500   2.0000  43.5000 Du        
   3345 ****       229.2500   2.0000  43.7500 Du        
   3346 ****       229.2500   2.0000  44.0000 Du        
   3347 ****       229.2500   2.0000  44.2500 Du        
   3348 ****       229.2500   2.0000  44.5000 Du        
   3349 ****       229.2500   2.2500  43.7500 Du        
   3350 ****       229.2500   2.2500  44.0000 Du        
   3351 ****       229.2500   2.2500  44.2500 Du        
   3352 ****       229.2500   2.5000  44.0000 Du        
   3353 ****       229.2500   2.5000  44.2500 Du        
   3354 ****       229.2500   2.7500  44.2500 Du        
   3355 ****       229.2500   3.7500  44.5000 Du        
   3356 ****       229.2500   4.0000  44.2500 Du        
   3357 ****       229.2500   4.0000  44.5000 Du        
   3358 ****       229.2500   4.2500  44.2500 Du        
   3359 ****       229.2500   4.2500  44.5000 Du        
   3360 ****       229.2500   4.2500  44.7500 Du        
   3361 ****       229.2500   4.5000  44.2500 Du        
   3362 ****       229.2500   4.5000  44.5000 Du        
   3363 ****       229.2500   4.5000  44.7500 Du        
   3364 ****       229.2500   4.5000  45.0000 Du        
   3365 ****       229.2500   4.7500  44.0000 Du        
   3366 ****       229.2500   4.7500  44.2500 Du        
   3367 ****       229.2500   4.7500  44.5000 Du        
   3368 ****       229.2500   4.7500  44.7500 Du        
   3369 ****       229.2500   4.7500  45.0000 Du        
   3370 ****       229.2500   5.0000  44.0000 Du        
   3371 ****       229.2500   5.0000  44.2500 Du        
   3372 ****       229.2500   5.0000  44.5000 Du        
   3373 ****       229.2500   5.0000  44.7500 Du        
   3374 ****       229.2500   5.0000  45.0000 Du        
   3375 ****       229.2500   5.0000  45.2500 Du        
   3376 ****       229.2500   5.2500  43.7500 Du        
   3377 ****       229.2500   5.2500  44.0000 Du        
   3378 ****       229.2500   5.2500  44.2500 Du        
   3379 ****       229.2500   5.2500  44.5000 Du        
   3380 ****       229.2500   5.2500  44.7500 Du        
   3381 ****       229.2500   5.2500  45.0000 Du        
   3382 ****       229.2500   5.2500  45.2500 Du        
   3383 ****       229.2500   5.5000  43.7500 Du        
   3384 ****       229.2500   5.5000  44.0000 Du        
   3385 ****       229.2500   5.5000  44.2500 Du        
   3386 ****       229.2500   5.5000  44.5000 Du        
   3387 ****       229.2500   5.5000  44.7500 Du        
   3388 ****       229.2500   5.5000  45.0000 Du        
   3389 ****       229.2500   5.5000  45.2500 Du        
   3390 ****       229.2500   5.5000  45.5000 Du        
   3391 ****       229.2500   5.7500  44.0000 Du        
   3392 ****       229.2500   5.7500  44.2500 Du        
   3393 ****       229.2500   5.7500  44.5000 Du        
   3394 ****       229.2500   5.7500  44.7500 Du        
   3395 ****       229.2500   5.7500  45.0000 Du        
   3396 ****       229.2500   5.7500  45.2500 Du        
   3397 ****       229.2500   5.7500  45.5000 Du        
   3398 ****       229.2500   5.7500  45.7500 Du        
   3399 ****       229.2500   6.0000  44.2500 Du        
   3400 ****       229.2500   6.0000  44.5000 Du        
   3401 ****       229.2500   6.0000  44.7500 Du        
   3402 ****       229.2500   6.0000  45.0000 Du        
   3403 ****       229.2500   6.0000  45.2500 Du        
   3404 ****       229.2500   6.0000  45.5000 Du        
   3405 ****       229.2500   6.0000  45.7500 Du        
   3406 ****       229.2500   6.0000  46.0000 Du        
   3407 ****       229.2500   6.2500  44.5000 Du        
   3408 ****       229.2500   6.2500  44.7500 Du        
   3409 ****       229.2500   6.2500  45.0000 Du        
   3410 ****       229.2500   6.2500  45.2500 Du        
   3411 ****       229.2500   6.2500  45.5000 Du        
   3412 ****       229.2500   6.2500  45.7500 Du        
   3413 ****       229.2500   6.2500  46.0000 Du        
   3414 ****       229.2500   6.2500  46.2500 Du        
   3415 ****       229.2500   6.5000  45.0000 Du        
   3416 ****       229.2500   6.5000  45.2500 Du        
   3417 ****       229.2500   6.5000  45.5000 Du        
   3418 ****       229.2500   6.5000  45.7500 Du        
   3419 ****       229.2500   6.5000  46.0000 Du        
   3420 ****       229.2500   6.5000  46.2500 Du        
   3421 ****       229.2500   6.5000  46.5000 Du        
   3422 ****       229.2500   6.7500  45.2500 Du        
   3423 ****       229.2500   6.7500  45.5000 Du        
   3424 ****       229.2500   6.7500  45.7500 Du        
   3425 ****       229.2500   6.7500  46.0000 Du        
   3426 ****       229.2500   6.7500  46.2500 Du        
   3427 ****       229.2500   6.7500  46.5000 Du        
   3428 ****       229.2500   6.7500  46.7500 Du        
   3429 ****       229.2500   6.7500  47.0000 Du        
   3430 ****       229.2500   7.0000  45.5000 Du        
   3431 ****       229.2500   7.0000  45.7500 Du        
   3432 ****       229.2500   7.0000  46.0000 Du        
   3433 ****       229.2500   7.0000  46.2500 Du        
   3434 ****       229.2500   7.0000  46.5000 Du        
   3435 ****       229.2500   7.0000  46.7500 Du        
   3436 ****       229.2500   7.0000  47.0000 Du        
   3437 ****       229.2500   7.0000  47.2500 Du        
   3438 ****       229.2500   7.2500  45.7500 Du        
   3439 ****       229.2500   7.2500  46.0000 Du        
   3440 ****       229.2500   7.2500  46.2500 Du        
   3441 ****       229.2500   7.2500  46.5000 Du        
   3442 ****       229.2500   7.2500  46.7500 Du        
   3443 ****       229.5000  -1.5000  42.5000 Du        
   3444 ****       229.5000  -1.2500  42.0000 Du        
   3445 ****       229.5000  -1.2500  42.2500 Du        
   3446 ****       229.5000  -1.2500  42.5000 Du        
   3447 ****       229.5000  -1.2500  42.7500 Du        
   3448 ****       229.5000  -1.2500  43.0000 Du        
   3449 ****       229.5000  -1.2500  43.2500 Du        
   3450 ****       229.5000  -1.2500  43.5000 Du        
   3451 ****       229.5000  -1.0000  41.7500 Du        
   3452 ****       229.5000  -1.0000  42.0000 Du        
   3453 ****       229.5000  -1.0000  42.2500 Du        
   3454 ****       229.5000  -1.0000  42.5000 Du        
   3455 ****       229.5000  -1.0000  42.7500 Du        
   3456 ****       229.5000  -1.0000  43.0000 Du        
   3457 ****       229.5000  -1.0000  43.2500 Du        
   3458 ****       229.5000  -1.0000  43.5000 Du        
   3459 ****       229.5000  -1.0000  43.7500 Du        
   3460 ****       229.5000  -0.7500  41.7500 Du        
   3461 ****       229.5000  -0.7500  42.0000 Du        
   3462 ****       229.5000  -0.7500  42.2500 Du        
   3463 ****       229.5000  -0.7500  42.5000 Du        
   3464 ****       229.5000  -0.7500  42.7500 Du        
   3465 ****       229.5000  -0.7500  43.0000 Du        
   3466 ****       229.5000  -0.7500  43.2500 Du        
   3467 ****       229.5000  -0.7500  43.5000 Du        
   3468 ****       229.5000  -0.7500  43.7500 Du        
   3469 ****       229.5000  -0.7500  44.0000 Du        
   3470 ****       229.5000  -0.7500  44.2500 Du        
   3471 ****       229.5000  -0.5000  41.7500 Du        
   3472 ****       229.5000  -0.5000  42.0000 Du        
   3473 ****       229.5000  -0.5000  42.2500 Du        
   3474 ****       229.5000  -0.5000  42.5000 Du        
   3475 ****       229.5000  -0.5000  42.7500 Du        
   3476 ****       229.5000  -0.5000  43.0000 Du        
   3477 ****       229.5000  -0.5000  43.2500 Du        
   3478 ****       229.5000  -0.5000  43.5000 Du        
   3479 ****       229.5000  -0.5000  43.7500 Du        
   3480 ****       229.5000  -0.5000  44.0000 Du        
   3481 ****       229.5000  -0.5000  44.2500 Du        
   3482 ****       229.5000  -0.5000  44.5000 Du        
   3483 ****       229.5000  -0.2500  41.7500 Du        
   3484 ****       229.5000  -0.2500  42.0000 Du        
   3485 ****       229.5000  -0.2500  42.2500 Du        
   3486 ****       229.5000  -0.2500  42.5000 Du        
   3487 ****       229.5000  -0.2500  42.7500 Du        
   3488 ****       229.5000  -0.2500  43.0000 Du        
   3489 ****       229.5000  -0.2500  43.2500 Du        
   3490 ****       229.5000  -0.2500  43.5000 Du        
   3491 ****       229.5000  -0.2500  43.7500 Du        
   3492 ****       229.5000  -0.2500  44.0000 Du        
   3493 ****       229.5000  -0.2500  44.2500 Du        
   3494 ****       229.5000  -0.2500  44.5000 Du        
   3495 ****       229.5000  -0.2500  44.7500 Du        
   3496 ****       229.5000   0.0000  41.7500 Du        
   3497 ****       229.5000   0.0000  42.0000 Du        
   3498 ****       229.5000   0.0000  42.2500 Du        
   3499 ****       229.5000   0.0000  42.5000 Du        
   3500 ****       229.5000   0.0000  42.7500 Du        
   3501 ****       229.5000   0.0000  43.0000 Du        
   3502 ****       229.5000   0.0000  43.2500 Du        
   3503 ****       229.5000   0.0000  43.5000 Du        
   3504 ****       229.5000   0.0000  43.7500 Du        
   3505 ****       229.5000   0.0000  44.0000 Du        
   3506 ****       229.5000   0.0000  44.2500 Du        
   3507 ****       229.5000   0.0000  44.5000 Du        
   3508 ****       229.5000   0.0000  44.7500 Du        
   3509 ****       229.5000   0.0000  45.0000 Du        
   3510 ****       229.5000   0.2500  41.7500 Du        
   3511 ****       229.5000   0.2500  42.0000 Du        
   3512 ****       229.5000   0.2500  42.2500 Du        
   3513 ****       229.5000   0.2500  42.5000 Du        
   3514 ****       229.5000   0.2500  42.7500 Du        
   3515 ****       229.5000   0.2500  43.0000 Du        
   3516 ****       229.5000   0.2500  43.2500 Du        
   3517 ****       229.5000   0.2500  43.5000 Du        
   3518 ****       229.5000   0.2500  43.7500 Du        
   3519 ****       229.5000   0.2500  44.0000 Du        
   3520 ****       229.5000   0.2500  44.2500 Du        
   3521 ****       229.5000   0.2500  44.5000 Du        
   3522 ****       229.5000   0.2500  44.7500 Du        
   3523 ****       229.5000   0.2500  45.0000 Du        
   3524 ****       229.5000   0.5000  42.0000 Du        
   3525 ****       229.5000   0.5000  42.2500 Du        
   3526 ****       229.5000   0.5000  42.5000 Du        
   3527 ****       229.5000   0.5000  42.7500 Du        
   3528 ****       229.5000   0.5000  43.0000 Du        
   3529 ****       229.5000   0.5000  43.2500 Du        
   3530 ****       229.5000   0.5000  43.5000 Du        
   3531 ****       229.5000   0.5000  43.7500 Du        
   3532 ****       229.5000   0.5000  44.0000 Du        
   3533 ****       229.5000   0.5000  44.2500 Du        
   3534 ****       229.5000   0.5000  44.5000 Du        
   3535 ****       229.5000   0.5000  44.7500 Du        
   3536 ****       229.5000   0.7500  42.2500 Du        
   3537 ****       229.5000   0.7500  42.5000 Du        
   3538 ****       229.5000   0.7500  42.7500 Du        
   3539 ****       229.5000   0.7500  43.0000 Du        
   3540 ****       229.5000   0.7500  43.2500 Du        
   3541 ****       229.5000   0.7500  43.5000 Du        
   3542 ****       229.5000   0.7500  43.7500 Du        
   3543 ****       229.5000   0.7500  44.0000 Du        
   3544 ****       229.5000   0.7500  44.2500 Du        
   3545 ****       229.5000   0.7500  44.5000 Du        
   3546 ****       229.5000   0.7500  44.7500 Du        
   3547 ****       229.5000   1.0000  42.5000 Du        
   3548 ****       229.5000   1.0000  42.7500 Du        
   3549 ****       229.5000   1.0000  43.0000 Du        
   3550 ****       229.5000   1.0000  43.2500 Du        
   3551 ****       229.5000   1.0000  43.5000 Du        
   3552 ****       229.5000   1.0000  43.7500 Du        
   3553 ****       229.5000   1.0000  44.0000 Du        
   3554 ****       229.5000   1.0000  44.2500 Du        
   3555 ****       229.5000   1.0000  44.5000 Du        
   3556 ****       229.5000   1.2500  42.7500 Du        
   3557 ****       229.5000   1.2500  43.0000 Du        
   3558 ****       229.5000   1.2500  43.2500 Du        
   3559 ****       229.5000   1.2500  43.5000 Du        
   3560 ****       229.5000   1.2500  43.7500 Du        
   3561 ****       229.5000   1.2500  44.0000 Du        
   3562 ****       229.5000   1.2500  44.2500 Du        
   3563 ****       229.5000   1.2500  44.5000 Du        
   3564 ****       229.5000   1.5000  43.0000 Du        
   3565 ****       229.5000   1.5000  43.2500 Du        
   3566 ****       229.5000   1.5000  43.5000 Du        
   3567 ****       229.5000   1.5000  43.7500 Du        
   3568 ****       229.5000   1.5000  44.0000 Du        
   3569 ****       229.5000   1.5000  44.2500 Du        
   3570 ****       229.5000   1.7500  43.5000 Du        
   3571 ****       229.5000   1.7500  43.7500 Du        
   3572 ****       229.5000   1.7500  44.0000 Du        
   3573 ****       229.5000   1.7500  44.2500 Du        
   3574 ****       229.5000   2.0000  43.7500 Du        
   3575 ****       229.5000   2.0000  44.0000 Du        
   3576 ****       229.5000   2.0000  44.2500 Du        
   3577 ****       229.5000   2.2500  44.0000 Du        
   3578 ****       229.5000   2.2500  44.2500 Du        
   3579 ****       229.5000   4.5000  44.2500 Du        
   3580 ****       229.5000   4.5000  44.5000 Du        
   3581 ****       229.5000   4.5000  44.7500 Du        
   3582 ****       229.5000   4.7500  44.2500 Du        
   3583 ****       229.5000   4.7500  44.5000 Du        
   3584 ****       229.5000   4.7500  44.7500 Du        
   3585 ****       229.5000   4.7500  45.0000 Du        
   3586 ****       229.5000   5.0000  44.0000 Du        
   3587 ****       229.5000   5.0000  44.2500 Du        
   3588 ****       229.5000   5.0000  44.5000 Du        
   3589 ****       229.5000   5.0000  44.7500 Du        
   3590 ****       229.5000   5.0000  45.0000 Du        
   3591 ****       229.5000   5.2500  44.0000 Du        
   3592 ****       229.5000   5.2500  44.2500 Du        
   3593 ****       229.5000   5.2500  44.5000 Du        
   3594 ****       229.5000   5.2500  44.7500 Du        
   3595 ****       229.5000   5.2500  45.0000 Du        
   3596 ****       229.5000   5.2500  45.2500 Du        
   3597 ****       229.5000   5.5000  44.0000 Du        
   3598 ****       229.5000   5.5000  44.2500 Du        
   3599 ****       229.5000   5.5000  44.5000 Du        
   3600 ****       229.5000   5.5000  44.7500 Du        
   3601 ****       229.5000   5.5000  45.0000 Du        
   3602 ****       229.5000   5.5000  45.2500 Du        
   3603 ****       229.5000   5.5000  45.5000 Du        
   3604 ****       229.5000   5.7500  44.0000 Du        
   3605 ****       229.5000   5.7500  44.2500 Du        
   3606 ****       229.5000   5.7500  44.5000 Du        
   3607 ****       229.5000   5.7500  44.7500 Du        
   3608 ****       229.5000   5.7500  45.0000 Du        
   3609 ****       229.5000   5.7500  45.2500 Du        
   3610 ****       229.5000   5.7500  45.5000 Du        
   3611 ****       229.5000   6.0000  44.2500 Du        
   3612 ****       229.5000   6.0000  44.5000 Du        
   3613 ****       229.5000   6.0000  44.7500 Du        
   3614 ****       229.5000   6.0000  45.0000 Du        
   3615 ****       229.5000   6.0000  45.2500 Du        
   3616 ****       229.5000   6.0000  45.5000 Du        
   3617 ****       229.5000   6.0000  45.7500 Du        
   3618 ****       229.5000   6.2500  44.7500 Du        
   3619 ****       229.5000   6.2500  45.0000 Du        
   3620 ****       229.5000   6.2500  45.2500 Du        
   3621 ****       229.5000   6.2500  45.5000 Du        
   3622 ****       229.5000   6.2500  45.7500 Du        
   3623 ****       229.5000   6.2500  46.0000 Du        
   3624 ****       229.5000   6.5000  45.2500 Du        
   3625 ****       229.5000   6.5000  45.5000 Du        
   3626 ****       229.5000   6.5000  45.7500 Du        
   3627 ****       229.5000   6.5000  46.0000 Du        
   3628 ****       229.5000   6.7500  45.5000 Du        
   3629 ****       229.5000   6.7500  45.7500 Du        
   3630 ****       229.5000   6.7500  46.0000 Du        
   3631 ****       229.7500  -1.5000  42.5000 Du        
   3632 ****       229.7500  -1.5000  42.7500 Du        
   3633 ****       229.7500  -1.2500  42.0000 Du        
   3634 ****       229.7500  -1.2500  42.2500 Du        
   3635 ****       229.7500  -1.2500  42.5000 Du        
   3636 ****       229.7500  -1.2500  42.7500 Du        
   3637 ****       229.7500  -1.2500  43.0000 Du        
   3638 ****       229.7500  -1.2500  43.2500 Du        
   3639 ****       229.7500  -1.0000  42.0000 Du        
   3640 ****       229.7500  -1.0000  42.2500 Du        
   3641 ****       229.7500  -1.0000  42.5000 Du        
   3642 ****       229.7500  -1.0000  42.7500 Du        
   3643 ****       229.7500  -1.0000  43.0000 Du        
   3644 ****       229.7500  -1.0000  43.2500 Du        
   3645 ****       229.7500  -1.0000  43.5000 Du        
   3646 ****       229.7500  -1.0000  43.7500 Du        
   3647 ****       229.7500  -0.7500  42.0000 Du        
   3648 ****       229.7500  -0.7500  42.2500 Du        
   3649 ****       229.7500  -0.7500  42.5000 Du        
   3650 ****       229.7500  -0.7500  42.7500 Du        
   3651 ****       229.7500  -0.7500  43.0000 Du        
   3652 ****       229.7500  -0.7500  43.2500 Du        
   3653 ****       229.7500  -0.7500  43.5000 Du        
   3654 ****       229.7500  -0.7500  43.7500 Du        
   3655 ****       229.7500  -0.7500  44.0000 Du        
   3656 ****       229.7500  -0.5000  41.7500 Du        
   3657 ****       229.7500  -0.5000  42.0000 Du        
   3658 ****       229.7500  -0.5000  42.2500 Du        
   3659 ****       229.7500  -0.5000  42.5000 Du        
   3660 ****       229.7500  -0.5000  42.7500 Du        
   3661 ****       229.7500  -0.5000  43.0000 Du        
   3662 ****       229.7500  -0.5000  43.2500 Du        
   3663 ****       229.7500  -0.5000  43.5000 Du        
   3664 ****       229.7500  -0.5000  43.7500 Du        
   3665 ****       229.7500  -0.5000  44.0000 Du        
   3666 ****       229.7500  -0.5000  44.2500 Du        
   3667 ****       229.7500  -0.2500  41.7500 Du        
   3668 ****       229.7500  -0.2500  42.0000 Du        
   3669 ****       229.7500  -0.2500  42.2500 Du        
   3670 ****       229.7500  -0.2500  42.5000 Du        
   3671 ****       229.7500  -0.2500  42.7500 Du        
   3672 ****       229.7500  -0.2500  43.0000 Du        
   3673 ****       229.7500  -0.2500  43.2500 Du        
   3674 ****       229.7500  -0.2500  43.5000 Du        
   3675 ****       229.7500  -0.2500  43.7500 Du        
   3676 ****       229.7500  -0.2500  44.0000 Du        
   3677 ****       229.7500  -0.2500  44.2500 Du        
   3678 ****       229.7500  -0.2500  44.5000 Du        
   3679 ****       229.7500   0.0000  41.7500 Du        
   3680 ****       229.7500   0.0000  42.0000 Du        
   3681 ****       229.7500   0.0000  42.2500 Du        
   3682 ****       229.7500   0.0000  42.5000 Du        
   3683 ****       229.7500   0.0000  42.7500 Du        
   3684 ****       229.7500   0.0000  43.0000 Du        
   3685 ****       229.7500   0.0000  43.2500 Du        
   3686 ****       229.7500   0.0000  43.5000 Du        
   3687 ****       229.7500   0.0000  43.7500 Du        
   3688 ****       229.7500   0.0000  44.0000 Du        
   3689 ****       229.7500   0.0000  44.2500 Du        
   3690 ****       229.7500   0.0000  44.5000 Du        
   3691 ****       229.7500   0.2500  41.7500 Du        
   3692 ****       229.7500   0.2500  42.0000 Du        
   3693 ****       229.7500   0.2500  42.2500 Du        
   3694 ****       229.7500   0.2500  42.5000 Du        
   3695 ****       229.7500   0.2500  42.7500 Du        
   3696 ****       229.7500   0.2500  43.0000 Du        
   3697 ****       229.7500   0.2500  43.2500 Du        
   3698 ****       229.7500   0.2500  43.5000 Du        
   3699 ****       229.7500   0.2500  43.7500 Du        
   3700 ****       229.7500   0.2500  44.0000 Du        
   3701 ****       229.7500   0.2500  44.2500 Du        
   3702 ****       229.7500   0.2500  44.5000 Du        
   3703 ****       229.7500   0.5000  42.0000 Du        
   3704 ****       229.7500   0.5000  42.2500 Du        
   3705 ****       229.7500   0.5000  42.5000 Du        
   3706 ****       229.7500   0.5000  42.7500 Du        
   3707 ****       229.7500   0.5000  43.0000 Du        
   3708 ****       229.7500   0.5000  43.2500 Du        
   3709 ****       229.7500   0.5000  43.5000 Du        
   3710 ****       229.7500   0.5000  43.7500 Du        
   3711 ****       229.7500   0.5000  44.0000 Du        
   3712 ****       229.7500   0.5000  44.2500 Du        
   3713 ****       229.7500   0.5000  44.5000 Du        
   3714 ****       229.7500   0.7500  42.2500 Du        
   3715 ****       229.7500   0.7500  42.5000 Du        
   3716 ****       229.7500   0.7500  42.7500 Du        
   3717 ****       229.7500   0.7500  43.0000 Du        
   3718 ****       229.7500   0.7500  43.2500 Du        
   3719 ****       229.7500   0.7500  43.5000 Du        
   3720 ****       229.7500   0.7500  43.7500 Du        
   3721 ****       229.7500   0.7500  44.0000 Du        
   3722 ****       229.7500   0.7500  44.2500 Du        
   3723 ****       229.7500   1.0000  42.5000 Du        
   3724 ****       229.7500   1.0000  42.7500 Du        
   3725 ****       229.7500   1.0000  43.0000 Du        
   3726 ****       229.7500   1.0000  43.2500 Du        
   3727 ****       229.7500   1.0000  43.5000 Du        
   3728 ****       229.7500   1.0000  43.7500 Du        
   3729 ****       229.7500   1.0000  44.0000 Du        
   3730 ****       229.7500   1.0000  44.2500 Du        
   3731 ****       229.7500   1.2500  42.7500 Du        
   3732 ****       229.7500   1.2500  43.0000 Du        
   3733 ****       229.7500   1.2500  43.2500 Du        
   3734 ****       229.7500   1.2500  43.5000 Du        
   3735 ****       229.7500   1.2500  43.7500 Du        
   3736 ****       229.7500   1.2500  44.0000 Du        
   3737 ****       229.7500   1.2500  44.2500 Du        
   3738 ****       229.7500   1.5000  43.2500 Du        
   3739 ****       229.7500   1.5000  43.5000 Du        
   3740 ****       229.7500   1.5000  43.7500 Du        
   3741 ****       229.7500   1.5000  44.0000 Du        
   3742 ****       229.7500   1.5000  44.2500 Du        
   3743 ****       229.7500   1.7500  43.5000 Du        
   3744 ****       229.7500   1.7500  43.7500 Du        
   3745 ****       229.7500   1.7500  44.0000 Du        
   3746 ****       229.7500   1.7500  44.2500 Du        
   3747 ****       229.7500   2.0000  43.7500 Du        
   3748 ****       229.7500   2.0000  44.0000 Du        
   3749 ****       229.7500   4.7500  44.2500 Du        
   3750 ****       229.7500   4.7500  44.5000 Du        
   3751 ****       229.7500   4.7500  44.7500 Du        
   3752 ****       229.7500   5.0000  44.2500 Du        
   3753 ****       229.7500   5.0000  44.5000 Du        
   3754 ****       229.7500   5.0000  44.7500 Du        
   3755 ****       229.7500   5.0000  45.0000 Du        
   3756 ****       229.7500   5.2500  44.2500 Du        
   3757 ****       229.7500   5.2500  44.5000 Du        
   3758 ****       229.7500   5.2500  44.7500 Du        
   3759 ****       229.7500   5.2500  45.0000 Du        
   3760 ****       229.7500   5.5000  44.0000 Du        
   3761 ****       229.7500   5.5000  44.2500 Du        
   3762 ****       229.7500   5.5000  44.5000 Du        
   3763 ****       229.7500   5.5000  44.7500 Du        
   3764 ****       229.7500   5.5000  45.0000 Du        
   3765 ****       229.7500   5.5000  45.2500 Du        
   3766 ****       229.7500   5.7500  44.2500 Du        
   3767 ****       229.7500   5.7500  44.5000 Du        
   3768 ****       229.7500   5.7500  44.7500 Du        
   3769 ****       229.7500   5.7500  45.0000 Du        
   3770 ****       229.7500   5.7500  45.2500 Du        
   3771 ****       229.7500   5.7500  45.5000 Du        
   3772 ****       229.7500   6.0000  44.5000 Du        
   3773 ****       229.7500   6.0000  44.7500 Du        
   3774 ****       229.7500   6.0000  45.0000 Du        
   3775 ****       229.7500   6.0000  45.2500 Du        
   3776 ****       229.7500   6.0000  45.5000 Du        
   3777 ****       229.7500   6.2500  44.7500 Du        
   3778 ****       229.7500   6.2500  45.0000 Du        
   3779 ****       229.7500   6.2500  45.2500 Du        
   3780 ****       229.7500   6.2500  45.5000 Du        
   3781 ****       230.0000  -1.5000  42.0000 Du        
   3782 ****       230.0000  -1.5000  42.2500 Du        
   3783 ****       230.0000  -1.5000  42.5000 Du        
   3784 ****       230.0000  -1.5000  42.7500 Du        
   3785 ****       230.0000  -1.2500  42.0000 Du        
   3786 ****       230.0000  -1.2500  42.2500 Du        
   3787 ****       230.0000  -1.2500  42.5000 Du        
   3788 ****       230.0000  -1.2500  42.7500 Du        
   3789 ****       230.0000  -1.2500  43.0000 Du        
   3790 ****       230.0000  -1.2500  43.2500 Du        
   3791 ****       230.0000  -1.0000  42.0000 Du        
   3792 ****       230.0000  -1.0000  42.2500 Du        
   3793 ****       230.0000  -1.0000  42.5000 Du        
   3794 ****       230.0000  -1.0000  42.7500 Du        
   3795 ****       230.0000  -1.0000  43.0000 Du        
   3796 ****       230.0000  -1.0000  43.2500 Du        
   3797 ****       230.0000  -1.0000  43.5000 Du        
   3798 ****       230.0000  -1.0000  43.7500 Du        
   3799 ****       230.0000  -0.7500  42.0000 Du        
   3800 ****       230.0000  -0.7500  42.2500 Du        
   3801 ****       230.0000  -0.7500  42.5000 Du        
   3802 ****       230.0000  -0.7500  42.7500 Du        
   3803 ****       230.0000  -0.7500  43.0000 Du        
   3804 ****       230.0000  -0.7500  43.2500 Du        
   3805 ****       230.0000  -0.7500  43.5000 Du        
   3806 ****       230.0000  -0.7500  43.7500 Du        
   3807 ****       230.0000  -0.7500  44.0000 Du        
   3808 ****       230.0000  -0.5000  42.0000 Du        
   3809 ****       230.0000  -0.5000  42.2500 Du        
   3810 ****       230.0000  -0.5000  42.5000 Du        
   3811 ****       230.0000  -0.5000  42.7500 Du        
   3812 ****       230.0000  -0.5000  43.0000 Du        
   3813 ****       230.0000  -0.5000  43.2500 Du        
   3814 ****       230.0000  -0.5000  43.5000 Du        
   3815 ****       230.0000  -0.5000  43.7500 Du        
   3816 ****       230.0000  -0.5000  44.0000 Du        
   3817 ****       230.0000  -0.2500  42.0000 Du        
   3818 ****       230.0000  -0.2500  42.2500 Du        
   3819 ****       230.0000  -0.2500  42.5000 Du        
   3820 ****       230.0000  -0.2500  42.7500 Du        
   3821 ****       230.0000  -0.2500  43.0000 Du        
   3822 ****       230.0000  -0.2500  43.2500 Du        
   3823 ****       230.0000  -0.2500  43.5000 Du        
   3824 ****       230.0000  -0.2500  43.7500 Du        
   3825 ****       230.0000  -0.2500  44.0000 Du        
   3826 ****       230.0000  -0.2500  44.2500 Du        
   3827 ****       230.0000   0.0000  42.0000 Du        
   3828 ****       230.0000   0.0000  42.2500 Du        
   3829 ****       230.0000   0.0000  42.5000 Du        
   3830 ****       230.0000   0.0000  42.7500 Du        
   3831 ****       230.0000   0.0000  43.0000 Du        
   3832 ****       230.0000   0.0000  43.2500 Du        
   3833 ****       230.0000   0.0000  43.5000 Du        
   3834 ****       230.0000   0.0000  43.7500 Du        
   3835 ****       230.0000   0.0000  44.0000 Du        
   3836 ****       230.0000   0.0000  44.2500 Du        
   3837 ****       230.0000   0.2500  42.0000 Du        
   3838 ****       230.0000   0.2500  42.2500 Du        
   3839 ****       230.0000   0.2500  42.5000 Du        
   3840 ****       230.0000   0.2500  42.7500 Du        
   3841 ****       230.0000   0.2500  43.0000 Du        
   3842 ****       230.0000   0.2500  43.2500 Du        
   3843 ****       230.0000   0.2500  43.5000 Du        
   3844 ****       230.0000   0.2500  43.7500 Du        
   3845 ****       230.0000   0.2500  44.0000 Du        
   3846 ****       230.0000   0.2500  44.2500 Du        
   3847 ****       230.0000   0.5000  42.0000 Du        
   3848 ****       230.0000   0.5000  42.2500 Du        
   3849 ****       230.0000   0.5000  42.5000 Du        
   3850 ****       230.0000   0.5000  42.7500 Du        
   3851 ****       230.0000   0.5000  43.0000 Du        
   3852 ****       230.0000   0.5000  43.2500 Du        
   3853 ****       230.0000   0.5000  43.5000 Du        
   3854 ****       230.0000   0.5000  43.7500 Du        
   3855 ****       230.0000   0.5000  44.0000 Du        
   3856 ****       230.0000   0.7500  42.2500 Du        
   3857 ****       230.0000   0.7500  42.5000 Du        
   3858 ****       230.0000   0.7500  42.7500 Du        
   3859 ****       230.0000   0.7500  43.0000 Du        
   3860 ****       230.0000   0.7500  43.2500 Du        
   3861 ****       230.0000   0.7500  43.5000 Du        
   3862 ****       230.0000   0.7500  43.7500 Du        
   3863 ****       230.0000   0.7500  44.0000 Du        
   3864 ****       230.0000   1.0000  42.5000 Du        
   3865 ****       230.0000   1.0000  42.7500 Du        
   3866 ****       230.0000   1.0000  43.0000 Du        
   3867 ****       230.0000   1.0000  43.2500 Du        
   3868 ****       230.0000   1.0000  43.5000 Du        
   3869 ****       230.0000   1.0000  43.7500 Du        
   3870 ****       230.0000   1.0000  44.0000 Du        
   3871 ****       230.0000   1.2500  43.0000 Du        
   3872 ****       230.0000   1.2500  43.2500 Du        
   3873 ****       230.0000   1.2500  43.5000 Du        
   3874 ****       230.0000   1.2500  43.7500 Du        
   3875 ****       230.0000   1.2500  44.0000 Du        
   3876 ****       230.0000   1.5000  43.2500 Du        
   3877 ****       230.0000   1.5000  43.5000 Du        
   3878 ****       230.0000   1.5000  43.7500 Du        
   3879 ****       230.0000   1.5000  44.0000 Du        
   3880 ****       230.0000   1.7500  43.7500 Du        
   3881 ****       230.0000   1.7500  44.0000 Du        
   3882 ****       230.0000   5.0000  44.5000 Du        
   3883 ****       230.0000   5.0000  44.7500 Du        
   3884 ****       230.0000   5.2500  44.2500 Du        
   3885 ****       230.0000   5.2500  44.5000 Du        
   3886 ****       230.0000   5.2500  44.7500 Du        
   3887 ****       230.0000   5.2500  45.0000 Du        
   3888 ****       230.0000   5.5000  44.2500 Du        
   3889 ****       230.0000   5.5000  44.5000 Du        
   3890 ****       230.0000   5.5000  44.7500 Du        
   3891 ****       230.0000   5.5000  45.0000 Du        
   3892 ****       230.0000   5.5000  45.2500 Du        
   3893 ****       230.0000   5.7500  44.2500 Du        
   3894 ****       230.0000   5.7500  44.5000 Du        
   3895 ****       230.0000   5.7500  44.7500 Du        
   3896 ****       230.0000   5.7500  45.0000 Du        
   3897 ****       230.0000   5.7500  45.2500 Du        
   3898 ****       230.0000   6.0000  44.5000 Du        
   3899 ****       230.0000   6.0000  44.7500 Du        
   3900 ****       230.0000   6.0000  45.0000 Du        
   3901 ****       230.0000   6.0000  45.2500 Du        
   3902 ****       230.2500  -1.5000  42.2500 Du        
   3903 ****       230.2500  -1.5000  42.5000 Du        
   3904 ****       230.2500  -1.5000  42.7500 Du        
   3905 ****       230.2500  -1.2500  42.2500 Du        
   3906 ****       230.2500  -1.2500  42.5000 Du        
   3907 ****       230.2500  -1.2500  42.7500 Du        
   3908 ****       230.2500  -1.2500  43.0000 Du        
   3909 ****       230.2500  -1.2500  43.2500 Du        
   3910 ****       230.2500  -1.0000  42.2500 Du        
   3911 ****       230.2500  -1.0000  42.5000 Du        
   3912 ****       230.2500  -1.0000  42.7500 Du        
   3913 ****       230.2500  -1.0000  43.0000 Du        
   3914 ****       230.2500  -1.0000  43.2500 Du        
   3915 ****       230.2500  -1.0000  43.5000 Du        
   3916 ****       230.2500  -0.7500  42.2500 Du        
   3917 ****       230.2500  -0.7500  42.5000 Du        
   3918 ****       230.2500  -0.7500  42.7500 Du        
   3919 ****       230.2500  -0.7500  43.0000 Du        
   3920 ****       230.2500  -0.7500  43.2500 Du        
   3921 ****       230.2500  -0.7500  43.5000 Du        
   3922 ****       230.2500  -0.7500  43.7500 Du        
   3923 ****       230.2500  -0.5000  42.2500 Du        
   3924 ****       230.2500  -0.5000  42.5000 Du        
   3925 ****       230.2500  -0.5000  42.7500 Du        
   3926 ****       230.2500  -0.5000  43.0000 Du        
   3927 ****       230.2500  -0.5000  43.2500 Du        
   3928 ****       230.2500  -0.5000  43.5000 Du        
   3929 ****       230.2500  -0.5000  43.7500 Du        
   3930 ****       230.2500  -0.5000  44.0000 Du        
   3931 ****       230.2500  -0.2500  42.2500 Du        
   3932 ****       230.2500  -0.2500  42.5000 Du        
   3933 ****       230.2500  -0.2500  42.7500 Du        
   3934 ****       230.2500  -0.2500  43.0000 Du        
   3935 ****       230.2500  -0.2500  43.2500 Du        
   3936 ****       230.2500  -0.2500  43.5000 Du        
   3937 ****       230.2500  -0.2500  43.7500 Du        
   3938 ****       230.2500  -0.2500  44.0000 Du        
   3939 ****       230.2500   0.0000  42.2500 Du        
   3940 ****       230.2500   0.0000  42.5000 Du        
   3941 ****       230.2500   0.0000  42.7500 Du        
   3942 ****       230.2500   0.0000  43.0000 Du        
   3943 ****       230.2500   0.0000  43.2500 Du        
   3944 ****       230.2500   0.0000  43.5000 Du        
   3945 ****       230.2500   0.0000  43.7500 Du        
   3946 ****       230.2500   0.0000  44.0000 Du        
   3947 ****       230.2500   0.2500  42.2500 Du        
   3948 ****       230.2500   0.2500  42.5000 Du        
   3949 ****       230.2500   0.2500  42.7500 Du        
   3950 ****       230.2500   0.2500  43.0000 Du        
   3951 ****       230.2500   0.2500  43.2500 Du        
   3952 ****       230.2500   0.2500  43.5000 Du        
   3953 ****       230.2500   0.2500  43.7500 Du        
   3954 ****       230.2500   0.2500  44.0000 Du        
   3955 ****       230.2500   0.5000  42.2500 Du        
   3956 ****       230.2500   0.5000  42.5000 Du        
   3957 ****       230.2500   0.5000  42.7500 Du        
   3958 ****       230.2500   0.5000  43.0000 Du        
   3959 ****       230.2500   0.5000  43.2500 Du        
   3960 ****       230.2500   0.5000  43.5000 Du        
   3961 ****       230.2500   0.5000  43.7500 Du        
   3962 ****       230.2500   0.7500  42.5000 Du        
   3963 ****       230.2500   0.7500  42.7500 Du        
   3964 ****       230.2500   0.7500  43.0000 Du        
   3965 ****       230.2500   0.7500  43.2500 Du        
   3966 ****       230.2500   0.7500  43.5000 Du        
   3967 ****       230.2500   0.7500  43.7500 Du        
   3968 ****       230.2500   1.0000  42.7500 Du        
   3969 ****       230.2500   1.0000  43.0000 Du        
   3970 ****       230.2500   1.0000  43.2500 Du        
   3971 ****       230.2500   1.0000  43.5000 Du        
   3972 ****       230.2500   1.0000  43.7500 Du        
   3973 ****       230.2500   1.2500  43.0000 Du        
   3974 ****       230.2500   1.2500  43.2500 Du        
   3975 ****       230.2500   1.2500  43.5000 Du        
   3976 ****       230.2500   1.2500  43.7500 Du        
   3977 ****       230.2500   5.2500  44.5000 Du        
   3978 ****       230.2500   5.2500  44.7500 Du        
   3979 ****       230.2500   5.5000  44.2500 Du        
   3980 ****       230.2500   5.5000  44.5000 Du        
   3981 ****       230.2500   5.5000  44.7500 Du        
   3982 ****       230.2500   5.5000  45.0000 Du        
   3983 ****       230.2500   5.7500  44.5000 Du        
   3984 ****       230.2500   5.7500  44.7500 Du        
   3985 ****       230.2500   5.7500  45.0000 Du        
   3986 ****       230.2500   6.0000  44.7500 Du        
   3987 ****       230.2500   6.0000  45.0000 Du        
   3988 ****       230.5000  -1.5000  42.5000 Du        
   3989 ****       230.5000  -1.5000  42.7500 Du        
   3990 ****       230.5000  -1.2500  42.5000 Du        
   3991 ****       230.5000  -1.2500  42.7500 Du        
   3992 ****       230.5000  -1.2500  43.0000 Du        
   3993 ****       230.5000  -1.0000  42.5000 Du        
   3994 ****       230.5000  -1.0000  42.7500 Du        
   3995 ****       230.5000  -1.0000  43.0000 Du        
   3996 ****       230.5000  -1.0000  43.2500 Du        
   3997 ****       230.5000  -0.7500  42.5000 Du        
   3998 ****       230.5000  -0.7500  42.7500 Du        
   3999 ****       230.5000  -0.7500  43.0000 Du        
   4000 ****       230.5000  -0.7500  43.2500 Du        
   4001 ****       230.5000  -0.7500  43.5000 Du        
   4002 ****       230.5000  -0.5000  42.5000 Du        
   4003 ****       230.5000  -0.5000  42.7500 Du        
   4004 ****       230.5000  -0.5000  43.0000 Du        
   4005 ****       230.5000  -0.5000  43.2500 Du        
   4006 ****       230.5000  -0.5000  43.5000 Du        
   4007 ****       230.5000  -0.5000  43.7500 Du        
   4008 ****       230.5000  -0.2500  42.5000 Du        
   4009 ****       230.5000  -0.2500  42.7500 Du        
   4010 ****       230.5000  -0.2500  43.0000 Du        
   4011 ****       230.5000  -0.2500  43.2500 Du        
   4012 ****       230.5000  -0.2500  43.5000 Du        
   4013 ****       230.5000  -0.2500  43.7500 Du        
   4014 ****       230.5000   0.0000  42.5000 Du        
   4015 ****       230.5000   0.0000  42.7500 Du        
   4016 ****       230.5000   0.0000  43.0000 Du        
   4017 ****       230.5000   0.0000  43.2500 Du        
   4018 ****       230.5000   0.0000  43.5000 Du        
   4019 ****       230.5000   0.0000  43.7500 Du        
   4020 ****       230.5000   0.2500  42.5000 Du        
   4021 ****       230.5000   0.2500  42.7500 Du        
   4022 ****       230.5000   0.2500  43.0000 Du        
   4023 ****       230.5000   0.2500  43.2500 Du        
   4024 ****       230.5000   0.2500  43.5000 Du        
   4025 ****       230.5000   0.5000  42.5000 Du        
   4026 ****       230.5000   0.5000  42.7500 Du        
   4027 ****       230.5000   0.5000  43.0000 Du        
   4028 ****       230.5000   0.5000  43.2500 Du        
   4029 ****       230.5000   0.5000  43.5000 Du        
   4030 ****       230.5000   0.7500  42.5000 Du        
   4031 ****       230.5000   0.7500  42.7500 Du        
   4032 ****       230.5000   0.7500  43.0000 Du        
   4033 ****       230.5000   0.7500  43.2500 Du        
   4034 ****       230.5000   0.7500  43.5000 Du        
   4035 ****       230.5000   1.0000  43.0000 Du        
   4036 ****       230.5000   1.0000  43.2500 Du        
   4037 ****       230.5000   5.5000  44.5000 Du        
   4038 ****       230.5000   5.5000  44.7500 Du        
   4039 ****       230.5000   5.7500  44.7500 Du        
   4040 ****       230.7500  -1.5000  42.5000 Du        
   4041 ****       230.7500  -1.5000  42.7500 Du        
   4042 ****       230.7500  -1.2500  42.5000 Du        
   4043 ****       230.7500  -1.2500  42.7500 Du        
   4044 ****       230.7500  -1.2500  43.0000 Du        
   4045 ****       230.7500  -1.0000  42.5000 Du        
   4046 ****       230.7500  -1.0000  42.7500 Du        
   4047 ****       230.7500  -1.0000  43.0000 Du        
   4048 ****       230.7500  -1.0000  43.2500 Du        
   4049 ****       230.7500  -0.7500  42.7500 Du        
   4050 ****       230.7500  -0.7500  43.0000 Du        
   4051 ****       230.7500  -0.7500  43.2500 Du        
   4052 ****       230.7500  -0.5000  42.7500 Du        
   4053 ****       230.7500  -0.5000  43.0000 Du        
   4054 ****       230.7500  -0.5000  43.2500 Du        
   4055 ****       230.7500  -0.2500  42.7500 Du        
   4056 ****       230.7500  -0.2500  43.0000 Du        
   4057 ****       230.7500  -0.2500  43.2500 Du        
   4058 ****       230.7500   0.0000  43.0000 Du        
   4059 ****       232.2500  -3.5000  41.7500 Du        
   4060 ****       232.2500  -3.2500  41.7500 Du        
   4061 ****       232.5000  -3.5000  41.5000 Du        
   4062 ****       232.5000  -3.5000  41.7500 Du        
   4063 ****       232.5000  -3.5000  42.0000 Du        
   4064 ****       232.5000  -3.2500  41.5000 Du        
   4065 ****       232.5000  -3.2500  41.7500 Du        
   4066 ****       232.7500  -3.7500  42.0000 Du        
   4067 ****       232.7500  -3.5000  41.5000 Du        
   4068 ****       232.7500  -3.5000  41.7500 Du        
   4069 ****       232.7500  -3.5000  42.0000 Du        
   4070 ****       232.7500  -3.2500  41.7500 Du        
   4071 ****       233.0000  -3.7500  41.7500 Du        
   4072 ****       233.0000  -3.7500  42.0000 Du        
   4073 ****       233.5000  -4.5000  42.7500 Du        
   4074 ****       233.5000  -4.2500  42.5000 Du        
   4075 ****       233.7500  -4.5000  42.7500 Du        
   4076 ****       233.7500  -4.5000  43.0000 Du        
   4077 ****       233.7500  -4.2500  42.5000 Du        
   4078 ****       234.0000  -4.5000  43.0000 Du        
   4079 ****       234.0000  -4.5000  43.2500 Du        
   4080 ****       234.2500  -5.2500  43.7500 Du        
   4081 ****       234.2500  -5.2500  44.0000 Du        
   4082 ****       234.2500  -4.5000  43.2500 Du        
   4083 ****       234.5000  -5.2500  43.7500 Du        
   4084 ****       234.5000  -5.2500  44.0000 Du        
   4085 ****       234.5000  -5.0000  43.7500 Du        
   4086 ****       234.5000  -5.0000  44.0000 Du        
   4087 ****       234.7500  -5.2500  44.0000 Du        
   4088 ****       234.7500  -5.0000  43.7500 Du        
   4089 ****       234.7500  -5.0000  44.0000 Du        
   4090 ****       235.0000  -5.2500  44.0000 Du        
