#       Name:                CT1002167954
#       Creating user name   hitesit
#       Creation time:       Sun Apr 16 23:09:02 2023


#       File generated by GOLD software.
#

@<TRIPOS>MOLECULE
CT1002167954|ligand_prepared|mol2|1|dock4
    29    30     1
SMALL
NO_CHARGES


@<TRIPOS>ATOM
      1 C1         228.7485   0.9835  44.0085 C.3            1 RES1               0.0000
      2 C2         228.4067   2.2595  44.8047 C.ar           1 RES1               0.0000
      3 C3         228.2533  -0.1907  44.8477 C.2            1 RES1               0.0000
      4 C4         228.0507   1.1224  42.6600 C.2            1 RES1               0.0000
      5 C5         230.2611   0.7968  43.7466 C.3            1 RES1               0.0000
      6 C6         227.1380   2.4369  45.3484 C.ar           1 RES1               0.0000
      7 C7         229.3488   3.2648  45.0058 C.ar           1 RES1               0.0000
      8 N8         227.1279  -0.8369  44.4284 N.am           1 RES1               0.0000
      9 O9         228.8190  -0.5196  45.8831 O.2            1 RES1               0.0000
     10 N10        227.0433   0.2417  42.3645 N.am           1 RES1               0.0000
     11 O11        228.3528   1.9971  41.8575 O.2            1 RES1               0.0000
     12 C12        230.6176  -0.5551  43.1487 C.3            1 RES1               0.0000
     13 C13        226.8233   3.5767  46.0695 C.ar           1 RES1               0.0000
     14 C14        229.0318   4.4040  45.7271 C.ar           1 RES1               0.0000
     15 C15        226.5297  -0.7123  43.2002 C.2            1 RES1               0.0000
     16 C16        227.7699   4.5607  46.2597 C.ar           1 RES1               0.0000
     17 O17        225.5862  -1.4307  42.8825 O.2            1 RES1               0.0000
     18 H18        230.6014   1.5855  43.0643 H              1 RES1               0.0000
     19 H19        230.8010   0.9172  44.6940 H              1 RES1               0.0000
     20 H20        226.3793   1.6745  45.2069 H              1 RES1               0.0000
     21 H21        230.3476   3.1635  44.5950 H              1 RES1               0.0000
     22 H22        226.6906  -1.4713  45.0890 H              1 RES1               0.0000
     23 H23        226.6390   0.3027  41.4355 H              1 RES1               0.0000
     24 H24        231.6903  -0.6337  42.9851 H              1 RES1               0.0000
     25 H25        230.3161  -1.3623  43.8130 H              1 RES1               0.0000
     26 H26        230.1176  -0.6980  42.1930 H              1 RES1               0.0000
     27 H27        225.8283   3.6959  46.4855 H              1 RES1               0.0000
     28 H28        229.7798   5.1761  45.8738 H              1 RES1               0.0000
     29 H29        227.5232   5.4534  46.8250 H              1 RES1               0.0000
@<TRIPOS>BOND
    1    1    2 1     
    2    1    3 1     
    3    1    4 1     
    4    1    5 1     
    5    2    6 ar    
    6    2    7 ar    
    7    3    8 1     
    8    3    9 2     
    9    4   10 1     
   10    4   11 2     
   11    5   12 1     
   12    5   18 1     
   13    5   19 1     
   14    6   13 ar    
   15    6   20 1     
   16    7   14 ar    
   17    7   21 1     
   18    8   15 1     
   19    8   22 1     
   20   10   15 1     
   21   10   23 1     
   22   12   24 1     
   23   12   25 1     
   24   12   26 1     
   25   13   16 ar    
   26   13   27 1     
   27   14   16 ar    
   28   14   28 1     
   29   15   17 2     
   30   16   29 1     
@<TRIPOS>SUBSTRUCTURE
      1 RES1           1
@<TRIPOS>SET
DONOR_HYDROGENS      STATIC     ATOMS    <user>   **** ""
2 22 23
ATOM$RED        STATIC     ATOMS    COLORGROUP SYSTEM
2 22 23
@<TRIPOS>COMMENT
> <Gold.Version>
2022.3.0

> <Gold.Id.Protein>
unknown|4d1n_clean|pdb

> <Gold.Protein.RotatedTorsions>
[ 1594 1544 1543 1542 ] final   -6.33 input   60.00 | X-H torsion
[ 4304 4284 4283 4280 ] final   24.59 input   59.98 | X-H torsion
[ 4344 4323 4324 4325 ] final -129.08 input  122.59 | X-H torsion
[ 4348 4328 4327 4324 ] final  -24.19 input   59.99 | X-H torsion
[ 6708 6672 6671 6669 ] final -119.07 input   60.02 | X-H torsion
[ 23762 23712 23713 23714 ] final   18.35 input   58.31 | X-H torsion
[ 23800 23787 23788 23789 ] final   23.80 input  -92.91 | X-H torsion
[ 6926 6895 6896 6897 ] final  -89.48 input  109.21 | X-H torsion
[ 4168 4129 4130 4131 ] final  -51.22 input  118.46 | X-H torsion
[ 4085 4052 4053 4054 ] final -135.17 input  111.71 | X-H torsion
[ 1354 1313 1314 1315 ] final  105.74 input  117.91 | X-H torsion
[ 1584 1536 1537 1538 ] final  123.09 input   95.51 | X-H torsion
[ 23828 23815 23816 23817 ] final  -97.30 input  -25.33 | X-H torsion
[ 1288 1260 1258 1255 ] final  -26.33 input   59.99 | X-H torsion
[ 25744 25716 25717 25718 ] final   48.44 input   66.04 | X-H torsion
[ 27193 4055 4054 4053 ] final -166.17 input   -0.00 | X-H torsion
[ 27195 4282 4281 4280 ] final   55.27 input    0.00 | X-H torsion
[ 27200 4326 4325 4324 ] final   47.31 input    0.00 | X-H torsion
[ 27211 23656 23655 23654 ] final  -91.27 input   -0.00 | X-H torsion
[ 27214 23715 23714 23713 ] final   -2.38 input    0.00 | X-H torsion
[ 27218 6898 6897 6896 ] final   68.55 input   -0.00 | X-H torsion
[ 27220 25719 25718 25717 ] final -118.93 input   -0.00 | X-H torsion
[ 27226 1316 1315 1314 ] final -156.97 input    0.00 | X-H torsion
[ 27230 23818 23817 23816 ] final   47.06 input    0.00 | X-H torsion
[ 27232 1257 1256 1255 ] final    6.14 input    0.00 | X-H torsion

> <Gold.Protein.ActiveResidues>
 ARG304  THR320  LEU321  LEU323  LYS324  GLN369  TYR370  SER372  SER373  TYR408 
 HIS412  ARG415  ASN416  TRP426  GLU670  CYS673  ARG674  GLY675  GLY676  TYR703 
 LEU705  THR706  PRO707 

> <Gold.Protein.RotatedAtoms>
  221.7891    5.1622   36.2209 H   0  0  0  0  0  0  0  0  0  0  0  0  # atno 1288 bound_to 1260
  223.6759    7.1943   36.8292 H   0  0  0  0  0  0  0  0  0  0  0  0  # atno 1354 bound_to 1313
  223.6104    8.5394   42.3841 H   0  0  0  0  0  0  0  0  0  0  0  0  # atno 1584 bound_to 1536
  223.6473    4.3312   45.6850 H   0  0  0  0  0  0  0  0  0  0  0  0  # atno 1594 bound_to 1544
  222.2380    3.9260   44.9124 H   0  0  0  0  0  0  0  0  0  0  0  0  # atno 1595 bound_to 1544
  223.2917    2.7388   45.3916 H   0  0  0  0  0  0  0  0  0  0  0  0  # atno 1596 bound_to 1544
  227.2022    0.6472   51.2740 H   0  0  0  0  0  0  0  0  0  0  0  0  # atno 4085 bound_to 4052
  229.6236   -0.8515   49.6332 H   0  0  0  0  0  0  0  0  0  0  0  0  # atno 4168 bound_to 4129
  225.4114   -3.8245   46.5527 H   0  0  0  0  0  0  0  0  0  0  0  0  # atno 4304 bound_to 4284
  227.8923   -3.4844   46.7428 H   0  0  0  0  0  0  0  0  0  0  0  0  # atno 4344 bound_to 4323
  231.4674   -4.6132   47.3171 H   0  0  0  0  0  0  0  0  0  0  0  0  # atno 4348 bound_to 4328
  231.3360   -0.5686   46.4514 H   0  0  0  0  0  0  0  0  0  0  0  0  # atno 6708 bound_to 6672
  238.7007    2.2354   42.9351 H   0  0  0  0  0  0  0  0  0  0  0  0  # atno 6926 bound_to 6895
  226.4681    0.7535   34.8466 H   0  0  0  0  0  0  0  0  0  0  0  0  # atno 23762 bound_to 23712
  226.2493    2.8669   35.9123 H   0  0  0  0  0  0  0  0  0  0  0  0  # atno 23800 bound_to 23787
  225.9707    4.4061   34.0650 H   0  0  0  0  0  0  0  0  0  0  0  0  # atno 23828 bound_to 23815
  231.0984    9.0299   46.1783 H   0  0  0  0  0  0  0  0  0  0  0  0  # atno 25744 bound_to 25716
  229.9427   -2.3196   48.2884 LP  0  0  0  0  0  0  0  0  0  0  0  0  # atno 27193 bound_to 4055
  228.8041   -1.2322   47.5663 LP  0  0  0  0  0  0  0  0  0  0  0  0  # atno 27194 bound_to 4055
  226.3081   -5.4905   46.0662 LP  0  0  0  0  0  0  0  0  0  0  0  0  # atno 27195 bound_to 4282
  227.8168   -6.3074   46.3042 LP  0  0  0  0  0  0  0  0  0  0  0  0  # atno 27196 bound_to 4282
  226.1746   -2.4305   46.2027 LP  0  0  0  0  0  0  0  0  0  0  0  0  # atno 27197 bound_to 4284
  224.6569   -2.4048   46.8048 LP  0  0  0  0  0  0  0  0  0  0  0  0  # atno 27198 bound_to 4284
  229.0238   -4.1577   47.8942 LP  0  0  0  0  0  0  0  0  0  0  0  0  # atno 27199 bound_to 4323
  230.7738   -6.0113   44.0691 LP  0  0  0  0  0  0  0  0  0  0  0  0  # atno 27200 bound_to 4326
  229.8734   -7.3384   44.7233 LP  0  0  0  0  0  0  0  0  0  0  0  0  # atno 27201 bound_to 4326
  232.4224   -3.3166   47.0824 LP  0  0  0  0  0  0  0  0  0  0  0  0  # atno 27202 bound_to 4328
  232.5150   -4.5961   46.0720 LP  0  0  0  0  0  0  0  0  0  0  0  0  # atno 27203 bound_to 4328
  232.0765    0.2665   45.2668 LP  0  0  0  0  0  0  0  0  0  0  0  0  # atno 27204 bound_to 6672
  231.8428    0.9528   46.7300 LP  0  0  0  0  0  0  0  0  0  0  0  0  # atno 27205 bound_to 6672
  225.3598   -1.5590   36.9564 LP  0  0  0  0  0  0  0  0  0  0  0  0  # atno 27211 bound_to 23656
  227.0042   -1.8151   37.4363 LP  0  0  0  0  0  0  0  0  0  0  0  0  # atno 27212 bound_to 23656
  227.3469   -0.4867   35.7150 LP  0  0  0  0  0  0  0  0  0  0  0  0  # atno 27213 bound_to 23712
  225.9929    2.8459   38.6978 LP  0  0  0  0  0  0  0  0  0  0  0  0  # atno 27214 bound_to 23715
  224.8874    3.7907   37.7569 LP  0  0  0  0  0  0  0  0  0  0  0  0  # atno 27215 bound_to 23715
  225.0889    1.6471   35.4438 LP  0  0  0  0  0  0  0  0  0  0  0  0  # atno 27216 bound_to 23787
  238.3701    2.3658   44.6409 LP  0  0  0  0  0  0  0  0  0  0  0  0  # atno 27217 bound_to 6895
  235.5368    5.6833   42.6414 LP  0  0  0  0  0  0  0  0  0  0  0  0  # atno 27218 bound_to 6898
  236.9979    5.9599   41.7534 LP  0  0  0  0  0  0  0  0  0  0  0  0  # atno 27219 bound_to 6898
  231.6998    6.2804   47.5769 LP  0  0  0  0  0  0  0  0  0  0  0  0  # atno 27220 bound_to 25719
  231.6020    7.0103   46.0092 LP  0  0  0  0  0  0  0  0  0  0  0  0  # atno 27221 bound_to 25719
  230.5703   -0.1672   50.9286 LP  0  0  0  0  0  0  0  0  0  0  0  0  # atno 27222 bound_to 4129
  228.9081    0.5594   51.6257 LP  0  0  0  0  0  0  0  0  0  0  0  0  # atno 27223 bound_to 4052
  222.4646    7.0794   38.0806 LP  0  0  0  0  0  0  0  0  0  0  0  0  # atno 27225 bound_to 1313
  224.5695    9.2974   41.3353 LP  0  0  0  0  0  0  0  0  0  0  0  0  # atno 27226 bound_to 1316
  225.3681    7.7683   41.1797 LP  0  0  0  0  0  0  0  0  0  0  0  0  # atno 27227 bound_to 1316
  222.9275    9.8290   43.3461 LP  0  0  0  0  0  0  0  0  0  0  0  0  # atno 27228 bound_to 1536
  225.9122    4.9059   35.7365 LP  0  0  0  0  0  0  0  0  0  0  0  0  # atno 27229 bound_to 23815
  228.6896    4.5172   34.7441 LP  0  0  0  0  0  0  0  0  0  0  0  0  # atno 27230 bound_to 23818
  229.5130    5.5542   35.8606 LP  0  0  0  0  0  0  0  0  0  0  0  0  # atno 27231 bound_to 23818
  220.8162    7.3952   39.5598 LP  0  0  0  0  0  0  0  0  0  0  0  0  # atno 27232 bound_to 1257
  222.4724    7.5183   40.0514 LP  0  0  0  0  0  0  0  0  0  0  0  0  # atno 27233 bound_to 1257
  220.5352    4.1582   36.4825 LP  0  0  0  0  0  0  0  0  0  0  0  0  # atno 27234 bound_to 1260
  221.5678    4.5130   37.6968 LP  0  0  0  0  0  0  0  0  0  0  0  0  # atno 27235 bound_to 1260

> <Gold.Score>
     Fitness  S(hb_ext) S(vdw_ext)  S(hb_int)    S(int)      intcor
     37.64       4.39      24.26       0.00      -0.11      -0.76

> <Gold.Goldscore.Fitness>
37.6361

> <Gold.Goldscore.Internal.Vdw>
-0.3828

> <Gold.Goldscore.Internal.Torsion>
-0.4894

> <Gold.Goldscore.External.Vdw>
24.2649

> <Gold.Goldscore.Internal.HBond>
0.0000

> <Gold.Goldscore.External.HBond>
4.3856

> <Gold.Goldscore.Internal.Correction>
-0.7585

> <Gold.Goldscore.Hbonds>
donor molecule, donor type, donor heavy atom, donor atom, acceptor molecule, acceptor atom, score
      P1  H  6672  6708       L1     9  0.02
      P1  H 23719 23770       L1    11  0.58
      L1  H     8    22       P1  4284  0.42

> <Gold.Goldscore.Internal.Vdw.Weighted>
-0.3828

> <Gold.Goldscore.Internal.Torsion.Weighted>
-0.4894

> <Gold.Goldscore.External.Vdw.Weighted>
33.3642

> <Gold.Goldscore.Internal.HBond.Weighted>
0.0000

> <Gold.Goldscore.External.HBond.Weighted>
4.3856

> <Gold.Goldscore.Internal.Correction.Weighted>
-0.7585

> <Gold.Rescore>
     Score     S(PLP)   S(hbond)     S(cho)   S(metal)  DE(clash)   DE(tors)     intcor
     32.25     -32.33       0.24       0.00       0.00       0.00       0.40       ----

> <Gold.PLP.Fitness>
32.2479

> <Gold.PLP.PLP>
-32.3307

> <Gold.PLP.part.hbond>
-2.0489

> <Gold.PLP.part.metal>
0.0000

> <Gold.PLP.part.buried>
-5.4443

> <Gold.PLP.part.nonpolar>
-25.2279

> <Gold.PLP.part.repulsive>
0.1635

> <Gold.PLP.ligand.clash>
0.0000

> <Gold.PLP.ligand.torsion>
0.4002

> <Gold.PLP.Chemscore.Hbond>
0.2392

> <Gold.PLP.Chemscore.CHOScore>
0.0000

> <Gold.PLP.Chemscore.Metal>
0.0000

> <Gold.Chemscore.Hbonds>
donor molecule, donor type, donor heavy atom, donor atom, acceptor molecule, acceptor atom, score
      P1  H 23719 23770       L1    11  0.89

> <Gold.PLP.Chemscore.Internal.Correction>
   9.000000E+99

