#       Name:                CT1002167954
#       Creating user name   hitesit
#       Creation time:       Sun Apr 16 23:09:00 2023


#       File generated by GOLD software.
#

@<TRIPOS>MOLECULE
CT1002167954|ligand_prepared|mol2|1|dock1
    29    30     1
SMALL
NO_CHARGES


@<TRIPOS>ATOM
      1 C1         228.1853   1.6702  44.1032 C.3            1 RES1               0.0000
      2 C2         228.4234   3.0435  44.7637 C.ar           1 RES1               0.0000
      3 C3         229.2405   1.5320  43.0097 C.2            1 RES1               0.0000
      4 C4         228.3036   0.6351  45.2164 C.2            1 RES1               0.0000
      5 C5         226.7875   1.5209  43.4586 C.3            1 RES1               0.0000
      6 C6         229.6171   3.7296  44.5615 C.ar           1 RES1               0.0000
      7 C7         227.4593   3.6370  45.5742 C.ar           1 RES1               0.0000
      8 N8         230.2793   0.6785  43.2384 N.am           1 RES1               0.0000
      9 O9         229.1831   2.1916  41.9792 O.2            1 RES1               0.0000
     10 N10        229.3433  -0.2556  45.1571 N.am           1 RES1               0.0000
     11 O11        227.5156   0.5934  46.1532 O.2            1 RES1               0.0000
     12 C12        226.6180   0.2436  42.6511 C.3            1 RES1               0.0000
     13 C13        229.8380   4.9658  45.1459 C.ar           1 RES1               0.0000
     14 C14        227.6824   4.8732  46.1579 C.ar           1 RES1               0.0000
     15 C15        230.3541  -0.2612  44.2349 C.2            1 RES1               0.0000
     16 C16        228.8708   5.5385  45.9441 C.ar           1 RES1               0.0000
     17 O17        231.2847  -1.0608  44.2791 O.2            1 RES1               0.0000
     18 H18        226.0292   1.5409  44.2510 H              1 RES1               0.0000
     19 H19        226.6082   2.3806  42.8012 H              1 RES1               0.0000
     20 H20        230.3909   3.2935  43.9385 H              1 RES1               0.0000
     21 H21        226.5173   3.1314  45.7574 H              1 RES1               0.0000
     22 H22        231.0740   0.7451  42.6105 H              1 RES1               0.0000
     23 H23        229.3656  -0.9818  45.8659 H              1 RES1               0.0000
     24 H24        225.6202   0.1888  42.2209 H              1 RES1               0.0000
     25 H25        227.3402   0.2024  41.8383 H              1 RES1               0.0000
     26 H26        226.7647  -0.6323  43.2796 H              1 RES1               0.0000
     27 H27        230.7755   5.4847  44.9756 H              1 RES1               0.0000
     28 H28        226.9186   5.3199  46.7859 H              1 RES1               0.0000
     29 H29        229.0439   6.5070  46.4014 H              1 RES1               0.0000
@<TRIPOS>BOND
    1    1    2 1     
    2    1    3 1     
    3    1    4 1     
    4    1    5 1     
    5    2    6 ar    
    6    2    7 ar    
    7    3    8 1     
    8    3    9 2     
    9    4   10 1     
   10    4   11 2     
   11    5   12 1     
   12    5   18 1     
   13    5   19 1     
   14    6   13 ar    
   15    6   20 1     
   16    7   14 ar    
   17    7   21 1     
   18    8   15 1     
   19    8   22 1     
   20   10   15 1     
   21   10   23 1     
   22   12   24 1     
   23   12   25 1     
   24   12   26 1     
   25   13   16 ar    
   26   13   27 1     
   27   14   16 ar    
   28   14   28 1     
   29   15   17 2     
   30   16   29 1     
@<TRIPOS>SUBSTRUCTURE
      1 RES1           1
@<TRIPOS>SET
DONOR_HYDROGENS      STATIC     ATOMS    <user>   **** ""
2 22 23
ATOM$RED        STATIC     ATOMS    COLORGROUP SYSTEM
2 22 23
@<TRIPOS>COMMENT
> <Gold.Version>
2022.3.0

> <Gold.Id.Protein>
unknown|4d1n_clean|pdb

> <Gold.Protein.RotatedTorsions>
[ 1594 1544 1543 1542 ] final -105.80 input   60.00 | X-H torsion
[ 4304 4284 4283 4280 ] final -138.54 input   59.98 | X-H torsion
[ 4344 4323 4324 4325 ] final  172.18 input  122.59 | X-H torsion
[ 4348 4328 4327 4324 ] final -144.21 input   59.99 | X-H torsion
[ 6708 6672 6671 6669 ] final -105.53 input   60.02 | X-H torsion
[ 23762 23712 23713 23714 ] final  100.14 input   58.31 | X-H torsion
[ 23800 23787 23788 23789 ] final -167.04 input  -92.91 | X-H torsion
[ 6926 6895 6896 6897 ] final  162.62 input  109.21 | X-H torsion
[ 4168 4129 4130 4131 ] final -130.48 input  118.46 | X-H torsion
[ 4085 4052 4053 4054 ] final  159.70 input  111.71 | X-H torsion
[ 1354 1313 1314 1315 ] final   14.25 input  117.91 | X-H torsion
[ 1584 1536 1537 1538 ] final  121.53 input   95.51 | X-H torsion
[ 23828 23815 23816 23817 ] final   97.08 input  -25.33 | X-H torsion
[ 1288 1260 1258 1255 ] final   14.00 input   59.99 | X-H torsion
[ 25744 25716 25717 25718 ] final    6.97 input   66.04 | X-H torsion
[ 27193 4055 4054 4053 ] final -143.46 input   -0.00 | X-H torsion
[ 27195 4282 4281 4280 ] final  137.13 input    0.00 | X-H torsion
[ 27200 4326 4325 4324 ] final  151.23 input    0.00 | X-H torsion
[ 27211 23656 23655 23654 ] final  103.61 input   -0.00 | X-H torsion
[ 27214 23715 23714 23713 ] final  -89.03 input    0.00 | X-H torsion
[ 27218 6898 6897 6896 ] final  -23.09 input   -0.00 | X-H torsion
[ 27220 25719 25718 25717 ] final   93.13 input   -0.00 | X-H torsion
[ 27226 1316 1315 1314 ] final -159.77 input    0.00 | X-H torsion
[ 27230 23818 23817 23816 ] final   73.64 input    0.00 | X-H torsion
[ 27232 1257 1256 1255 ] final  -41.20 input    0.00 | X-H torsion

> <Gold.Protein.ActiveResidues>
 ARG304  THR320  LEU321  LEU323  LYS324  GLN369  TYR370  SER372  SER373  TYR408 
 HIS412  ARG415  ASN416  TRP426  GLU670  CYS673  ARG674  GLY675  GLY676  TYR703 
 LEU705  THR706  PRO707 

> <Gold.Protein.RotatedAtoms>
  222.0555    5.1635   36.8090 H   0  0  0  0  0  0  0  0  0  0  0  0  # atno 1288 bound_to 1260
  223.0102    8.0125   37.5189 H   0  0  0  0  0  0  0  0  0  0  0  0  # atno 1354 bound_to 1313
  223.6277    8.5545   42.3767 H   0  0  0  0  0  0  0  0  0  0  0  0  # atno 1584 bound_to 1536
  223.5620    2.8801   45.5443 H   0  0  0  0  0  0  0  0  0  0  0  0  # atno 1594 bound_to 1544
  223.3970    4.5292   45.5654 H   0  0  0  0  0  0  0  0  0  0  0  0  # atno 1595 bound_to 1544
  222.2179    3.5867   44.8792 H   0  0  0  0  0  0  0  0  0  0  0  0  # atno 1596 bound_to 1544
  227.7556    1.4116   51.3002 H   0  0  0  0  0  0  0  0  0  0  0  0  # atno 4085 bound_to 4052
  230.4503   -0.0983   49.5923 H   0  0  0  0  0  0  0  0  0  0  0  0  # atno 4168 bound_to 4129
  225.6710   -1.9974   46.3921 H   0  0  0  0  0  0  0  0  0  0  0  0  # atno 4304 bound_to 4284
  228.5192   -2.9783   47.0709 H   0  0  0  0  0  0  0  0  0  0  0  0  # atno 4344 bound_to 4323
  232.4194   -3.3219   47.0795 H   0  0  0  0  0  0  0  0  0  0  0  0  # atno 4348 bound_to 4328
  231.3161   -0.4546   46.6395 H   0  0  0  0  0  0  0  0  0  0  0  0  # atno 6708 bound_to 6672
  238.0507    1.6114   44.0239 H   0  0  0  0  0  0  0  0  0  0  0  0  # atno 6926 bound_to 6895
  227.6132    0.5796   34.9776 H   0  0  0  0  0  0  0  0  0  0  0  0  # atno 23762 bound_to 23712
  225.0337    1.6325   35.6003 H   0  0  0  0  0  0  0  0  0  0  0  0  # atno 23800 bound_to 23787
  225.7118    4.9832   35.6931 H   0  0  0  0  0  0  0  0  0  0  0  0  # atno 23828 bound_to 23815
  231.4349    8.7680   45.7191 H   0  0  0  0  0  0  0  0  0  0  0  0  # atno 25744 bound_to 25716
  229.6477   -2.4433   48.4063 LP  0  0  0  0  0  0  0  0  0  0  0  0  # atno 27193 bound_to 4055
  229.0991   -1.1085   47.4484 LP  0  0  0  0  0  0  0  0  0  0  0  0  # atno 27194 bound_to 4055
  227.2758   -5.4519   45.4748 LP  0  0  0  0  0  0  0  0  0  0  0  0  # atno 27195 bound_to 4282
  226.8491   -6.3461   46.8955 LP  0  0  0  0  0  0  0  0  0  0  0  0  # atno 27196 bound_to 4282
  224.5598   -3.0882   46.8648 LP  0  0  0  0  0  0  0  0  0  0  0  0  # atno 27197 bound_to 4284
  226.0103   -3.5865   46.3043 LP  0  0  0  0  0  0  0  0  0  0  0  0  # atno 27198 bound_to 4284
  228.4144   -4.6498   47.5752 LP  0  0  0  0  0  0  0  0  0  0  0  0  # atno 27199 bound_to 4323
  230.9256   -7.1678   44.7765 LP  0  0  0  0  0  0  0  0  0  0  0  0  # atno 27200 bound_to 4326
  229.7216   -6.1819   44.0159 LP  0  0  0  0  0  0  0  0  0  0  0  0  # atno 27201 bound_to 4326
  232.5148   -4.5964   46.0720 LP  0  0  0  0  0  0  0  0  0  0  0  0  # atno 27202 bound_to 4328
  231.4638   -4.6168   47.3217 LP  0  0  0  0  0  0  0  0  0  0  0  0  # atno 27203 bound_to 4328
  231.9983    0.0588   45.2539 LP  0  0  0  0  0  0  0  0  0  0  0  0  # atno 27204 bound_to 6672
  231.9410    1.0458   46.5536 LP  0  0  0  0  0  0  0  0  0  0  0  0  # atno 27205 bound_to 6672
  226.9759   -1.6157   37.5349 LP  0  0  0  0  0  0  0  0  0  0  0  0  # atno 27211 bound_to 23656
  225.3880   -1.7584   36.8578 LP  0  0  0  0  0  0  0  0  0  0  0  0  # atno 27212 bound_to 23656
  226.2405   -0.3186   35.5885 LP  0  0  0  0  0  0  0  0  0  0  0  0  # atno 27213 bound_to 23712
  224.8372    2.7355   38.4436 LP  0  0  0  0  0  0  0  0  0  0  0  0  # atno 27214 bound_to 23715
  226.0432    3.9010   38.0110 LP  0  0  0  0  0  0  0  0  0  0  0  0  # atno 27215 bound_to 23715
  226.2760    2.8526   35.7486 LP  0  0  0  0  0  0  0  0  0  0  0  0  # atno 27216 bound_to 23787
  239.0158    2.9857   43.5591 LP  0  0  0  0  0  0  0  0  0  0  0  0  # atno 27217 bound_to 6895
  236.1309    5.1213   41.7065 LP  0  0  0  0  0  0  0  0  0  0  0  0  # atno 27218 bound_to 6898
  236.4038    6.5219   42.6883 LP  0  0  0  0  0  0  0  0  0  0  0  0  # atno 27219 bound_to 6898
  231.8643    6.6143   45.9543 LP  0  0  0  0  0  0  0  0  0  0  0  0  # atno 27220 bound_to 25719
  231.4375    6.6764   47.6318 LP  0  0  0  0  0  0  0  0  0  0  0  0  # atno 27221 bound_to 25719
  229.7532   -0.9116   50.9690 LP  0  0  0  0  0  0  0  0  0  0  0  0  # atno 27222 bound_to 4129
  228.3609   -0.1964   51.5998 LP  0  0  0  0  0  0  0  0  0  0  0  0  # atno 27223 bound_to 4052
  223.1195    6.2745   37.4020 LP  0  0  0  0  0  0  0  0  0  0  0  0  # atno 27225 bound_to 1313
  224.6060    9.3163   41.3254 LP  0  0  0  0  0  0  0  0  0  0  0  0  # atno 27226 bound_to 1316
  225.3316    7.7494   41.1895 LP  0  0  0  0  0  0  0  0  0  0  0  0  # atno 27227 bound_to 1316
  222.9106    9.8143   43.3533 LP  0  0  0  0  0  0  0  0  0  0  0  0  # atno 27228 bound_to 1536
  226.1666    4.3385   34.1361 LP  0  0  0  0  0  0  0  0  0  0  0  0  # atno 27229 bound_to 23815
  229.0162    4.6262   34.5440 LP  0  0  0  0  0  0  0  0  0  0  0  0  # atno 27230 bound_to 23818
  229.1864    5.4452   36.0607 LP  0  0  0  0  0  0  0  0  0  0  0  0  # atno 27231 bound_to 23818
  221.0557    8.0477   39.5727 LP  0  0  0  0  0  0  0  0  0  0  0  0  # atno 27232 bound_to 1257
  222.2329    6.8657   40.0385 LP  0  0  0  0  0  0  0  0  0  0  0  0  # atno 27233 bound_to 1257
  220.8012    4.5092   36.0045 LP  0  0  0  0  0  0  0  0  0  0  0  0  # atno 27234 bound_to 1260
  221.0336    4.1607   37.5828 LP  0  0  0  0  0  0  0  0  0  0  0  0  # atno 27235 bound_to 1260

> <Gold.Score>
     Fitness  S(hb_ext) S(vdw_ext)  S(hb_int)    S(int)      intcor
     38.99       6.42      24.80       0.00      -1.53      -0.76

> <Gold.Goldscore.Fitness>
38.9903

> <Gold.Goldscore.Internal.Vdw>
-1.8299

> <Gold.Goldscore.Internal.Torsion>
-0.4631

> <Gold.Goldscore.External.Vdw>
24.8000

> <Gold.Goldscore.Internal.HBond>
0.0000

> <Gold.Goldscore.External.HBond>
6.4249

> <Gold.Goldscore.Internal.Correction>
-0.7585

> <Gold.Goldscore.Hbonds>
donor molecule, donor type, donor heavy atom, donor atom, acceptor molecule, acceptor atom, score
      P1  H 23719 23770       L1     9  0.96
      P1  H 23722 23774       L1     9  0.06
      L1  H    10    23       P1  4055  0.15

> <Gold.Goldscore.Internal.Vdw.Weighted>
-1.8299

> <Gold.Goldscore.Internal.Torsion.Weighted>
-0.4631

> <Gold.Goldscore.External.Vdw.Weighted>
34.1000

> <Gold.Goldscore.Internal.HBond.Weighted>
0.0000

> <Gold.Goldscore.External.HBond.Weighted>
6.4249

> <Gold.Goldscore.Internal.Correction.Weighted>
-0.7585

> <Gold.Rescore>
     Score     S(PLP)   S(hbond)     S(cho)   S(metal)  DE(clash)   DE(tors)     intcor
     30.49     -29.66       1.00       0.00       0.00       2.01       0.08       ----

> <Gold.PLP.Fitness>
30.4887

> <Gold.PLP.PLP>
-29.6572

> <Gold.PLP.part.hbond>
-2.7827

> <Gold.PLP.part.metal>
0.0000

> <Gold.PLP.part.buried>
-3.4374

> <Gold.PLP.part.nonpolar>
-26.4228

> <Gold.PLP.part.repulsive>
2.4544

> <Gold.PLP.ligand.clash>
2.0062

> <Gold.PLP.ligand.torsion>
0.0811

> <Gold.PLP.Chemscore.Hbond>
1.0000

> <Gold.PLP.Chemscore.CHOScore>
0.0000

> <Gold.PLP.Chemscore.Metal>
0.0000

> <Gold.Chemscore.Hbonds>
donor molecule, donor type, donor heavy atom, donor atom, acceptor molecule, acceptor atom, score
      P1  H 23719 23770       L1     9  1.00
      P1  H 23722 23774       L1     9  0.34

> <Gold.PLP.Chemscore.Internal.Correction>
   9.000000E+99

