#       Name:                CT1002167954
#       Creating user name   hitesit
#       Creation time:       Sun Apr 16 23:09:03 2023


#       File generated by GOLD software.
#

@<TRIPOS>MOLECULE
CT1002167954|ligand_prepared|mol2|1|dock6
    29    30     1
SMALL
NO_CHARGES


@<TRIPOS>ATOM
      1 C1         228.1265   1.6190  44.3186 C.3            1 RES1               0.0000
      2 C2         228.0996   3.1042  44.7338 C.ar           1 RES1               0.0000
      3 C3         227.4852   1.5490  42.9359 C.2            1 RES1               0.0000
      4 C4         229.5906   1.1944  44.3476 C.2            1 RES1               0.0000
      5 C5         227.3405   0.6893  45.2722 C.3            1 RES1               0.0000
      6 C6         227.5802   3.4858  45.9672 C.ar           1 RES1               0.0000
      7 C7         228.5922   4.1019  43.8968 C.ar           1 RES1               0.0000
      8 N8         228.3075   1.3416  41.8678 N.am           1 RES1               0.0000
      9 O9         226.2813   1.7129  42.7808 O.2            1 RES1               0.0000
     10 N10        230.1840   0.8538  43.1603 N.am           1 RES1               0.0000
     11 O11        230.2404   1.1677  45.3855 O.2            1 RES1               0.0000
     12 C12        227.2819  -0.7574  44.8078 C.3            1 RES1               0.0000
     13 C13        227.5567   4.8163  46.3513 C.ar           1 RES1               0.0000
     14 C14        228.5675   5.4319  44.2828 C.ar           1 RES1               0.0000
     15 C15        229.6174   0.9376  41.9176 C.2            1 RES1               0.0000
     16 C16        228.0506   5.7901  45.5097 C.ar           1 RES1               0.0000
     17 O17        230.2329   0.6654  40.8909 O.2            1 RES1               0.0000
     18 H18        227.8086   0.7232  46.2637 H              1 RES1               0.0000
     19 H19        226.3164   1.0698  45.3718 H              1 RES1               0.0000
     20 H20        227.1848   2.7337  46.6418 H              1 RES1               0.0000
     21 H21        229.0025   3.8434  42.9266 H              1 RES1               0.0000
     22 H22        227.9118   1.5016  40.9469 H              1 RES1               0.0000
     23 H23        231.1362   0.5053  43.2072 H              1 RES1               0.0000
     24 H24        226.7193  -1.3663  45.5124 H              1 RES1               0.0000
     25 H25        226.7993  -0.8312  43.8355 H              1 RES1               0.0000
     26 H26        228.2827  -1.1758  44.7221 H              1 RES1               0.0000
     27 H27        227.1476   5.0932  47.3173 H              1 RES1               0.0000
     28 H28        228.9567   6.1950  43.6169 H              1 RES1               0.0000
     29 H29        228.0324   6.8323  45.8109 H              1 RES1               0.0000
@<TRIPOS>BOND
    1    1    2 1     
    2    1    3 1     
    3    1    4 1     
    4    1    5 1     
    5    2    6 ar    
    6    2    7 ar    
    7    3    8 1     
    8    3    9 2     
    9    4   10 1     
   10    4   11 2     
   11    5   12 1     
   12    5   18 1     
   13    5   19 1     
   14    6   13 ar    
   15    6   20 1     
   16    7   14 ar    
   17    7   21 1     
   18    8   15 1     
   19    8   22 1     
   20   10   15 1     
   21   10   23 1     
   22   12   24 1     
   23   12   25 1     
   24   12   26 1     
   25   13   16 ar    
   26   13   27 1     
   27   14   16 ar    
   28   14   28 1     
   29   15   17 2     
   30   16   29 1     
@<TRIPOS>SUBSTRUCTURE
      1 RES1           1
@<TRIPOS>SET
DONOR_HYDROGENS      STATIC     ATOMS    <user>   **** ""
2 22 23
ATOM$RED        STATIC     ATOMS    COLORGROUP SYSTEM
2 22 23
@<TRIPOS>COMMENT
> <Gold.Version>
2022.3.0

> <Gold.Id.Protein>
unknown|4d1n_clean|pdb

> <Gold.Protein.RotatedTorsions>
[ 1594 1544 1543 1542 ] final -118.01 input   60.00 | X-H torsion
[ 4304 4284 4283 4280 ] final   53.64 input   59.98 | X-H torsion
[ 4344 4323 4324 4325 ] final   83.15 input  122.59 | X-H torsion
[ 4348 4328 4327 4324 ] final  120.73 input   59.99 | X-H torsion
[ 6708 6672 6671 6669 ] final -179.45 input   60.02 | X-H torsion
[ 23762 23712 23713 23714 ] final    5.36 input   58.31 | X-H torsion
[ 23800 23787 23788 23789 ] final  -77.01 input  -92.91 | X-H torsion
[ 6926 6895 6896 6897 ] final  111.26 input  109.21 | X-H torsion
[ 4168 4129 4130 4131 ] final   58.35 input  118.46 | X-H torsion
[ 4085 4052 4053 4054 ] final   -7.13 input  111.71 | X-H torsion
[ 1354 1313 1314 1315 ] final -102.43 input  117.91 | X-H torsion
[ 1584 1536 1537 1538 ] final -113.82 input   95.51 | X-H torsion
[ 23828 23815 23816 23817 ] final   46.93 input  -25.33 | X-H torsion
[ 1288 1260 1258 1255 ] final   78.64 input   59.99 | X-H torsion
[ 25744 25716 25717 25718 ] final   98.19 input   66.04 | X-H torsion
[ 27193 4055 4054 4053 ] final -150.46 input   -0.00 | X-H torsion
[ 27195 4282 4281 4280 ] final   94.21 input    0.00 | X-H torsion
[ 27200 4326 4325 4324 ] final  -15.12 input    0.00 | X-H torsion
[ 27211 23656 23655 23654 ] final  -16.64 input   -0.00 | X-H torsion
[ 27214 23715 23714 23713 ] final  164.42 input    0.00 | X-H torsion
[ 27218 6898 6897 6896 ] final  -97.61 input   -0.00 | X-H torsion
[ 27220 25719 25718 25717 ] final   97.55 input   -0.00 | X-H torsion
[ 27226 1316 1315 1314 ] final -126.00 input    0.00 | X-H torsion
[ 27230 23818 23817 23816 ] final -135.64 input    0.00 | X-H torsion
[ 27232 1257 1256 1255 ] final   33.54 input    0.00 | X-H torsion

> <Gold.Protein.ActiveResidues>
 ARG304  THR320  LEU321  LEU323  LYS324  GLN369  TYR370  SER372  SER373  TYR408 
 HIS412  ARG415  ASN416  TRP426  GLU670  CYS673  ARG674  GLY675  GLY676  TYR703 
 LEU705  THR706  PRO707 

> <Gold.Protein.RotatedAtoms>
  221.7425    4.6686   37.6214 H   0  0  0  0  0  0  0  0  0  0  0  0  # atno 1288 bound_to 1260
  222.5412    6.6710   37.9916 H   0  0  0  0  0  0  0  0  0  0  0  0  # atno 1354 bound_to 1313
  222.5438    9.0901   43.3727 H   0  0  0  0  0  0  0  0  0  0  0  0  # atno 1584 bound_to 1536
  223.4067    2.7828   45.4558 H   0  0  0  0  0  0  0  0  0  0  0  0  # atno 1594 bound_to 1544
  223.5535    4.4233   45.6412 H   0  0  0  0  0  0  0  0  0  0  0  0  # atno 1595 bound_to 1544
  222.2167    3.7899   44.8920 H   0  0  0  0  0  0  0  0  0  0  0  0  # atno 1596 bound_to 1544
  228.5369   -0.1084   51.6392 H   0  0  0  0  0  0  0  0  0  0  0  0  # atno 4085 bound_to 4052
  229.8289   -0.8359   51.0517 H   0  0  0  0  0  0  0  0  0  0  0  0  # atno 4168 bound_to 4129
  224.9892   -3.6996   46.7165 H   0  0  0  0  0  0  0  0  0  0  0  0  # atno 4304 bound_to 4284
  229.1761   -3.6989   47.8427 H   0  0  0  0  0  0  0  0  0  0  0  0  # atno 4344 bound_to 4323
  232.7075   -4.2396   46.0882 H   0  0  0  0  0  0  0  0  0  0  0  0  # atno 4348 bound_to 4328
  231.6630   -0.5145   45.5696 H   0  0  0  0  0  0  0  0  0  0  0  0  # atno 6708 bound_to 6672
  238.2302    2.0904   44.5825 H   0  0  0  0  0  0  0  0  0  0  0  0  # atno 6926 bound_to 6895
  226.3065    0.6557   34.9162 H   0  0  0  0  0  0  0  0  0  0  0  0  # atno 23762 bound_to 23712
  225.7979    2.2185   34.8022 H   0  0  0  0  0  0  0  0  0  0  0  0  # atno 23800 bound_to 23787
  226.3851    4.6626   35.6680 H   0  0  0  0  0  0  0  0  0  0  0  0  # atno 23828 bound_to 23815
  231.0742    9.7083   46.4844 H   0  0  0  0  0  0  0  0  0  0  0  0  # atno 25744 bound_to 25716
  229.7455   -2.4156   48.3772 LP  0  0  0  0  0  0  0  0  0  0  0  0  # atno 27193 bound_to 4055
  229.0013   -1.1362   47.4775 LP  0  0  0  0  0  0  0  0  0  0  0  0  # atno 27194 bound_to 4055
  226.6790   -5.3342   45.6523 LP  0  0  0  0  0  0  0  0  0  0  0  0  # atno 27195 bound_to 4282
  227.4459   -6.4638   46.7181 LP  0  0  0  0  0  0  0  0  0  0  0  0  # atno 27196 bound_to 4282
  226.2901   -2.8881   46.1712 LP  0  0  0  0  0  0  0  0  0  0  0  0  # atno 27197 bound_to 4284
  224.9665   -2.0730   46.6714 LP  0  0  0  0  0  0  0  0  0  0  0  0  # atno 27198 bound_to 4284
  227.7757   -3.9493   46.8249 LP  0  0  0  0  0  0  0  0  0  0  0  0  # atno 27199 bound_to 4323
  229.8832   -6.0633   43.9694 LP  0  0  0  0  0  0  0  0  0  0  0  0  # atno 27200 bound_to 4326
  230.7640   -7.2863   44.8230 LP  0  0  0  0  0  0  0  0  0  0  0  0  # atno 27201 bound_to 4326
  231.5487   -4.8872   47.0296 LP  0  0  0  0  0  0  0  0  0  0  0  0  # atno 27202 bound_to 4328
  232.1397   -3.4017   47.3625 LP  0  0  0  0  0  0  0  0  0  0  0  0  # atno 27203 bound_to 4328
  232.1682    1.0065   45.8527 LP  0  0  0  0  0  0  0  0  0  0  0  0  # atno 27204 bound_to 6672
  231.4219    0.1584   47.0318 LP  0  0  0  0  0  0  0  0  0  0  0  0  # atno 27205 bound_to 6672
  225.9667   -2.3859   36.7323 LP  0  0  0  0  0  0  0  0  0  0  0  0  # atno 27211 bound_to 23656
  226.3972   -0.9882   37.6603 LP  0  0  0  0  0  0  0  0  0  0  0  0  # atno 27212 bound_to 23656
  227.5030   -0.3921   35.6478 LP  0  0  0  0  0  0  0  0  0  0  0  0  # atno 27213 bound_to 23712
  225.0473    3.9052   37.7261 LP  0  0  0  0  0  0  0  0  0  0  0  0  # atno 27214 bound_to 23715
  225.8330    2.7314   38.7286 LP  0  0  0  0  0  0  0  0  0  0  0  0  # atno 27215 bound_to 23715
  225.5297    2.2804   36.5279 LP  0  0  0  0  0  0  0  0  0  0  0  0  # atno 27216 bound_to 23787
  238.8375    2.5098   43.0041 LP  0  0  0  0  0  0  0  0  0  0  0  0  # atno 27217 bound_to 6895
  236.9390    5.7873   41.6518 LP  0  0  0  0  0  0  0  0  0  0  0  0  # atno 27218 bound_to 6898
  235.5957    5.8559   42.7430 LP  0  0  0  0  0  0  0  0  0  0  0  0  # atno 27219 bound_to 6898
  231.8970    6.5575   45.9674 LP  0  0  0  0  0  0  0  0  0  0  0  0  # atno 27220 bound_to 25719
  231.4047    6.7332   47.6187 LP  0  0  0  0  0  0  0  0  0  0  0  0  # atno 27221 bound_to 25719
  230.3674   -0.1826   49.5267 LP  0  0  0  0  0  0  0  0  0  0  0  0  # atno 27222 bound_to 4129
  227.5885    1.3064   51.2647 LP  0  0  0  0  0  0  0  0  0  0  0  0  # atno 27223 bound_to 4052
  223.5810    7.5944   36.9369 LP  0  0  0  0  0  0  0  0  0  0  0  0  # atno 27225 bound_to 1313
  224.2464    8.9794   41.4269 LP  0  0  0  0  0  0  0  0  0  0  0  0  # atno 27226 bound_to 1316
  225.6912    8.0863   41.0880 LP  0  0  0  0  0  0  0  0  0  0  0  0  # atno 27227 bound_to 1316
  223.9690    9.2913   42.3809 LP  0  0  0  0  0  0  0  0  0  0  0  0  # atno 27228 bound_to 1536
  225.5048    4.6538   34.1608 LP  0  0  0  0  0  0  0  0  0  0  0  0  # atno 27229 bound_to 23815
  229.5423    5.5594   35.8328 LP  0  0  0  0  0  0  0  0  0  0  0  0  # atno 27230 bound_to 23818
  228.6603    4.5120   34.7720 LP  0  0  0  0  0  0  0  0  0  0  0  0  # atno 27231 bound_to 23818
  220.9262    7.0061   39.6289 LP  0  0  0  0  0  0  0  0  0  0  0  0  # atno 27232 bound_to 1257
  222.3624    7.9074   39.9823 LP  0  0  0  0  0  0  0  0  0  0  0  0  # atno 27233 bound_to 1257
  221.6224    5.0918   36.0545 LP  0  0  0  0  0  0  0  0  0  0  0  0  # atno 27234 bound_to 1260
  220.5274    4.0763   36.7150 LP  0  0  0  0  0  0  0  0  0  0  0  0  # atno 27235 bound_to 1260

> <Gold.Score>
     Fitness  S(hb_ext) S(vdw_ext)  S(hb_int)    S(int)      intcor
     35.36       1.54      25.18       0.00      -0.80      -0.76

> <Gold.Goldscore.Fitness>
35.3586

> <Gold.Goldscore.Internal.Vdw>
-1.1562

> <Gold.Goldscore.Internal.Torsion>
-0.3985

> <Gold.Goldscore.External.Vdw>
25.1757

> <Gold.Goldscore.Internal.HBond>
0.0000

> <Gold.Goldscore.External.HBond>
1.5382

> <Gold.Goldscore.Internal.Correction>
-0.7585

> <Gold.Goldscore.Hbonds>
donor molecule, donor type, donor heavy atom, donor atom, acceptor molecule, acceptor atom, score
      L1  H    10    23       P1  6904  0.26

> <Gold.Goldscore.Internal.Vdw.Weighted>
-1.1562

> <Gold.Goldscore.Internal.Torsion.Weighted>
-0.3985

> <Gold.Goldscore.External.Vdw.Weighted>
34.6166

> <Gold.Goldscore.Internal.HBond.Weighted>
0.0000

> <Gold.Goldscore.External.HBond.Weighted>
1.5382

> <Gold.Goldscore.Internal.Correction.Weighted>
-0.7585

> <Gold.Rescore>
     Score     S(PLP)   S(hbond)     S(cho)   S(metal)  DE(clash)   DE(tors)     intcor
     35.15     -35.39       0.00       0.00       0.00       0.00       0.12       ----

> <Gold.PLP.Fitness>
35.1524

> <Gold.PLP.PLP>
-35.3871

> <Gold.PLP.part.hbond>
-2.1351

> <Gold.PLP.part.metal>
0.0000

> <Gold.PLP.part.buried>
-4.4787

> <Gold.PLP.part.nonpolar>
-30.4104

> <Gold.PLP.part.repulsive>
0.4957

> <Gold.PLP.ligand.clash>
0.0000

> <Gold.PLP.ligand.torsion>
0.1174

> <Gold.PLP.Chemscore.Hbond>
0.0000

> <Gold.PLP.Chemscore.CHOScore>
0.0000

> <Gold.PLP.Chemscore.Metal>
0.0000

> <Gold.PLP.Chemscore.Internal.Correction>
   9.000000E+99

