#       Name:                CT1002167954
#       Creating user name   hitesit
#       Creation time:       Sun Apr 16 23:09:02 2023


#       File generated by GOLD software.
#

@<TRIPOS>MOLECULE
CT1002167954|ligand_prepared|mol2|1|dock5
    29    30     1
SMALL
NO_CHARGES


@<TRIPOS>ATOM
      1 C1         228.1724   1.9193  44.6580 C.3            1 RES1               0.0000
      2 C2         227.3027   1.5484  43.4394 C.ar           1 RES1               0.0000
      3 C3         228.9754   3.1517  44.2521 C.2            1 RES1               0.0000
      4 C4         227.2074   2.1585  45.8138 C.2            1 RES1               0.0000
      5 C5         229.1599   0.8074  45.0824 C.3            1 RES1               0.0000
      6 C6         226.7114   0.2921  43.3469 C.ar           1 RES1               0.0000
      7 C7         227.0809   2.4514  42.4030 C.ar           1 RES1               0.0000
      8 N8         228.6056   4.3508  44.7861 N.am           1 RES1               0.0000
      9 O9         229.8941   3.0785  43.4452 O.2            1 RES1               0.0000
     10 N10        227.1184   3.4272  46.3240 N.am           1 RES1               0.0000
     11 O11        226.5109   1.2634  46.2765 O.2            1 RES1               0.0000
     12 C12        229.9066   0.1738  43.9191 C.3            1 RES1               0.0000
     13 C13        225.9243  -0.0483  42.2593 C.ar           1 RES1               0.0000
     14 C14        226.2937   2.1088  41.3161 C.ar           1 RES1               0.0000
     15 C15        227.7512   4.5407  45.8423 C.2            1 RES1               0.0000
     16 C16        225.7146   0.8598  41.2435 C.ar           1 RES1               0.0000
     17 O17        227.5785   5.6580  46.3207 O.2            1 RES1               0.0000
     18 H18        229.8907   1.2323  45.7816 H              1 RES1               0.0000
     19 H19        228.6037   0.0249  45.6131 H              1 RES1               0.0000
     20 H20        226.8671  -0.4366  44.1355 H              1 RES1               0.0000
     21 H21        227.5274   3.4394  42.4383 H              1 RES1               0.0000
     22 H22        229.0007   5.1834  44.3606 H              1 RES1               0.0000
     23 H23        226.5258   3.5532  47.1384 H              1 RES1               0.0000
     24 H24        230.5858  -0.5994  44.2721 H              1 RES1               0.0000
     25 H25        229.2115  -0.2808  43.2163 H              1 RES1               0.0000
     26 H26        230.4908   0.9194  43.3838 H              1 RES1               0.0000
     27 H27        225.4719  -1.0331  42.2062 H              1 RES1               0.0000
     28 H28        226.1319   2.8265  40.5186 H              1 RES1               0.0000
     29 H29        225.0977   0.5930  40.3917 H              1 RES1               0.0000
@<TRIPOS>BOND
    1    1    2 1     
    2    1    3 1     
    3    1    4 1     
    4    1    5 1     
    5    2    6 ar    
    6    2    7 ar    
    7    3    8 1     
    8    3    9 2     
    9    4   10 1     
   10    4   11 2     
   11    5   12 1     
   12    5   18 1     
   13    5   19 1     
   14    6   13 ar    
   15    6   20 1     
   16    7   14 ar    
   17    7   21 1     
   18    8   15 1     
   19    8   22 1     
   20   10   15 1     
   21   10   23 1     
   22   12   24 1     
   23   12   25 1     
   24   12   26 1     
   25   13   16 ar    
   26   13   27 1     
   27   14   16 ar    
   28   14   28 1     
   29   15   17 2     
   30   16   29 1     
@<TRIPOS>SUBSTRUCTURE
      1 RES1           1
@<TRIPOS>SET
DONOR_HYDROGENS      STATIC     ATOMS    <user>   **** ""
2 22 23
ATOM$RED        STATIC     ATOMS    COLORGROUP SYSTEM
2 22 23
@<TRIPOS>COMMENT
> <Gold.Version>
2022.3.0

> <Gold.Id.Protein>
unknown|4d1n_clean|pdb

> <Gold.Protein.RotatedTorsions>
[ 1594 1544 1543 1542 ] final   44.27 input   60.00 | X-H torsion
[ 4304 4284 4283 4280 ] final  -77.70 input   59.98 | X-H torsion
[ 4344 4323 4324 4325 ] final  -89.80 input  122.59 | X-H torsion
[ 4348 4328 4327 4324 ] final   -8.90 input   59.99 | X-H torsion
[ 6708 6672 6671 6669 ] final   48.05 input   60.02 | X-H torsion
[ 23762 23712 23713 23714 ] final -175.85 input   58.31 | X-H torsion
[ 23800 23787 23788 23789 ] final  -19.52 input  -92.91 | X-H torsion
[ 6926 6895 6896 6897 ] final   61.45 input  109.21 | X-H torsion
[ 4168 4129 4130 4131 ] final   13.10 input  118.46 | X-H torsion
[ 4085 4052 4053 4054 ] final  -31.09 input  111.71 | X-H torsion
[ 1354 1313 1314 1315 ] final  -18.21 input  117.91 | X-H torsion
[ 1584 1536 1537 1538 ] final -178.28 input   95.51 | X-H torsion
[ 23828 23815 23816 23817 ] final -101.63 input  -25.33 | X-H torsion
[ 1288 1260 1258 1255 ] final   80.68 input   59.99 | X-H torsion
[ 25744 25716 25717 25718 ] final  170.45 input   66.04 | X-H torsion
[ 27193 4055 4054 4053 ] final   27.03 input   -0.00 | X-H torsion
[ 27195 4282 4281 4280 ] final -111.40 input    0.00 | X-H torsion
[ 27200 4326 4325 4324 ] final  -72.72 input    0.00 | X-H torsion
[ 27211 23656 23655 23654 ] final  -18.11 input   -0.00 | X-H torsion
[ 27214 23715 23714 23713 ] final  -54.53 input    0.00 | X-H torsion
[ 27218 6898 6897 6896 ] final -120.02 input   -0.00 | X-H torsion
[ 27220 25719 25718 25717 ] final  126.92 input   -0.00 | X-H torsion
[ 27226 1316 1315 1314 ] final  158.10 input    0.00 | X-H torsion
[ 27230 23818 23817 23816 ] final  124.91 input    0.00 | X-H torsion
[ 27232 1257 1256 1255 ] final  -84.09 input    0.00 | X-H torsion

> <Gold.Protein.ActiveResidues>
 ARG304  THR320  LEU321  LEU323  LYS324  GLN369  TYR370  SER372  SER373  TYR408 
 HIS412  ARG415  ASN416  TRP426  GLU670  CYS673  ARG674  GLY675  GLY676  TYR703 
 LEU705  THR706  PRO707 

> <Gold.Protein.RotatedAtoms>
  221.7199    4.6478   37.6343 H   0  0  0  0  0  0  0  0  0  0  0  0  # atno 1288 bound_to 1260
  222.6904    7.8323   37.8462 H   0  0  0  0  0  0  0  0  0  0  0  0  # atno 1354 bound_to 1313
  222.9004    8.3862   42.8556 H   0  0  0  0  0  0  0  0  0  0  0  0  # atno 1584 bound_to 1536
  222.9624    4.6173   45.3415 H   0  0  0  0  0  0  0  0  0  0  0  0  # atno 1594 bound_to 1544
  222.3789    3.1205   44.9339 H   0  0  0  0  0  0  0  0  0  0  0  0  # atno 1595 bound_to 1544
  223.8357    3.2582   45.7136 H   0  0  0  0  0  0  0  0  0  0  0  0  # atno 1596 bound_to 1544
  228.2059   -0.2510   51.5869 H   0  0  0  0  0  0  0  0  0  0  0  0  # atno 4085 bound_to 4052
  229.4848   -1.0843   50.5268 H   0  0  0  0  0  0  0  0  0  0  0  0  # atno 4168 bound_to 4129
  226.2661   -2.7040   46.1780 H   0  0  0  0  0  0  0  0  0  0  0  0  # atno 4304 bound_to 4284
  227.7643   -4.0590   46.8369 H   0  0  0  0  0  0  0  0  0  0  0  0  # atno 4344 bound_to 4323
  231.5049   -4.7912   47.1469 H   0  0  0  0  0  0  0  0  0  0  0  0  # atno 4348 bound_to 4328
  232.1278    1.0659   46.0443 H   0  0  0  0  0  0  0  0  0  0  0  0  # atno 6708 bound_to 6672
  238.6315    2.7071   44.5586 H   0  0  0  0  0  0  0  0  0  0  0  0  # atno 6926 bound_to 6895
  227.5371   -0.3857   35.6718 H   0  0  0  0  0  0  0  0  0  0  0  0  # atno 23762 bound_to 23712
  226.2622    2.7565   35.2692 H   0  0  0  0  0  0  0  0  0  0  0  0  # atno 23800 bound_to 23787
  225.9099    4.4323   34.0577 H   0  0  0  0  0  0  0  0  0  0  0  0  # atno 23828 bound_to 23815
  231.7144   10.4494   46.1236 H   0  0  0  0  0  0  0  0  0  0  0  0  # atno 25744 bound_to 25716
  228.9676   -1.1485   47.4896 LP  0  0  0  0  0  0  0  0  0  0  0  0  # atno 27193 bound_to 4055
  229.7792   -2.4033   48.3651 LP  0  0  0  0  0  0  0  0  0  0  0  0  # atno 27194 bound_to 4055
  227.7219   -6.3870   46.4625 LP  0  0  0  0  0  0  0  0  0  0  0  0  # atno 27195 bound_to 4282
  226.4030   -5.4109   45.9079 LP  0  0  0  0  0  0  0  0  0  0  0  0  # atno 27196 bound_to 4282
  224.8272   -2.1816   46.7301 LP  0  0  0  0  0  0  0  0  0  0  0  0  # atno 27197 bound_to 4284
  225.1439   -3.7818   46.6546 LP  0  0  0  0  0  0  0  0  0  0  0  0  # atno 27198 bound_to 4284
  229.1482   -3.5992   47.8027 LP  0  0  0  0  0  0  0  0  0  0  0  0  # atno 27199 bound_to 4323
  229.4647   -6.7097   44.2909 LP  0  0  0  0  0  0  0  0  0  0  0  0  # atno 27200 bound_to 4326
  231.1825   -6.6400   44.5015 LP  0  0  0  0  0  0  0  0  0  0  0  0  # atno 27201 bound_to 4326
  232.2521   -3.3502   47.2635 LP  0  0  0  0  0  0  0  0  0  0  0  0  # atno 27202 bound_to 4328
  232.6475   -4.3832   46.0622 LP  0  0  0  0  0  0  0  0  0  0  0  0  # atno 27203 bound_to 4328
  231.3663   -0.0309   46.9750 LP  0  0  0  0  0  0  0  0  0  0  0  0  # atno 27204 bound_to 6672
  231.7559   -0.3954   45.4316 LP  0  0  0  0  0  0  0  0  0  0  0  0  # atno 27205 bound_to 6672
  225.9465   -2.3774   36.7294 LP  0  0  0  0  0  0  0  0  0  0  0  0  # atno 27211 bound_to 23656
  226.4174   -0.9967   37.6633 LP  0  0  0  0  0  0  0  0  0  0  0  0  # atno 27212 bound_to 23656
  226.3140    0.6141   34.9177 LP  0  0  0  0  0  0  0  0  0  0  0  0  # atno 27213 bound_to 23712
  225.2768    2.5893   38.6654 LP  0  0  0  0  0  0  0  0  0  0  0  0  # atno 27214 bound_to 23715
  225.6035    4.0473   37.7893 LP  0  0  0  0  0  0  0  0  0  0  0  0  # atno 27215 bound_to 23715
  225.0762    1.7550   36.0718 LP  0  0  0  0  0  0  0  0  0  0  0  0  # atno 27216 bound_to 23787
  238.4388    1.8971   43.0279 LP  0  0  0  0  0  0  0  0  0  0  0  0  # atno 27217 bound_to 6895
  237.0132    6.0634   41.8296 LP  0  0  0  0  0  0  0  0  0  0  0  0  # atno 27218 bound_to 6898
  235.5215    5.5798   42.5652 LP  0  0  0  0  0  0  0  0  0  0  0  0  # atno 27219 bound_to 6898
  232.0690    6.2094   46.1725 LP  0  0  0  0  0  0  0  0  0  0  0  0  # atno 27220 bound_to 25719
  231.2327    7.0813   47.4136 LP  0  0  0  0  0  0  0  0  0  0  0  0  # atno 27221 bound_to 25719
  230.7074    0.0629   50.0454 LP  0  0  0  0  0  0  0  0  0  0  0  0  # atno 27222 bound_to 4129
  227.9157    1.4473   51.3163 LP  0  0  0  0  0  0  0  0  0  0  0  0  # atno 27223 bound_to 4052
  223.4342    6.4517   37.0800 LP  0  0  0  0  0  0  0  0  0  0  0  0  # atno 27225 bound_to 1313
  225.2076    9.3608   41.1715 LP  0  0  0  0  0  0  0  0  0  0  0  0  # atno 27226 bound_to 1316
  224.7300    7.7049   41.3434 LP  0  0  0  0  0  0  0  0  0  0  0  0  # atno 27227 bound_to 1316
  223.6207    9.9785   42.8857 LP  0  0  0  0  0  0  0  0  0  0  0  0  # atno 27228 bound_to 1536
  225.9718    4.8801   35.7437 LP  0  0  0  0  0  0  0  0  0  0  0  0  # atno 27229 bound_to 23815
  229.6330    5.0451   34.6188 LP  0  0  0  0  0  0  0  0  0  0  0  0  # atno 27230 bound_to 23818
  228.5696    5.0263   35.9859 LP  0  0  0  0  0  0  0  0  0  0  0  0  # atno 27231 bound_to 23818
  221.6104    8.3175   39.7163 LP  0  0  0  0  0  0  0  0  0  0  0  0  # atno 27232 bound_to 1257
  221.6782    6.5960   39.8949 LP  0  0  0  0  0  0  0  0  0  0  0  0  # atno 27233 bound_to 1257
  221.6473    5.1036   36.0737 LP  0  0  0  0  0  0  0  0  0  0  0  0  # atno 27234 bound_to 1260
  220.5254    4.0853   36.6828 LP  0  0  0  0  0  0  0  0  0  0  0  0  # atno 27235 bound_to 1260

> <Gold.Score>
     Fitness  S(hb_ext) S(vdw_ext)  S(hb_int)    S(int)      intcor
     36.70       6.00      24.57       0.00      -3.08      -0.76

> <Gold.Goldscore.Fitness>
36.7011

> <Gold.Goldscore.Internal.Vdw>
-3.1280

> <Gold.Goldscore.Internal.Torsion>
-0.7139

> <Gold.Goldscore.External.Vdw>
24.5705

> <Gold.Goldscore.Internal.HBond>
0.0000

> <Gold.Goldscore.External.HBond>
6.0000

> <Gold.Goldscore.Internal.Correction>
-0.7585

> <Gold.Goldscore.Hbonds>
donor molecule, donor type, donor heavy atom, donor atom, acceptor molecule, acceptor atom, score
      P1  H 23722 23774       L1     9  1.00

> <Gold.Goldscore.Internal.Vdw.Weighted>
-3.1280

> <Gold.Goldscore.Internal.Torsion.Weighted>
-0.7139

> <Gold.Goldscore.External.Vdw.Weighted>
33.7844

> <Gold.Goldscore.Internal.HBond.Weighted>
0.0000

> <Gold.Goldscore.External.HBond.Weighted>
6.0000

> <Gold.Goldscore.Internal.Correction.Weighted>
-0.7585

> <Gold.Rescore>
     Score     S(PLP)   S(hbond)     S(cho)   S(metal)  DE(clash)   DE(tors)     intcor
     34.55     -33.12       1.00       0.00       0.00       1.28       0.14       ----

> <Gold.PLP.Fitness>
34.5504

> <Gold.PLP.PLP>
-33.1154

> <Gold.PLP.part.hbond>
-2.5317

> <Gold.PLP.part.metal>
0.0000

> <Gold.PLP.part.buried>
-4.6528

> <Gold.PLP.part.nonpolar>
-26.8099

> <Gold.PLP.part.repulsive>
0.4589

> <Gold.PLP.ligand.clash>
1.2789

> <Gold.PLP.ligand.torsion>
0.1431

> <Gold.PLP.Chemscore.Hbond>
1.0000

> <Gold.PLP.Chemscore.CHOScore>
0.0000

> <Gold.PLP.Chemscore.Metal>
0.0000

> <Gold.Chemscore.Hbonds>
donor molecule, donor type, donor heavy atom, donor atom, acceptor molecule, acceptor atom, score
      P1  H 23722 23774       L1     9  1.00

> <Gold.PLP.Chemscore.Internal.Correction>
   9.000000E+99

