#       Name:                CT1002167954
#       Creating user name   hitesit
#       Creation time:       Sun Apr 16 23:09:05 2023


#       File generated by GOLD software.
#

@<TRIPOS>MOLECULE
CT1002167954|ligand_prepared|mol2|1|dock10
    29    30     1
SMALL
NO_CHARGES


@<TRIPOS>ATOM
      1 C1         228.4671  -0.1285  43.1943 C.3            1 RES1               0.0000
      2 C2         227.7607   0.7658  44.2336 C.ar           1 RES1               0.0000
      3 C3         227.7448  -1.4723  43.2240 C.2            1 RES1               0.0000
      4 C4         228.3641   0.6039  41.8610 C.2            1 RES1               0.0000
      5 C5         229.9652  -0.3694  43.4927 C.3            1 RES1               0.0000
      6 C6         226.5099   0.4177  44.7347 C.ar           1 RES1               0.0000
      7 C7         228.3474   1.9385  44.7018 C.ar           1 RES1               0.0000
      8 N8         226.9227  -1.7709  42.1776 N.am           1 RES1               0.0000
      9 O9         227.8640  -2.2411  44.1700 O.2            1 RES1               0.0000
     10 N10        227.6136   0.0291  40.8690 N.am           1 RES1               0.0000
     11 O11        228.9126   1.6816  41.6661 O.2            1 RES1               0.0000
     12 C12        230.6184  -1.3860  42.5697 C.3            1 RES1               0.0000
     13 C13        225.8701   1.2115  45.6722 C.ar           1 RES1               0.0000
     14 C14        227.7057   2.7310  45.6392 C.ar           1 RES1               0.0000
     15 C15        226.8631  -1.1099  40.9771 C.2            1 RES1               0.0000
     16 C16        226.4676   2.3683  46.1254 C.ar           1 RES1               0.0000
     17 O17        226.1705  -1.5349  40.0569 O.2            1 RES1               0.0000
     18 H18        230.5007   0.5838  43.4035 H              1 RES1               0.0000
     19 H19        230.0677  -0.7159  44.5285 H              1 RES1               0.0000
     20 H20        226.0231  -0.4877  44.3880 H              1 RES1               0.0000
     21 H21        229.3205   2.2441  44.3326 H              1 RES1               0.0000
     22 H22        226.2939  -2.5584  42.2990 H              1 RES1               0.0000
     23 H23        227.6145   0.4933  39.9663 H              1 RES1               0.0000
     24 H24        231.6685  -1.5174  42.8221 H              1 RES1               0.0000
     25 H25        230.1267  -2.3532  42.6514 H              1 RES1               0.0000
     26 H26        230.5571  -1.0612  41.5331 H              1 RES1               0.0000
     27 H27        224.8952   0.9223  46.0506 H              1 RES1               0.0000
     28 H28        228.1794   3.6409  45.9926 H              1 RES1               0.0000
     29 H29        225.9664   2.9897  46.8601 H              1 RES1               0.0000
@<TRIPOS>BOND
    1    1    2 1     
    2    1    3 1     
    3    1    4 1     
    4    1    5 1     
    5    2    6 ar    
    6    2    7 ar    
    7    3    8 1     
    8    3    9 2     
    9    4   10 1     
   10    4   11 2     
   11    5   12 1     
   12    5   18 1     
   13    5   19 1     
   14    6   13 ar    
   15    6   20 1     
   16    7   14 ar    
   17    7   21 1     
   18    8   15 1     
   19    8   22 1     
   20   10   15 1     
   21   10   23 1     
   22   12   24 1     
   23   12   25 1     
   24   12   26 1     
   25   13   16 ar    
   26   13   27 1     
   27   14   16 ar    
   28   14   28 1     
   29   15   17 2     
   30   16   29 1     
@<TRIPOS>SUBSTRUCTURE
      1 RES1           1
@<TRIPOS>SET
DONOR_HYDROGENS      STATIC     ATOMS    <user>   **** ""
2 22 23
ATOM$RED        STATIC     ATOMS    COLORGROUP SYSTEM
2 22 23
@<TRIPOS>COMMENT
> <Gold.Version>
2022.3.0

> <Gold.Id.Protein>
unknown|4d1n_clean|pdb

> <Gold.Protein.RotatedTorsions>
[ 1594 1544 1543 1542 ] final  -23.60 input   60.00 | X-H torsion
[ 4304 4284 4283 4280 ] final  140.33 input   59.98 | X-H torsion
[ 4344 4323 4324 4325 ] final  -67.12 input  122.59 | X-H torsion
[ 4348 4328 4327 4324 ] final  114.00 input   59.99 | X-H torsion
[ 6708 6672 6671 6669 ] final   58.82 input   60.02 | X-H torsion
[ 23762 23712 23713 23714 ] final  -48.46 input   58.31 | X-H torsion
[ 23800 23787 23788 23789 ] final  -53.83 input  -92.91 | X-H torsion
[ 6926 6895 6896 6897 ] final  128.55 input  109.21 | X-H torsion
[ 4168 4129 4130 4131 ] final  161.65 input  118.46 | X-H torsion
[ 4085 4052 4053 4054 ] final  123.82 input  111.71 | X-H torsion
[ 1354 1313 1314 1315 ] final  112.40 input  117.91 | X-H torsion
[ 1584 1536 1537 1538 ] final   69.85 input   95.51 | X-H torsion
[ 23828 23815 23816 23817 ] final   45.73 input  -25.33 | X-H torsion
[ 1288 1260 1258 1255 ] final   62.90 input   59.99 | X-H torsion
[ 25744 25716 25717 25718 ] final -108.33 input   66.04 | X-H torsion
[ 27193 4055 4054 4053 ] final -136.55 input   -0.00 | X-H torsion
[ 27195 4282 4281 4280 ] final   57.68 input    0.00 | X-H torsion
[ 27200 4326 4325 4324 ] final   52.06 input    0.00 | X-H torsion
[ 27211 23656 23655 23654 ] final  -11.34 input   -0.00 | X-H torsion
[ 27214 23715 23714 23713 ] final -118.05 input    0.00 | X-H torsion
[ 27218 6898 6897 6896 ] final   67.54 input   -0.00 | X-H torsion
[ 27220 25719 25718 25717 ] final   53.60 input   -0.00 | X-H torsion
[ 27226 1316 1315 1314 ] final  162.17 input    0.00 | X-H torsion
[ 27230 23818 23817 23816 ] final  161.98 input    0.00 | X-H torsion
[ 27232 1257 1256 1255 ] final   78.61 input    0.00 | X-H torsion

> <Gold.Protein.ActiveResidues>
 ARG304  THR320  LEU321  LEU323  LYS324  GLN369  TYR370  SER372  SER373  TYR408 
 HIS412  ARG415  ASN416  TRP426  GLU670  CYS673  ARG674  GLY675  GLY676  TYR703 
 LEU705  THR706  PRO707 

> <Gold.Protein.RotatedAtoms>
  221.8962    4.8246   37.4877 H   0  0  0  0  0  0  0  0  0  0  0  0  # atno 1288 bound_to 1260
  223.6761    7.0920   36.8283 H   0  0  0  0  0  0  0  0  0  0  0  0  # atno 1354 bound_to 1313
  223.9838    9.2381   42.3579 H   0  0  0  0  0  0  0  0  0  0  0  0  # atno 1584 bound_to 1536
  223.8013    4.0978   45.7511 H   0  0  0  0  0  0  0  0  0  0  0  0  # atno 1594 bound_to 1544
  222.3361    4.1871   44.9815 H   0  0  0  0  0  0  0  0  0  0  0  0  # atno 1595 bound_to 1544
  223.0396    2.7110   45.2563 H   0  0  0  0  0  0  0  0  0  0  0  0  # atno 1596 bound_to 1544
  228.2840    1.4497   51.4056 H   0  0  0  0  0  0  0  0  0  0  0  0  # atno 4085 bound_to 4052
  230.7364    0.0496   50.5173 H   0  0  0  0  0  0  0  0  0  0  0  0  # atno 4168 bound_to 4129
  224.6327   -2.4689   46.8195 H   0  0  0  0  0  0  0  0  0  0  0  0  # atno 4304 bound_to 4284
  227.8380   -4.3592   46.9986 H   0  0  0  0  0  0  0  0  0  0  0  0  # atno 4344 bound_to 4323
  232.6638   -4.3390   46.0709 H   0  0  0  0  0  0  0  0  0  0  0  0  # atno 4348 bound_to 4328
  232.1630    1.0118   45.8808 H   0  0  0  0  0  0  0  0  0  0  0  0  # atno 6708 bound_to 6672
  238.1314    1.8881   44.4471 H   0  0  0  0  0  0  0  0  0  0  0  0  # atno 6926 bound_to 6895
  226.0313    0.0401   35.3578 H   0  0  0  0  0  0  0  0  0  0  0  0  # atno 23762 bound_to 23712
  226.0333    2.4651   34.9022 H   0  0  0  0  0  0  0  0  0  0  0  0  # atno 23800 bound_to 23787
  226.3990    4.6538   35.6597 H   0  0  0  0  0  0  0  0  0  0  0  0  # atno 23828 bound_to 23815
  232.2997    9.9103   45.2903 H   0  0  0  0  0  0  0  0  0  0  0  0  # atno 25744 bound_to 25716
  229.5471   -2.4609   48.4280 LP  0  0  0  0  0  0  0  0  0  0  0  0  # atno 27193 bound_to 4055
  229.1997   -1.0909   47.4267 LP  0  0  0  0  0  0  0  0  0  0  0  0  # atno 27194 bound_to 4055
  226.3224   -5.4743   46.0368 LP  0  0  0  0  0  0  0  0  0  0  0  0  # atno 27195 bound_to 4282
  227.8025   -6.3236   46.3336 LP  0  0  0  0  0  0  0  0  0  0  0  0  # atno 27196 bound_to 4282
  225.4753   -3.8295   46.5244 LP  0  0  0  0  0  0  0  0  0  0  0  0  # atno 27197 bound_to 4284
  226.1402   -2.3706   46.2145 LP  0  0  0  0  0  0  0  0  0  0  0  0  # atno 27198 bound_to 4284
  229.0766   -3.3073   47.6456 LP  0  0  0  0  0  0  0  0  0  0  0  0  # atno 27199 bound_to 4323
  230.8329   -6.0420   44.0960 LP  0  0  0  0  0  0  0  0  0  0  0  0  # atno 27200 bound_to 4326
  229.8143   -7.3077   44.6964 LP  0  0  0  0  0  0  0  0  0  0  0  0  # atno 27201 bound_to 4326
  231.5139   -4.8255   47.1147 LP  0  0  0  0  0  0  0  0  0  0  0  0  # atno 27202 bound_to 4328
  232.2184   -3.3633   47.2949 LP  0  0  0  0  0  0  0  0  0  0  0  0  # atno 27203 bound_to 4328
  231.4133    0.1318   47.0264 LP  0  0  0  0  0  0  0  0  0  0  0  0  # atno 27204 bound_to 6672
  231.6735   -0.5037   45.5449 LP  0  0  0  0  0  0  0  0  0  0  0  0  # atno 27205 bound_to 6672
  226.0409   -2.4129   36.7455 LP  0  0  0  0  0  0  0  0  0  0  0  0  # atno 27211 bound_to 23656
  226.3230   -0.9612   37.6471 LP  0  0  0  0  0  0  0  0  0  0  0  0  # atno 27212 bound_to 23656
  227.7690    0.2026   35.2211 LP  0  0  0  0  0  0  0  0  0  0  0  0  # atno 27213 bound_to 23712
  224.6272    3.0217   38.1940 LP  0  0  0  0  0  0  0  0  0  0  0  0  # atno 27214 bound_to 23715
  226.2531    3.6149   38.2606 LP  0  0  0  0  0  0  0  0  0  0  0  0  # atno 27215 bound_to 23715
  225.2998    2.0396   36.4302 LP  0  0  0  0  0  0  0  0  0  0  0  0  # atno 27216 bound_to 23787
  238.9357    2.7108   43.1386 LP  0  0  0  0  0  0  0  0  0  0  0  0  # atno 27217 bound_to 6895
  235.5341    5.6709   42.6329 LP  0  0  0  0  0  0  0  0  0  0  0  0  # atno 27218 bound_to 6898
  237.0005    5.9723   41.7619 LP  0  0  0  0  0  0  0  0  0  0  0  0  # atno 27219 bound_to 6898
  231.5399    7.0906   46.0586 LP  0  0  0  0  0  0  0  0  0  0  0  0  # atno 27220 bound_to 25719
  231.7618    6.2001   47.5275 LP  0  0  0  0  0  0  0  0  0  0  0  0  # atno 27221 bound_to 25719
  229.4705   -1.0578   50.0549 LP  0  0  0  0  0  0  0  0  0  0  0  0  # atno 27222 bound_to 4129
  227.8385   -0.2340   51.4956 LP  0  0  0  0  0  0  0  0  0  0  0  0  # atno 27223 bound_to 4052
  222.4644    7.1801   38.0814 LP  0  0  0  0  0  0  0  0  0  0  0  0  # atno 27225 bound_to 1313
  225.1499    9.3767   41.1857 LP  0  0  0  0  0  0  0  0  0  0  0  0  # atno 27226 bound_to 1316
  224.7878    7.6890   41.3292 LP  0  0  0  0  0  0  0  0  0  0  0  0  # atno 27227 bound_to 1316
  222.5629    9.1468   43.3717 LP  0  0  0  0  0  0  0  0  0  0  0  0  # atno 27228 bound_to 1536
  225.4911    4.6624   34.1689 LP  0  0  0  0  0  0  0  0  0  0  0  0  # atno 27229 bound_to 23815
  229.8483    5.3641   35.0125 LP  0  0  0  0  0  0  0  0  0  0  0  0  # atno 27230 bound_to 23818
  228.3542    4.7073   35.5923 LP  0  0  0  0  0  0  0  0  0  0  0  0  # atno 27231 bound_to 23818
  221.4303    6.6177   39.8176 LP  0  0  0  0  0  0  0  0  0  0  0  0  # atno 27232 bound_to 1257
  221.8583    8.2958   39.7936 LP  0  0  0  0  0  0  0  0  0  0  0  0  # atno 27233 bound_to 1257
  221.4192    4.9813   35.9396 LP  0  0  0  0  0  0  0  0  0  0  0  0  # atno 27234 bound_to 1260
  220.5759    4.0298   36.9644 LP  0  0  0  0  0  0  0  0  0  0  0  0  # atno 27235 bound_to 1260

> <Gold.Score>
     Fitness  S(hb_ext) S(vdw_ext)  S(hb_int)    S(int)      intcor
     30.26       6.00      18.75       0.00      -1.52      -0.76

> <Gold.Goldscore.Fitness>
30.2611

> <Gold.Goldscore.Internal.Vdw>
-1.8298

> <Gold.Goldscore.Internal.Torsion>
-0.4518

> <Gold.Goldscore.External.Vdw>
18.7521

> <Gold.Goldscore.Internal.HBond>
0.0000

> <Gold.Goldscore.External.HBond>
6.0000

> <Gold.Goldscore.Internal.Correction>
-0.7585

> <Gold.Goldscore.Hbonds>
donor molecule, donor type, donor heavy atom, donor atom, acceptor molecule, acceptor atom, score
      P1  H 23719 23770       L1    11  1.00

> <Gold.Goldscore.Internal.Vdw.Weighted>
-1.8298

> <Gold.Goldscore.Internal.Torsion.Weighted>
-0.4518

> <Gold.Goldscore.External.Vdw.Weighted>
25.7841

> <Gold.Goldscore.Internal.HBond.Weighted>
0.0000

> <Gold.Goldscore.External.HBond.Weighted>
6.0000

> <Gold.Goldscore.Internal.Correction.Weighted>
-0.7585

> <Gold.Rescore>
     Score     S(PLP)   S(hbond)     S(cho)   S(metal)  DE(clash)   DE(tors)     intcor
     27.62     -26.95       1.00       0.00       0.00       1.90       0.22       ----

> <Gold.PLP.Fitness>
27.6168

> <Gold.PLP.PLP>
-26.9492

> <Gold.PLP.part.hbond>
-1.3285

> <Gold.PLP.part.metal>
0.0000

> <Gold.PLP.part.buried>
-5.8241

> <Gold.PLP.part.nonpolar>
-21.2581

> <Gold.PLP.part.repulsive>
0.2512

> <Gold.PLP.ligand.clash>
1.8990

> <Gold.PLP.ligand.torsion>
0.2167

> <Gold.PLP.Chemscore.Hbond>
1.0000

> <Gold.PLP.Chemscore.CHOScore>
0.0000

> <Gold.PLP.Chemscore.Metal>
0.0000

> <Gold.Chemscore.Hbonds>
donor molecule, donor type, donor heavy atom, donor atom, acceptor molecule, acceptor atom, score
      P1  H 23719 23770       L1    11  1.00

> <Gold.PLP.Chemscore.Internal.Correction>
   9.000000E+99

