#       Name:                CT1002167954
#       Creating user name   hitesit
#       Creation time:       Sun Apr 16 23:09:04 2023


#       File generated by GOLD software.
#

@<TRIPOS>MOLECULE
CT1002167954|ligand_prepared|mol2|1|dock8
    29    30     1
SMALL
NO_CHARGES


@<TRIPOS>ATOM
      1 C1         228.5002   2.0849  43.7235 C.3            1 RES1               0.0000
      2 C2         228.6342   3.5989  43.9859 C.ar           1 RES1               0.0000
      3 C3         227.3504   1.5982  44.6007 C.2            1 RES1               0.0000
      4 C4         228.2492   1.9319  42.2274 C.2            1 RES1               0.0000
      5 C5         229.7677   1.2743  44.0806 C.3            1 RES1               0.0000
      6 C6         229.3870   4.0682  45.0581 C.ar           1 RES1               0.0000
      7 C7         228.0141   4.5366  43.1644 C.ar           1 RES1               0.0000
      8 N8         226.1704   1.2981  43.9865 N.am           1 RES1               0.0000
      9 O9         227.4652   1.5167  45.8174 O.2            1 RES1               0.0000
     10 N10        227.0350   1.4384  41.8272 N.am           1 RES1               0.0000
     11 O11        229.0856   2.2498  41.3910 O.2            1 RES1               0.0000
     12 C12        229.7784  -0.1327  43.5040 C.3            1 RES1               0.0000
     13 C13        229.5178   5.4259  45.2987 C.ar           1 RES1               0.0000
     14 C14        228.1460   5.8939  43.4070 C.ar           1 RES1               0.0000
     15 C15        225.9729   1.1435  42.6378 C.2            1 RES1               0.0000
     16 C16        228.8978   6.3396  44.4732 C.ar           1 RES1               0.0000
     17 O17        224.8941   0.7555  42.1988 O.2            1 RES1               0.0000
     18 H18        230.6481   1.8142  43.7107 H              1 RES1               0.0000
     19 H19        229.8490   1.2089  45.1727 H              1 RES1               0.0000
     20 H20        229.8802   3.3641  45.7200 H              1 RES1               0.0000
     21 H21        227.4168   4.2089  42.3204 H              1 RES1               0.0000
     22 H22        225.3597   1.1775  44.5853 H              1 RES1               0.0000
     23 H23        226.9116   1.2758  40.8329 H              1 RES1               0.0000
     24 H24        230.6892  -0.6576  43.7845 H              1 RES1               0.0000
     25 H25        228.9299  -0.7064  43.8710 H              1 RES1               0.0000
     26 H26        229.7242  -0.1047  42.4177 H              1 RES1               0.0000
     27 H27        230.1095   5.7715  46.1400 H              1 RES1               0.0000
     28 H28        227.6558   6.6094  42.7550 H              1 RES1               0.0000
     29 H29        229.0007   7.4031  44.6617 H              1 RES1               0.0000
@<TRIPOS>BOND
    1    1    2 1     
    2    1    3 1     
    3    1    4 1     
    4    1    5 1     
    5    2    6 ar    
    6    2    7 ar    
    7    3    8 1     
    8    3    9 2     
    9    4   10 1     
   10    4   11 2     
   11    5   12 1     
   12    5   18 1     
   13    5   19 1     
   14    6   13 ar    
   15    6   20 1     
   16    7   14 ar    
   17    7   21 1     
   18    8   15 1     
   19    8   22 1     
   20   10   15 1     
   21   10   23 1     
   22   12   24 1     
   23   12   25 1     
   24   12   26 1     
   25   13   16 ar    
   26   13   27 1     
   27   14   16 ar    
   28   14   28 1     
   29   15   17 2     
   30   16   29 1     
@<TRIPOS>SUBSTRUCTURE
      1 RES1           1
@<TRIPOS>SET
DONOR_HYDROGENS      STATIC     ATOMS    <user>   **** ""
2 22 23
ATOM$RED        STATIC     ATOMS    COLORGROUP SYSTEM
2 22 23
@<TRIPOS>COMMENT
> <Gold.Version>
2022.3.0

> <Gold.Id.Protein>
unknown|4d1n_clean|pdb

> <Gold.Protein.RotatedTorsions>
[ 1594 1544 1543 1542 ] final  -42.73 input   60.00 | X-H torsion
[ 4304 4284 4283 4280 ] final   -5.66 input   59.98 | X-H torsion
[ 4344 4323 4324 4325 ] final  128.50 input  122.59 | X-H torsion
[ 4348 4328 4327 4324 ] final   32.35 input   59.99 | X-H torsion
[ 6708 6672 6671 6669 ] final  -10.45 input   60.02 | X-H torsion
[ 23762 23712 23713 23714 ] final  -93.37 input   58.31 | X-H torsion
[ 23800 23787 23788 23789 ] final  -74.62 input  -92.91 | X-H torsion
[ 6926 6895 6896 6897 ] final  -15.55 input  109.21 | X-H torsion
[ 4168 4129 4130 4131 ] final  -85.58 input  118.46 | X-H torsion
[ 4085 4052 4053 4054 ] final   96.67 input  111.71 | X-H torsion
[ 1354 1313 1314 1315 ] final   40.88 input  117.91 | X-H torsion
[ 1584 1536 1537 1538 ] final   91.74 input   95.51 | X-H torsion
[ 23828 23815 23816 23817 ] final  132.27 input  -25.33 | X-H torsion
[ 1288 1260 1258 1255 ] final -129.33 input   59.99 | X-H torsion
[ 25744 25716 25717 25718 ] final   14.58 input   66.04 | X-H torsion
[ 27193 4055 4054 4053 ] final  -45.74 input   -0.00 | X-H torsion
[ 27195 4282 4281 4280 ] final -109.07 input    0.00 | X-H torsion
[ 27200 4326 4325 4324 ] final -115.81 input    0.00 | X-H torsion
[ 27211 23656 23655 23654 ] final  168.85 input   -0.00 | X-H torsion
[ 27214 23715 23714 23713 ] final  139.89 input    0.00 | X-H torsion
[ 27218 6898 6897 6896 ] final -167.38 input   -0.00 | X-H torsion
[ 27220 25719 25718 25717 ] final  -14.48 input   -0.00 | X-H torsion
[ 27226 1316 1315 1314 ] final   84.28 input    0.00 | X-H torsion
[ 27230 23818 23817 23816 ] final -177.29 input    0.00 | X-H torsion
[ 27232 1257 1256 1255 ] final  -38.77 input    0.00 | X-H torsion

> <Gold.Protein.ActiveResidues>
 ARG304  THR320  LEU321  LEU323  LYS324  GLN369  TYR370  SER372  SER373  TYR408 
 HIS412  ARG415  ASN416  TRP426  GLU670  CYS673  ARG674  GLY675  GLY676  TYR703 
 LEU705  THR706  PRO707 

> <Gold.Protein.RotatedAtoms>
  220.6097    4.2921   36.2508 H   0  0  0  0  0  0  0  0  0  0  0  0  # atno 1288 bound_to 1260
  223.2898    7.9557   37.2312 H   0  0  0  0  0  0  0  0  0  0  0  0  # atno 1354 bound_to 1313
  223.8924    8.9182   42.3109 H   0  0  0  0  0  0  0  0  0  0  0  0  # atno 1584 bound_to 1536
  223.8934    3.7948   45.7799 H   0  0  0  0  0  0  0  0  0  0  0  0  # atno 1594 bound_to 1544
  222.5202    4.4206   45.0943 H   0  0  0  0  0  0  0  0  0  0  0  0  # atno 1595 bound_to 1544
  222.7633    2.7805   45.1148 H   0  0  0  0  0  0  0  0  0  0  0  0  # atno 1596 bound_to 1544
  228.6375    1.2611   51.5010 H   0  0  0  0  0  0  0  0  0  0  0  0  # atno 4085 bound_to 4052
  229.9603   -0.5210   49.4187 H   0  0  0  0  0  0  0  0  0  0  0  0  # atno 4168 bound_to 4129
  225.8503   -3.7045   46.3746 H   0  0  0  0  0  0  0  0  0  0  0  0  # atno 4304 bound_to 4284
  228.9928   -3.1344   47.5030 H   0  0  0  0  0  0  0  0  0  0  0  0  # atno 4344 bound_to 4323
  231.8102   -5.0290   46.6127 H   0  0  0  0  0  0  0  0  0  0  0  0  # atno 4348 bound_to 4328
  231.7579    0.8377   46.8497 H   0  0  0  0  0  0  0  0  0  0  0  0  # atno 6708 bound_to 6672
  239.0346    2.9886   43.5878 H   0  0  0  0  0  0  0  0  0  0  0  0  # atno 6926 bound_to 6895
  226.3651   -0.4400   35.7049 H   0  0  0  0  0  0  0  0  0  0  0  0  # atno 23762 bound_to 23712
  225.8238    2.2443   34.8061 H   0  0  0  0  0  0  0  0  0  0  0  0  # atno 23800 bound_to 23787
  225.3100    5.0762   35.3570 H   0  0  0  0  0  0  0  0  0  0  0  0  # atno 23828 bound_to 23815
  231.3582    8.7853   45.8063 H   0  0  0  0  0  0  0  0  0  0  0  0  # atno 25744 bound_to 25716
  228.5246   -1.8710   48.0704 LP  0  0  0  0  0  0  0  0  0  0  0  0  # atno 27193 bound_to 4055
  230.2222   -1.6808   47.7843 LP  0  0  0  0  0  0  0  0  0  0  0  0  # atno 27194 bound_to 4055
  227.7015   -6.3984   46.4889 LP  0  0  0  0  0  0  0  0  0  0  0  0  # atno 27195 bound_to 4282
  226.4234   -5.3996   45.8815 LP  0  0  0  0  0  0  0  0  0  0  0  0  # atno 27196 bound_to 4282
  225.8520   -2.0781   46.3198 LP  0  0  0  0  0  0  0  0  0  0  0  0  # atno 27197 bound_to 4284
  224.5377   -2.8780   46.8670 LP  0  0  0  0  0  0  0  0  0  0  0  0  # atno 27198 bound_to 4284
  227.9540   -4.4980   47.1551 LP  0  0  0  0  0  0  0  0  0  0  0  0  # atno 27199 bound_to 4323
  229.6802   -7.2101   44.6189 LP  0  0  0  0  0  0  0  0  0  0  0  0  # atno 27200 bound_to 4326
  230.9670   -6.1396   44.1735 LP  0  0  0  0  0  0  0  0  0  0  0  0  # atno 27201 bound_to 4326
  231.7865   -3.7124   47.5690 LP  0  0  0  0  0  0  0  0  0  0  0  0  # atno 27202 bound_to 4328
  232.8056   -3.7814   46.2949 LP  0  0  0  0  0  0  0  0  0  0  0  0  # atno 27203 bound_to 4328
  231.3662   -0.6358   46.2801 LP  0  0  0  0  0  0  0  0  0  0  0  0  # atno 27204 bound_to 6672
  232.1284    0.4393   45.3157 LP  0  0  0  0  0  0  0  0  0  0  0  0  # atno 27205 bound_to 6672
  226.3202   -0.9603   37.6466 LP  0  0  0  0  0  0  0  0  0  0  0  0  # atno 27211 bound_to 23656
  226.0437   -2.4138   36.7461 LP  0  0  0  0  0  0  0  0  0  0  0  0  # atno 27212 bound_to 23656
  227.4464    0.6665   34.8857 LP  0  0  0  0  0  0  0  0  0  0  0  0  # atno 27213 bound_to 23712
  225.3925    4.0322   37.7395 LP  0  0  0  0  0  0  0  0  0  0  0  0  # atno 27214 bound_to 23715
  225.4879    2.6043   38.7152 LP  0  0  0  0  0  0  0  0  0  0  0  0  # atno 27215 bound_to 23715
  225.5043    2.2552   36.5241 LP  0  0  0  0  0  0  0  0  0  0  0  0  # atno 27216 bound_to 23787
  238.0384    1.6175   43.9923 LP  0  0  0  0  0  0  0  0  0  0  0  0  # atno 27217 bound_to 6895
  236.8069    6.4827   42.3449 LP  0  0  0  0  0  0  0  0  0  0  0  0  # atno 27218 bound_to 6898
  235.7277    5.1605   42.0498 LP  0  0  0  0  0  0  0  0  0  0  0  0  # atno 27219 bound_to 6898
  231.1736    7.3575   46.9157 LP  0  0  0  0  0  0  0  0  0  0  0  0  # atno 27220 bound_to 25719
  232.1281    5.9332   46.6704 LP  0  0  0  0  0  0  0  0  0  0  0  0  # atno 27221 bound_to 25719
  230.2375   -0.4938   51.1406 LP  0  0  0  0  0  0  0  0  0  0  0  0  # atno 27222 bound_to 4129
  227.4890   -0.0476   51.4013 LP  0  0  0  0  0  0  0  0  0  0  0  0  # atno 27223 bound_to 4052
  222.8444    6.3303   37.6851 LP  0  0  0  0  0  0  0  0  0  0  0  0  # atno 27225 bound_to 1313
  225.8083    8.5211   41.0450 LP  0  0  0  0  0  0  0  0  0  0  0  0  # atno 27226 bound_to 1316
  224.1293    8.5446   41.4699 LP  0  0  0  0  0  0  0  0  0  0  0  0  # atno 27227 bound_to 1316
  222.6522    9.4591   43.4175 LP  0  0  0  0  0  0  0  0  0  0  0  0  # atno 27228 bound_to 1536
  226.5616    4.2472   34.4665 LP  0  0  0  0  0  0  0  0  0  0  0  0  # atno 27229 bound_to 23815
  229.8378    5.4913   35.2969 LP  0  0  0  0  0  0  0  0  0  0  0  0  # atno 27230 bound_to 23818
  228.3648    4.5801   35.3078 LP  0  0  0  0  0  0  0  0  0  0  0  0  # atno 27231 bound_to 23818
  221.0315    8.0206   39.5678 LP  0  0  0  0  0  0  0  0  0  0  0  0  # atno 27232 bound_to 1257
  222.2571    6.8929   40.0434 LP  0  0  0  0  0  0  0  0  0  0  0  0  # atno 27233 bound_to 1257
  221.3436    4.3475   37.7025 LP  0  0  0  0  0  0  0  0  0  0  0  0  # atno 27234 bound_to 1260
  221.9465    5.1995   36.4466 LP  0  0  0  0  0  0  0  0  0  0  0  0  # atno 27235 bound_to 1260

> <Gold.Score>
     Fitness  S(hb_ext) S(vdw_ext)  S(hb_int)    S(int)      intcor
     31.98       4.94      20.27       0.00      -0.82      -0.76

> <Gold.Goldscore.Fitness>
31.9832

> <Gold.Goldscore.Internal.Vdw>
-0.8831

> <Gold.Goldscore.Internal.Torsion>
-0.6976

> <Gold.Goldscore.External.Vdw>
20.2676

> <Gold.Goldscore.Internal.HBond>
0.0000

> <Gold.Goldscore.External.HBond>
4.9375

> <Gold.Goldscore.Internal.Correction>
-0.7585

> <Gold.Goldscore.Hbonds>
donor molecule, donor type, donor heavy atom, donor atom, acceptor molecule, acceptor atom, score
      P1  H 23719 23770       L1    11  0.82

> <Gold.Goldscore.Internal.Vdw.Weighted>
-0.8831

> <Gold.Goldscore.Internal.Torsion.Weighted>
-0.6976

> <Gold.Goldscore.External.Vdw.Weighted>
27.8679

> <Gold.Goldscore.Internal.HBond.Weighted>
0.0000

> <Gold.Goldscore.External.HBond.Weighted>
4.9375

> <Gold.Goldscore.Internal.Correction.Weighted>
-0.7585

> <Gold.Rescore>
     Score     S(PLP)   S(hbond)     S(cho)   S(metal)  DE(clash)   DE(tors)     intcor
     38.09     -34.53       1.76       0.00       0.00       0.35       0.68       ----

> <Gold.PLP.Fitness>
38.0948

> <Gold.PLP.PLP>
-34.5266

> <Gold.PLP.part.hbond>
-2.0000

> <Gold.PLP.part.metal>
0.0000

> <Gold.PLP.part.buried>
-3.2962

> <Gold.PLP.part.nonpolar>
-31.2579

> <Gold.PLP.part.repulsive>
0.2719

> <Gold.PLP.ligand.clash>
0.3509

> <Gold.PLP.ligand.torsion>
0.6804

> <Gold.PLP.Chemscore.Hbond>
1.7600

> <Gold.PLP.Chemscore.CHOScore>
0.0000

> <Gold.PLP.Chemscore.Metal>
0.0000

> <Gold.Chemscore.Hbonds>
donor molecule, donor type, donor heavy atom, donor atom, acceptor molecule, acceptor atom, score
      P1  H 23719 23770       L1    11  0.19
      P1  H 23722 23774       L1    11  0.04

> <Gold.PLP.Chemscore.Internal.Correction>
   9.000000E+99

