#       Name:                CT1002167954
#       Creating user name   hitesit
#       Creation time:       Sun Apr 16 23:09:04 2023


#       File generated by GOLD software.
#

@<TRIPOS>MOLECULE
CT1002167954|ligand_prepared|mol2|1|dock9
    29    30     1
SMALL
NO_CHARGES


@<TRIPOS>ATOM
      1 C1         228.0651   2.3542  44.7477 C.3            1 RES1               0.0000
      2 C2         227.0367   1.9877  43.6583 C.ar           1 RES1               0.0000
      3 C3         229.1272   3.2099  44.0637 C.2            1 RES1               0.0000
      4 C4         227.2888   3.0815  45.8399 C.2            1 RES1               0.0000
      5 C5         228.7589   1.1300  45.3891 C.3            1 RES1               0.0000
      6 C6         226.1587   0.9237  43.8419 C.ar           1 RES1               0.0000
      7 C7         226.9522   2.7048  42.4678 C.ar           1 RES1               0.0000
      8 N8         229.1252   4.5483  44.3255 N.am           1 RES1               0.0000
      9 O9         229.9294   2.7240  43.2758 O.2            1 RES1               0.0000
     10 N10        227.5734   4.4041  46.0578 N.am           1 RES1               0.0000
     11 O11        226.4215   2.5256  46.5025 O.2            1 RES1               0.0000
     12 C12        229.2233   0.0905  44.3811 C.3            1 RES1               0.0000
     13 C13        225.2280   0.5903  42.8718 C.ar           1 RES1               0.0000
     14 C14        226.0209   2.3696  41.4989 C.ar           1 RES1               0.0000
     15 C15        228.4348   5.1785  45.3295 C.2            1 RES1               0.0000
     16 C16        225.1582   1.3132  41.7000 C.ar           1 RES1               0.0000
     17 O17        228.5969   6.3750  45.5516 O.2            1 RES1               0.0000
     18 H18        229.6266   1.4768  45.9638 H              1 RES1               0.0000
     19 H19        228.0608   0.6552  46.0896 H              1 RES1               0.0000
     20 H20        226.2004   0.3418  44.7566 H              1 RES1               0.0000
     21 H21        227.6216   3.5391  42.2874 H              1 RES1               0.0000
     22 H22        229.6892   5.1349  43.7188 H              1 RES1               0.0000
     23 H23        227.0993   4.8529  46.8351 H              1 RES1               0.0000
     24 H24        229.7029  -0.7468  44.8837 H              1 RES1               0.0000
     25 H25        228.3819  -0.2947  43.8088 H              1 RES1               0.0000
     26 H26        229.9384   0.5220  43.6838 H              1 RES1               0.0000
     27 H27        224.5522  -0.2428  43.0344 H              1 RES1               0.0000
     28 H28        225.9700   2.9408  40.5779 H              1 RES1               0.0000
     29 H29        224.4288   1.0521  40.9404 H              1 RES1               0.0000
@<TRIPOS>BOND
    1    1    2 1     
    2    1    3 1     
    3    1    4 1     
    4    1    5 1     
    5    2    6 ar    
    6    2    7 ar    
    7    3    8 1     
    8    3    9 2     
    9    4   10 1     
   10    4   11 2     
   11    5   12 1     
   12    5   18 1     
   13    5   19 1     
   14    6   13 ar    
   15    6   20 1     
   16    7   14 ar    
   17    7   21 1     
   18    8   15 1     
   19    8   22 1     
   20   10   15 1     
   21   10   23 1     
   22   12   24 1     
   23   12   25 1     
   24   12   26 1     
   25   13   16 ar    
   26   13   27 1     
   27   14   16 ar    
   28   14   28 1     
   29   15   17 2     
   30   16   29 1     
@<TRIPOS>SUBSTRUCTURE
      1 RES1           1
@<TRIPOS>SET
DONOR_HYDROGENS      STATIC     ATOMS    <user>   **** ""
2 22 23
ATOM$RED        STATIC     ATOMS    COLORGROUP SYSTEM
2 22 23
@<TRIPOS>COMMENT
> <Gold.Version>
2022.3.0

> <Gold.Id.Protein>
unknown|4d1n_clean|pdb

> <Gold.Protein.RotatedTorsions>
[ 1594 1544 1543 1542 ] final  -41.90 input   60.00 | X-H torsion
[ 4304 4284 4283 4280 ] final -114.20 input   59.98 | X-H torsion
[ 4344 4323 4324 4325 ] final   61.86 input  122.59 | X-H torsion
[ 4348 4328 4327 4324 ] final  173.47 input   59.99 | X-H torsion
[ 6708 6672 6671 6669 ] final   28.61 input   60.02 | X-H torsion
[ 23762 23712 23713 23714 ] final  133.62 input   58.31 | X-H torsion
[ 23800 23787 23788 23789 ] final   84.24 input  -92.91 | X-H torsion
[ 6926 6895 6896 6897 ] final -124.41 input  109.21 | X-H torsion
[ 4168 4129 4130 4131 ] final  -51.66 input  118.46 | X-H torsion
[ 4085 4052 4053 4054 ] final  173.68 input  111.71 | X-H torsion
[ 1354 1313 1314 1315 ] final   57.19 input  117.91 | X-H torsion
[ 1584 1536 1537 1538 ] final   -8.14 input   95.51 | X-H torsion
[ 23828 23815 23816 23817 ] final  -10.63 input  -25.33 | X-H torsion
[ 1288 1260 1258 1255 ] final  -85.69 input   59.99 | X-H torsion
[ 25744 25716 25717 25718 ] final    7.21 input   66.04 | X-H torsion
[ 27193 4055 4054 4053 ] final  101.66 input   -0.00 | X-H torsion
[ 27195 4282 4281 4280 ] final -108.62 input    0.00 | X-H torsion
[ 27200 4326 4325 4324 ] final -129.01 input    0.00 | X-H torsion
[ 27211 23656 23655 23654 ] final -164.00 input   -0.00 | X-H torsion
[ 27214 23715 23714 23713 ] final   14.17 input    0.00 | X-H torsion
[ 27218 6898 6897 6896 ] final  162.40 input   -0.00 | X-H torsion
[ 27220 25719 25718 25717 ] final   76.31 input   -0.00 | X-H torsion
[ 27226 1316 1315 1314 ] final  177.02 input    0.00 | X-H torsion
[ 27230 23818 23817 23816 ] final  -46.53 input    0.00 | X-H torsion
[ 27232 1257 1256 1255 ] final  102.84 input    0.00 | X-H torsion

> <Gold.Protein.ActiveResidues>
 ARG304  THR320  LEU321  LEU323  LYS324  GLN369  TYR370  SER372  SER373  TYR408 
 HIS412  ARG415  ASN416  TRP426  GLU670  CYS673  ARG674  GLY675  GLY676  TYR703 
 LEU705  THR706  PRO707 

> <Gold.Protein.RotatedAtoms>
  221.0384    4.7182   35.9053 H   0  0  0  0  0  0  0  0  0  0  0  0  # atno 1288 bound_to 1260
  223.4409    7.8327   37.0751 H   0  0  0  0  0  0  0  0  0  0  0  0  # atno 1354 bound_to 1313
  223.5199   10.0308   42.9863 H   0  0  0  0  0  0  0  0  0  0  0  0  # atno 1584 bound_to 1536
  223.8912    3.8085   45.7797 H   0  0  0  0  0  0  0  0  0  0  0  0  # atno 1594 bound_to 1544
  222.5108    4.4120   45.0888 H   0  0  0  0  0  0  0  0  0  0  0  0  # atno 1595 bound_to 1544
  222.7749    2.7754   45.1205 H   0  0  0  0  0  0  0  0  0  0  0  0  # atno 1596 bound_to 1544
  227.5705    1.3088   51.2737 H   0  0  0  0  0  0  0  0  0  0  0  0  # atno 4085 bound_to 4052
  229.6271   -0.8478   49.6288 H   0  0  0  0  0  0  0  0  0  0  0  0  # atno 4168 bound_to 4129
  225.9911   -2.1944   46.2712 H   0  0  0  0  0  0  0  0  0  0  0  0  # atno 4304 bound_to 4284
  229.1143   -4.0153   47.9015 H   0  0  0  0  0  0  0  0  0  0  0  0  # atno 4344 bound_to 4323
  232.7504   -3.5367   46.5306 H   0  0  0  0  0  0  0  0  0  0  0  0  # atno 4348 bound_to 4328
  232.0320    1.0869   46.3450 H   0  0  0  0  0  0  0  0  0  0  0  0  # atno 6708 bound_to 6672
  238.4054    1.8234   43.0701 H   0  0  0  0  0  0  0  0  0  0  0  0  # atno 6926 bound_to 6895
  227.8020    0.1930   35.2568 H   0  0  0  0  0  0  0  0  0  0  0  0  # atno 23762 bound_to 23712
  225.7307    2.4830   36.5254 H   0  0  0  0  0  0  0  0  0  0  0  0  # atno 23800 bound_to 23787
  226.7435    4.3050   34.9881 H   0  0  0  0  0  0  0  0  0  0  0  0  # atno 23828 bound_to 23815
  231.4325    8.7683   45.7218 H   0  0  0  0  0  0  0  0  0  0  0  0  # atno 25744 bound_to 25716
  230.0014   -1.3260   47.5359 LP  0  0  0  0  0  0  0  0  0  0  0  0  # atno 27193 bound_to 4055
  228.7454   -2.2258   48.3187 LP  0  0  0  0  0  0  0  0  0  0  0  0  # atno 27194 bound_to 4055
  227.6974   -6.4005   46.4940 LP  0  0  0  0  0  0  0  0  0  0  0  0  # atno 27195 bound_to 4282
  226.4275   -5.3974   45.8764 LP  0  0  0  0  0  0  0  0  0  0  0  0  # atno 27196 bound_to 4282
  224.5552   -2.6909   46.8542 LP  0  0  0  0  0  0  0  0  0  0  0  0  # atno 27197 bound_to 4284
  225.6928   -3.7855   46.4367 LP  0  0  0  0  0  0  0  0  0  0  0  0  # atno 27198 bound_to 4284
  227.8358   -3.6417   46.7678 LP  0  0  0  0  0  0  0  0  0  0  0  0  # atno 27199 bound_to 4323
  229.8273   -7.3150   44.7026 LP  0  0  0  0  0  0  0  0  0  0  0  0  # atno 27200 bound_to 4326
  230.8199   -6.0347   44.0898 LP  0  0  0  0  0  0  0  0  0  0  0  0  # atno 27201 bound_to 4326
  232.0427   -4.9924   46.3616 LP  0  0  0  0  0  0  0  0  0  0  0  0  # atno 27202 bound_to 4328
  231.6025   -4.0045   47.5851 LP  0  0  0  0  0  0  0  0  0  0  0  0  # atno 27203 bound_to 4328
  231.3166   -0.2989   46.8105 LP  0  0  0  0  0  0  0  0  0  0  0  0  # atno 27204 bound_to 6672
  231.9020   -0.1486   45.2935 LP  0  0  0  0  0  0  0  0  0  0  0  0  # atno 27205 bound_to 6672
  225.9352   -0.9233   37.5216 LP  0  0  0  0  0  0  0  0  0  0  0  0  # atno 27211 bound_to 23656
  226.4288   -2.4508   36.8711 LP  0  0  0  0  0  0  0  0  0  0  0  0  # atno 27212 bound_to 23656
  226.0580    0.0549   35.3187 LP  0  0  0  0  0  0  0  0  0  0  0  0  # atno 27213 bound_to 23712
  226.1512    3.0238   38.6244 LP  0  0  0  0  0  0  0  0  0  0  0  0  # atno 27214 bound_to 23715
  224.7291    3.6128   37.8302 LP  0  0  0  0  0  0  0  0  0  0  0  0  # atno 27215 bound_to 23715
  225.5953    2.0221   34.8451 LP  0  0  0  0  0  0  0  0  0  0  0  0  # atno 27216 bound_to 23787
  238.6635    2.7750   44.5067 LP  0  0  0  0  0  0  0  0  0  0  0  0  # atno 27217 bound_to 6895
  236.4735    6.5338   42.6449 LP  0  0  0  0  0  0  0  0  0  0  0  0  # atno 27218 bound_to 6898
  236.0611    5.1094   41.7499 LP  0  0  0  0  0  0  0  0  0  0  0  0  # atno 27219 bound_to 6898
  231.7299    6.8289   45.9504 LP  0  0  0  0  0  0  0  0  0  0  0  0  # atno 27220 bound_to 25719
  231.5718    6.4618   47.6357 LP  0  0  0  0  0  0  0  0  0  0  0  0  # atno 27221 bound_to 25719
  230.5668   -0.1708   50.9330 LP  0  0  0  0  0  0  0  0  0  0  0  0  # atno 27222 bound_to 4129
  228.5439   -0.0947   51.6260 LP  0  0  0  0  0  0  0  0  0  0  0  0  # atno 27223 bound_to 4052
  222.6958    6.4514   37.8387 LP  0  0  0  0  0  0  0  0  0  0  0  0  # atno 27225 bound_to 1313
  224.9338    9.3980   41.2398 LP  0  0  0  0  0  0  0  0  0  0  0  0  # atno 27226 bound_to 1316
  225.0039    7.6677   41.2751 LP  0  0  0  0  0  0  0  0  0  0  0  0  # atno 27227 bound_to 1316
  223.0159    8.3728   42.7581 LP  0  0  0  0  0  0  0  0  0  0  0  0  # atno 27228 bound_to 1536
  225.1525    5.0053   34.8291 LP  0  0  0  0  0  0  0  0  0  0  0  0  # atno 27229 bound_to 23815
  228.4958    4.9472   35.9152 LP  0  0  0  0  0  0  0  0  0  0  0  0  # atno 27230 bound_to 23818
  229.7068    5.1242   34.6895 LP  0  0  0  0  0  0  0  0  0  0  0  0  # atno 27231 bound_to 23818
  221.7779    6.6093   39.9239 LP  0  0  0  0  0  0  0  0  0  0  0  0  # atno 27232 bound_to 1257
  221.5107    8.3042   39.6873 LP  0  0  0  0  0  0  0  0  0  0  0  0  # atno 27233 bound_to 1257
  220.7974    4.0572   37.3729 LP  0  0  0  0  0  0  0  0  0  0  0  0  # atno 27234 bound_to 1260
  222.0612    5.0609   37.1240 LP  0  0  0  0  0  0  0  0  0  0  0  0  # atno 27235 bound_to 1260

> <Gold.Score>
     Fitness  S(hb_ext) S(vdw_ext)  S(hb_int)    S(int)      intcor
     37.64       6.00      25.27       0.00      -3.12      -0.76

> <Gold.Goldscore.Fitness>
37.6352

> <Gold.Goldscore.Internal.Vdw>
-3.1627

> <Gold.Goldscore.Internal.Torsion>
-0.7109

> <Gold.Goldscore.External.Vdw>
25.2729

> <Gold.Goldscore.Internal.HBond>
0.0000

> <Gold.Goldscore.External.HBond>
6.0000

> <Gold.Goldscore.Internal.Correction>
-0.7585

> <Gold.Goldscore.Hbonds>
donor molecule, donor type, donor heavy atom, donor atom, acceptor molecule, acceptor atom, score
      P1  H 23722 23774       L1     9  1.00

> <Gold.Goldscore.Internal.Vdw.Weighted>
-3.1627

> <Gold.Goldscore.Internal.Torsion.Weighted>
-0.7109

> <Gold.Goldscore.External.Vdw.Weighted>
34.7502

> <Gold.Goldscore.Internal.HBond.Weighted>
0.0000

> <Gold.Goldscore.External.HBond.Weighted>
6.0000

> <Gold.Goldscore.Internal.Correction.Weighted>
-0.7585

> <Gold.Rescore>
     Score     S(PLP)   S(hbond)     S(cho)   S(metal)  DE(clash)   DE(tors)     intcor
     33.10     -32.07       1.00       0.00       0.00       0.01       0.98       ----

> <Gold.PLP.Fitness>
33.1003

> <Gold.PLP.PLP>
-32.0723

> <Gold.PLP.part.hbond>
-1.5337

> <Gold.PLP.part.metal>
0.0000

> <Gold.PLP.part.buried>
-5.2108

> <Gold.PLP.part.nonpolar>
-26.5574

> <Gold.PLP.part.repulsive>
0.6749

> <Gold.PLP.ligand.clash>
0.0147

> <Gold.PLP.ligand.torsion>
0.9787

> <Gold.PLP.Chemscore.Hbond>
1.0000

> <Gold.PLP.Chemscore.CHOScore>
0.0000

> <Gold.PLP.Chemscore.Metal>
0.0000

> <Gold.Chemscore.Hbonds>
donor molecule, donor type, donor heavy atom, donor atom, acceptor molecule, acceptor atom, score
      P1  H 23722 23774       L1     9  1.00

> <Gold.PLP.Chemscore.Internal.Correction>
   9.000000E+99

