#       Name:                CT1002167954
#       Creating user name   hitesit
#       Creation time:       Sun Apr 16 23:09:03 2023


#       File generated by GOLD software.
#

@<TRIPOS>MOLECULE
CT1002167954|ligand_prepared|mol2|1|dock7
    29    30     1
SMALL
NO_CHARGES


@<TRIPOS>ATOM
      1 C1         227.9852   1.8550  44.4349 C.3            1 RES1               0.0000
      2 C2         228.0709   3.3071  44.9476 C.ar           1 RES1               0.0000
      3 C3         227.4298   1.9337  43.0159 C.2            1 RES1               0.0000
      4 C4         229.3983   1.2886  44.5193 C.2            1 RES1               0.0000
      5 C5         227.0564   0.9490  45.2764 C.3            1 RES1               0.0000
      6 C6         227.2355   3.7482  45.9695 C.ar           1 RES1               0.0000
      7 C7         228.9805   4.2147  44.4114 C.ar           1 RES1               0.0000
      8 N8         228.2956   1.7136  41.9854 N.am           1 RES1               0.0000
      9 O9         226.2589   2.2235  42.8032 O.2            1 RES1               0.0000
     10 N10        230.0318   0.9660  43.3479 N.am           1 RES1               0.0000
     11 O11        229.9751   1.1344  45.5888 O.2            1 RES1               0.0000
     12 C12        227.0755  -0.5111  44.8523 C.3            1 RES1               0.0000
     13 C13        227.3087   5.0487  46.4404 C.ar           1 RES1               0.0000
     14 C14        229.0519   5.5148  44.8836 C.ar           1 RES1               0.0000
     15 C15        229.5561   1.1816  42.0831 C.2            1 RES1               0.0000
     16 C16        228.2171   5.9326  45.8982 C.ar           1 RES1               0.0000
     17 O17        230.2077   0.9148  41.0775 O.2            1 RES1               0.0000
     18 H18        227.3578   1.0150  46.3291 H              1 RES1               0.0000
     19 H19        226.0292   1.3261  45.1975 H              1 RES1               0.0000
     20 H20        226.5127   3.0675  46.4068 H              1 RES1               0.0000
     21 H21        229.6464   3.9084  43.6118 H              1 RES1               0.0000
     22 H22        227.9762   1.9683  41.0562 H              1 RES1               0.0000
     23 H23        230.9423   0.5241  43.4258 H              1 RES1               0.0000
     24 H24        226.4070  -1.1023  45.4747 H              1 RES1               0.0000
     25 H25        226.7567  -0.6164  43.8174 H              1 RES1               0.0000
     26 H26        228.0775  -0.9257  44.9423 H              1 RES1               0.0000
     27 H27        226.6486   5.3729  47.2380 H              1 RES1               0.0000
     28 H28        229.7679   6.2073  44.4535 H              1 RES1               0.0000
     29 H29        228.2745   6.9512  46.2675 H              1 RES1               0.0000
@<TRIPOS>BOND
    1    1    2 1     
    2    1    3 1     
    3    1    4 1     
    4    1    5 1     
    5    2    6 ar    
    6    2    7 ar    
    7    3    8 1     
    8    3    9 2     
    9    4   10 1     
   10    4   11 2     
   11    5   12 1     
   12    5   18 1     
   13    5   19 1     
   14    6   13 ar    
   15    6   20 1     
   16    7   14 ar    
   17    7   21 1     
   18    8   15 1     
   19    8   22 1     
   20   10   15 1     
   21   10   23 1     
   22   12   24 1     
   23   12   25 1     
   24   12   26 1     
   25   13   16 ar    
   26   13   27 1     
   27   14   16 ar    
   28   14   28 1     
   29   15   17 2     
   30   16   29 1     
@<TRIPOS>SUBSTRUCTURE
      1 RES1           1
@<TRIPOS>SET
DONOR_HYDROGENS      STATIC     ATOMS    <user>   **** ""
2 22 23
ATOM$RED        STATIC     ATOMS    COLORGROUP SYSTEM
2 22 23
@<TRIPOS>COMMENT
> <Gold.Version>
2022.3.0

> <Gold.Id.Protein>
unknown|4d1n_clean|pdb

> <Gold.Protein.RotatedTorsions>
[ 1594 1544 1543 1542 ] final  -18.91 input   60.00 | X-H torsion
[ 4304 4284 4283 4280 ] final  -49.10 input   59.98 | X-H torsion
[ 4344 4323 4324 4325 ] final   47.02 input  122.59 | X-H torsion
[ 4348 4328 4327 4324 ] final   18.21 input   59.99 | X-H torsion
[ 6708 6672 6671 6669 ] final  101.85 input   60.02 | X-H torsion
[ 23762 23712 23713 23714 ] final -109.09 input   58.31 | X-H torsion
[ 23800 23787 23788 23789 ] final -128.54 input  -92.91 | X-H torsion
[ 6926 6895 6896 6897 ] final -109.71 input  109.21 | X-H torsion
[ 4168 4129 4130 4131 ] final  176.08 input  118.46 | X-H torsion
[ 4085 4052 4053 4054 ] final   39.47 input  111.71 | X-H torsion
[ 1354 1313 1314 1315 ] final  176.06 input  117.91 | X-H torsion
[ 1584 1536 1537 1538 ] final    0.88 input   95.51 | X-H torsion
[ 23828 23815 23816 23817 ] final   37.75 input  -25.33 | X-H torsion
[ 1288 1260 1258 1255 ] final -122.98 input   59.99 | X-H torsion
[ 25744 25716 25717 25718 ] final   22.68 input   66.04 | X-H torsion
[ 27193 4055 4054 4053 ] final  162.53 input   -0.00 | X-H torsion
[ 27195 4282 4281 4280 ] final  -57.59 input    0.00 | X-H torsion
[ 27200 4326 4325 4324 ] final -112.85 input    0.00 | X-H torsion
[ 27211 23656 23655 23654 ] final   68.73 input   -0.00 | X-H torsion
[ 27214 23715 23714 23713 ] final  -68.87 input    0.00 | X-H torsion
[ 27218 6898 6897 6896 ] final   81.88 input   -0.00 | X-H torsion
[ 27220 25719 25718 25717 ] final  -35.43 input   -0.00 | X-H torsion
[ 27226 1316 1315 1314 ] final  106.54 input    0.00 | X-H torsion
[ 27230 23818 23817 23816 ] final   -5.87 input    0.00 | X-H torsion
[ 27232 1257 1256 1255 ] final  -66.52 input    0.00 | X-H torsion

> <Gold.Protein.ActiveResidues>
 ARG304  THR320  LEU321  LEU323  LYS324  GLN369  TYR370  SER372  SER373  TYR408 
 HIS412  ARG415  ASN416  TRP426  GLU670  CYS673  ARG674  GLY675  GLY676  TYR703 
 LEU705  THR706  PRO707 

> <Gold.Protein.RotatedAtoms>
  220.6522    4.3481   36.1745 H   0  0  0  0  0  0  0  0  0  0  0  0  # atno 1288 bound_to 1260
  223.3048    6.3293   37.2045 H   0  0  0  0  0  0  0  0  0  0  0  0  # atno 1354 bound_to 1313
  223.6233    9.9999   42.8985 H   0  0  0  0  0  0  0  0  0  0  0  0  # atno 1584 bound_to 1536
  223.7656    4.1660   45.7368 H   0  0  0  0  0  0  0  0  0  0  0  0  # atno 1594 bound_to 1544
  222.3025    4.1199   44.9593 H   0  0  0  0  0  0  0  0  0  0  0  0  # atno 1595 bound_to 1544
  223.1089    2.7100   45.2929 H   0  0  0  0  0  0  0  0  0  0  0  0  # atno 1596 bound_to 1544
  228.9056    0.4791   51.6475 H   0  0  0  0  0  0  0  0  0  0  0  0  # atno 4085 bound_to 4052
  230.7467    0.0850   50.3000 H   0  0  0  0  0  0  0  0  0  0  0  0  # atno 4168 bound_to 4129
  226.2492   -3.1656   46.1992 H   0  0  0  0  0  0  0  0  0  0  0  0  # atno 4304 bound_to 4284
  229.0182   -4.2231   47.8957 H   0  0  0  0  0  0  0  0  0  0  0  0  # atno 4344 bound_to 4323
  231.6772   -4.9935   46.7976 H   0  0  0  0  0  0  0  0  0  0  0  0  # atno 4348 bound_to 4328
  232.1543    0.5487   45.3735 H   0  0  0  0  0  0  0  0  0  0  0  0  # atno 6708 bound_to 6672
  238.5298    1.9838   42.9762 H   0  0  0  0  0  0  0  0  0  0  0  0  # atno 6926 bound_to 6895
  226.5754   -0.5391   35.7774 H   0  0  0  0  0  0  0  0  0  0  0  0  # atno 23762 bound_to 23712
  225.2555    1.7461   35.0731 H   0  0  0  0  0  0  0  0  0  0  0  0  # atno 23800 bound_to 23787
  226.4861    4.5954   35.5963 H   0  0  0  0  0  0  0  0  0  0  0  0  # atno 23828 bound_to 23815
  231.2825    8.8199   45.8995 H   0  0  0  0  0  0  0  0  0  0  0  0  # atno 25744 bound_to 25716
  230.1976   -2.0172   48.0394 LP  0  0  0  0  0  0  0  0  0  0  0  0  # atno 27193 bound_to 4055
  228.5493   -1.5346   47.8153 LP  0  0  0  0  0  0  0  0  0  0  0  0  # atno 27194 bound_to 4055
  227.0575   -6.4200   46.8769 LP  0  0  0  0  0  0  0  0  0  0  0  0  # atno 27195 bound_to 4282
  227.0674   -5.3780   45.4934 LP  0  0  0  0  0  0  0  0  0  0  0  0  # atno 27196 bound_to 4282
  225.2102   -1.9697   46.5713 LP  0  0  0  0  0  0  0  0  0  0  0  0  # atno 27197 bound_to 4284
  224.7779   -3.5289   46.7921 LP  0  0  0  0  0  0  0  0  0  0  0  0  # atno 27198 bound_to 4284
  227.9292   -3.4396   46.7734 LP  0  0  0  0  0  0  0  0  0  0  0  0  # atno 27199 bound_to 4323
  229.6517   -7.1825   44.5984 LP  0  0  0  0  0  0  0  0  0  0  0  0  # atno 27200 bound_to 4326
  230.9955   -6.1672   44.1940 LP  0  0  0  0  0  0  0  0  0  0  0  0  # atno 27201 bound_to 4326
  231.9376   -3.5496   47.5017 LP  0  0  0  0  0  0  0  0  0  0  0  0  # atno 27202 bound_to 4328
  232.7885   -3.9800   46.1760 LP  0  0  0  0  0  0  0  0  0  0  0  0  # atno 27203 bound_to 4328
  231.6971    0.7537   46.9221 LP  0  0  0  0  0  0  0  0  0  0  0  0  # atno 27204 bound_to 6672
  231.3985   -0.6593   46.1599 LP  0  0  0  0  0  0  0  0  0  0  0  0  # atno 27205 bound_to 6672
  226.9555   -2.0674   37.2798 LP  0  0  0  0  0  0  0  0  0  0  0  0  # atno 27211 bound_to 23656
  225.4084   -1.3067   37.1129 LP  0  0  0  0  0  0  0  0  0  0  0  0  # atno 27212 bound_to 23656
  227.2432    0.7623   34.8157 LP  0  0  0  0  0  0  0  0  0  0  0  0  # atno 27213 bound_to 23712
  225.0771    2.6199   38.5885 LP  0  0  0  0  0  0  0  0  0  0  0  0  # atno 27214 bound_to 23715
  225.8032    4.0167   37.8662 LP  0  0  0  0  0  0  0  0  0  0  0  0  # atno 27215 bound_to 23715
  226.0594    2.7417   36.2633 LP  0  0  0  0  0  0  0  0  0  0  0  0  # atno 27216 bound_to 23787
  238.5399    2.6157   44.6000 LP  0  0  0  0  0  0  0  0  0  0  0  0  # atno 27217 bound_to 6895
  235.5928    5.8494   42.7398 LP  0  0  0  0  0  0  0  0  0  0  0  0  # atno 27218 bound_to 6898
  236.9419    5.7938   41.6550 LP  0  0  0  0  0  0  0  0  0  0  0  0  # atno 27219 bound_to 6898
  231.1793    7.2413   47.2084 LP  0  0  0  0  0  0  0  0  0  0  0  0  # atno 27220 bound_to 25719
  232.1224    6.0494   46.3777 LP  0  0  0  0  0  0  0  0  0  0  0  0  # atno 27221 bound_to 25719
  229.4603   -1.0927   50.2696 LP  0  0  0  0  0  0  0  0  0  0  0  0  # atno 27222 bound_to 4129
  227.2240    0.7255   51.2564 LP  0  0  0  0  0  0  0  0  0  0  0  0  # atno 27223 bound_to 4052
  222.8296    7.9305   37.7113 LP  0  0  0  0  0  0  0  0  0  0  0  0  # atno 27225 bound_to 1313
  225.7476    8.8499   41.0503 LP  0  0  0  0  0  0  0  0  0  0  0  0  # atno 27226 bound_to 1316
  224.1900    8.2158   41.4646 LP  0  0  0  0  0  0  0  0  0  0  0  0  # atno 27227 bound_to 1316
  222.9149    8.4030   42.8438 LP  0  0  0  0  0  0  0  0  0  0  0  0  # atno 27228 bound_to 1536
  225.4055    4.7198   34.2312 LP  0  0  0  0  0  0  0  0  0  0  0  0  # atno 27229 bound_to 23815
  228.3485    4.6264   35.4278 LP  0  0  0  0  0  0  0  0  0  0  0  0  # atno 27230 bound_to 23818
  229.8541    5.4450   35.1769 LP  0  0  0  0  0  0  0  0  0  0  0  0  # atno 27231 bound_to 23818
  221.3619    8.2598   39.6462 LP  0  0  0  0  0  0  0  0  0  0  0  0  # atno 27232 bound_to 1257
  221.9267    6.6537   39.9650 LP  0  0  0  0  0  0  0  0  0  0  0  0  # atno 27233 bound_to 1257
  221.2577    4.2909   37.6841 LP  0  0  0  0  0  0  0  0  0  0  0  0  # atno 27234 bound_to 1260
  221.9896    5.1997   36.5418 LP  0  0  0  0  0  0  0  0  0  0  0  0  # atno 27235 bound_to 1260

> <Gold.Score>
     Fitness  S(hb_ext) S(vdw_ext)  S(hb_int)    S(int)      intcor
     34.06       0.66      24.81       0.00      -0.72      -0.76

> <Gold.Goldscore.Fitness>
34.0608

> <Gold.Goldscore.Internal.Vdw>
-1.0609

> <Gold.Goldscore.Internal.Torsion>
-0.4139

> <Gold.Goldscore.External.Vdw>
24.8126

> <Gold.Goldscore.Internal.HBond>
0.0000

> <Gold.Goldscore.External.HBond>
0.6597

> <Gold.Goldscore.Internal.Correction>
-0.7585

> <Gold.Goldscore.Hbonds>
donor molecule, donor type, donor heavy atom, donor atom, acceptor molecule, acceptor atom, score
      P1  H 23719 23770       L1    17  0.01
      L1  H    10    23       P1  6904  0.10

> <Gold.Goldscore.Internal.Vdw.Weighted>
-1.0609

> <Gold.Goldscore.Internal.Torsion.Weighted>
-0.4139

> <Gold.Goldscore.External.Vdw.Weighted>
34.1173

> <Gold.Goldscore.Internal.HBond.Weighted>
0.0000

> <Gold.Goldscore.External.HBond.Weighted>
0.6597

> <Gold.Goldscore.Internal.Correction.Weighted>
-0.7585

> <Gold.Rescore>
     Score     S(PLP)   S(hbond)     S(cho)   S(metal)  DE(clash)   DE(tors)     intcor
     34.93     -35.33       0.00       0.00       0.00       0.00       0.20       ----

> <Gold.PLP.Fitness>
34.9341

> <Gold.PLP.PLP>
-35.3257

> <Gold.PLP.part.hbond>
-2.1081

> <Gold.PLP.part.metal>
0.0000

> <Gold.PLP.part.buried>
-3.9089

> <Gold.PLP.part.nonpolar>
-30.5764

> <Gold.PLP.part.repulsive>
0.4978

> <Gold.PLP.ligand.clash>
0.0000

> <Gold.PLP.ligand.torsion>
0.1958

> <Gold.PLP.Chemscore.Hbond>
0.0000

> <Gold.PLP.Chemscore.CHOScore>
0.0000

> <Gold.PLP.Chemscore.Metal>
0.0000

> <Gold.Chemscore.Hbonds>
donor molecule, donor type, donor heavy atom, donor atom, acceptor molecule, acceptor atom, score
      P1  H 23719 23770       L1    17  0.14

> <Gold.PLP.Chemscore.Internal.Correction>
   9.000000E+99

