#       Name:                CT1002167954
#       Creating user name   hitesit
#       Creation time:       Sun Apr 16 23:09:01 2023


#       File generated by GOLD software.
#

@<TRIPOS>MOLECULE
CT1002167954|ligand_prepared|mol2|1|dock2
    29    30     1
SMALL
NO_CHARGES


@<TRIPOS>ATOM
      1 C1         228.6640   0.9274  44.2030 C.3            1 RES1               0.0000
      2 C2         228.2511   2.2345  44.9100 C.ar           1 RES1               0.0000
      3 C3         228.1131  -0.2127  45.0544 C.2            1 RES1               0.0000
      4 C4         228.0735   0.9970  42.7990 C.2            1 RES1               0.0000
      5 C5         230.1939   0.7458  44.0693 C.3            1 RES1               0.0000
      6 C6         229.0020   3.3950  44.7489 C.ar           1 RES1               0.0000
      7 C7         227.1224   2.2958  45.7229 C.ar           1 RES1               0.0000
      8 N8         227.0291  -0.8898  44.5786 N.am           1 RES1               0.0000
      9 O9         228.5980  -0.4878  46.1450 O.2            1 RES1               0.0000
     10 N10        227.0992   0.0925  42.4667 N.am           1 RES1               0.0000
     11 O11        228.4313   1.8374  41.9831 O.2            1 RES1               0.0000
     12 C12        230.6098  -0.6501  43.6327 C.3            1 RES1               0.0000
     13 C13        228.6362   4.5749  45.3753 C.ar           1 RES1               0.0000
     14 C14        226.7584   3.4767  46.3486 C.ar           1 RES1               0.0000
     15 C15        226.5285  -0.8280  43.3030 C.2            1 RES1               0.0000
     16 C16        227.5141   4.6167  46.1752 C.ar           1 RES1               0.0000
     17 O17        225.6184  -1.5706  42.9460 O.2            1 RES1               0.0000
     18 H18        230.5733   1.4717  43.3396 H              1 RES1               0.0000
     19 H19        230.6616   0.9671  45.0367 H              1 RES1               0.0000
     20 H20        229.8897   3.3807  44.1253 H              1 RES1               0.0000
     21 H21        226.5135   1.4110  45.8747 H              1 RES1               0.0000
     22 H22        226.5459  -1.4983  45.2317 H              1 RES1               0.0000
     23 H23        226.7688   0.1066  41.5071 H              1 RES1               0.0000
     24 H24        231.6925  -0.7233  43.5546 H              1 RES1               0.0000
     25 H25        230.2706  -1.3955  44.3491 H              1 RES1               0.0000
     26 H26        230.1828  -0.8939  42.6621 H              1 RES1               0.0000
     27 H27        229.2351   5.4690  45.2367 H              1 RES1               0.0000
     28 H28        225.8749   3.5048  46.9777 H              1 RES1               0.0000
     29 H29        227.2276   5.5412  46.6654 H              1 RES1               0.0000
@<TRIPOS>BOND
    1    1    2 1     
    2    1    3 1     
    3    1    4 1     
    4    1    5 1     
    5    2    6 ar    
    6    2    7 ar    
    7    3    8 1     
    8    3    9 2     
    9    4   10 1     
   10    4   11 2     
   11    5   12 1     
   12    5   18 1     
   13    5   19 1     
   14    6   13 ar    
   15    6   20 1     
   16    7   14 ar    
   17    7   21 1     
   18    8   15 1     
   19    8   22 1     
   20   10   15 1     
   21   10   23 1     
   22   12   24 1     
   23   12   25 1     
   24   12   26 1     
   25   13   16 ar    
   26   13   27 1     
   27   14   16 ar    
   28   14   28 1     
   29   15   17 2     
   30   16   29 1     
@<TRIPOS>SUBSTRUCTURE
      1 RES1           1
@<TRIPOS>SET
DONOR_HYDROGENS      STATIC     ATOMS    <user>   **** ""
2 22 23
ATOM$RED        STATIC     ATOMS    COLORGROUP SYSTEM
2 22 23
@<TRIPOS>COMMENT
> <Gold.Version>
2022.3.0

> <Gold.Id.Protein>
unknown|4d1n_clean|pdb

> <Gold.Protein.RotatedTorsions>
[ 1594 1544 1543 1542 ] final  -11.58 input   60.00 | X-H torsion
[ 4304 4284 4283 4280 ] final   36.69 input   59.98 | X-H torsion
[ 4344 4323 4324 4325 ] final  179.59 input  122.59 | X-H torsion
[ 4348 4328 4327 4324 ] final  173.90 input   59.99 | X-H torsion
[ 6708 6672 6671 6669 ] final  -41.90 input   60.02 | X-H torsion
[ 23762 23712 23713 23714 ] final  -16.28 input   58.31 | X-H torsion
[ 23800 23787 23788 23789 ] final  -25.90 input  -92.91 | X-H torsion
[ 6926 6895 6896 6897 ] final   64.36 input  109.21 | X-H torsion
[ 4168 4129 4130 4131 ] final -150.88 input  118.46 | X-H torsion
[ 4085 4052 4053 4054 ] final -156.50 input  111.71 | X-H torsion
[ 1354 1313 1314 1315 ] final  142.22 input  117.91 | X-H torsion
[ 1584 1536 1537 1538 ] final  -20.30 input   95.51 | X-H torsion
[ 23828 23815 23816 23817 ] final   54.07 input  -25.33 | X-H torsion
[ 1288 1260 1258 1255 ] final  144.43 input   59.99 | X-H torsion
[ 25744 25716 25717 25718 ] final  138.16 input   66.04 | X-H torsion
[ 27193 4055 4054 4053 ] final -106.27 input   -0.00 | X-H torsion
[ 27195 4282 4281 4280 ] final  114.43 input    0.00 | X-H torsion
[ 27200 4326 4325 4324 ] final   58.77 input    0.00 | X-H torsion
[ 27211 23656 23655 23654 ] final  -24.50 input   -0.00 | X-H torsion
[ 27214 23715 23714 23713 ] final -176.51 input    0.00 | X-H torsion
[ 27218 6898 6897 6896 ] final  128.38 input   -0.00 | X-H torsion
[ 27220 25719 25718 25717 ] final    3.32 input   -0.00 | X-H torsion
[ 27226 1316 1315 1314 ] final   27.70 input    0.00 | X-H torsion
[ 27230 23818 23817 23816 ] final  -92.05 input    0.00 | X-H torsion
[ 27232 1257 1256 1255 ] final   28.49 input    0.00 | X-H torsion

> <Gold.Protein.ActiveResidues>
 ARG304  THR320  LEU321  LEU323  LYS324  GLN369  TYR370  SER372  SER373  TYR408 
 HIS412  ARG415  ASN416  TRP426  GLU670  CYS673  ARG674  GLY675  GLY676  TYR703 
 LEU705  THR706  PRO707 

> <Gold.Protein.RotatedAtoms>
  220.9072    4.1050   37.4819 H   0  0  0  0  0  0  0  0  0  0  0  0  # atno 1288 bound_to 1260
  223.5781    6.6611   36.9260 H   0  0  0  0  0  0  0  0  0  0  0  0  # atno 1354 bound_to 1313
  223.3711   10.0395   43.0998 H   0  0  0  0  0  0  0  0  0  0  0  0  # atno 1584 bound_to 1536
  223.7004    4.2658   45.7088 H   0  0  0  0  0  0  0  0  0  0  0  0  # atno 1594 bound_to 1544
  222.2602    4.0089   44.9296 H   0  0  0  0  0  0  0  0  0  0  0  0  # atno 1595 bound_to 1544
  223.2163    2.7212   45.3505 H   0  0  0  0  0  0  0  0  0  0  0  0  # atno 1596 bound_to 1544
  227.2838    0.9609   51.2545 H   0  0  0  0  0  0  0  0  0  0  0  0  # atno 4085 bound_to 4052
  230.6189    0.0268   49.8213 H   0  0  0  0  0  0  0  0  0  0  0  0  # atno 4168 bound_to 4129
  225.2290   -3.8006   46.6245 H   0  0  0  0  0  0  0  0  0  0  0  0  # atno 4304 bound_to 4284
  228.4278   -3.0001   47.0053 H   0  0  0  0  0  0  0  0  0  0  0  0  # atno 4344 bound_to 4323
  232.7484   -3.5324   46.5359 H   0  0  0  0  0  0  0  0  0  0  0  0  # atno 4348 bound_to 4328
  231.5290    0.4245   47.0355 H   0  0  0  0  0  0  0  0  0  0  0  0  # atno 6708 bound_to 6672
  238.6069    2.6753   44.5772 H   0  0  0  0  0  0  0  0  0  0  0  0  # atno 6926 bound_to 6895
  226.1097    0.4358   35.0735 H   0  0  0  0  0  0  0  0  0  0  0  0  # atno 23762 bound_to 23712
  226.2340    2.7132   35.1855 H   0  0  0  0  0  0  0  0  0  0  0  0  # atno 23800 bound_to 23787
  226.2985    4.7148   35.7104 H   0  0  0  0  0  0  0  0  0  0  0  0  # atno 23828 bound_to 23815
  231.3672   10.2300   46.3948 H   0  0  0  0  0  0  0  0  0  0  0  0  # atno 25744 bound_to 25716
  229.0966   -2.4203   48.4354 LP  0  0  0  0  0  0  0  0  0  0  0  0  # atno 27193 bound_to 4055
  229.6502   -1.1315   47.4193 LP  0  0  0  0  0  0  0  0  0  0  0  0  # atno 27194 bound_to 4055
  226.9534   -5.3520   45.5227 LP  0  0  0  0  0  0  0  0  0  0  0  0  # atno 27195 bound_to 4282
  227.1715   -6.4460   46.8477 LP  0  0  0  0  0  0  0  0  0  0  0  0  # atno 27196 bound_to 4282
  226.2489   -2.6134   46.1789 LP  0  0  0  0  0  0  0  0  0  0  0  0  # atno 27197 bound_to 4284
  224.7663   -2.2460   46.7563 LP  0  0  0  0  0  0  0  0  0  0  0  0  # atno 27198 bound_to 4284
  228.5032   -4.6286   47.6390 LP  0  0  0  0  0  0  0  0  0  0  0  0  # atno 27199 bound_to 4323
  230.9102   -6.0927   44.1374 LP  0  0  0  0  0  0  0  0  0  0  0  0  # atno 27200 bound_to 4326
  229.7370   -7.2570   44.6550 LP  0  0  0  0  0  0  0  0  0  0  0  0  # atno 27201 bound_to 4326
  232.0478   -4.9903   46.3569 LP  0  0  0  0  0  0  0  0  0  0  0  0  # atno 27202 bound_to 4328
  231.5994   -4.0110   47.5843 LP  0  0  0  0  0  0  0  0  0  0  0  0  # atno 27203 bound_to 4328
  231.5348   -0.6322   45.7977 LP  0  0  0  0  0  0  0  0  0  0  0  0  # atno 27204 bound_to 6672
  232.1903    0.8517   45.6111 LP  0  0  0  0  0  0  0  0  0  0  0  0  # atno 27205 bound_to 6672
  225.8603   -2.3349   36.7201 LP  0  0  0  0  0  0  0  0  0  0  0  0  # atno 27211 bound_to 23656
  226.5036   -1.0392   37.6725 LP  0  0  0  0  0  0  0  0  0  0  0  0  # atno 27212 bound_to 23656
  227.6932   -0.1797   35.4959 LP  0  0  0  0  0  0  0  0  0  0  0  0  # atno 27213 bound_to 23712
  224.8253    3.7313   37.7787 LP  0  0  0  0  0  0  0  0  0  0  0  0  # atno 27214 bound_to 23715
  226.0551    2.9052   38.6760 LP  0  0  0  0  0  0  0  0  0  0  0  0  # atno 27215 bound_to 23715
  225.1038    1.7972   36.1536 LP  0  0  0  0  0  0  0  0  0  0  0  0  # atno 27216 bound_to 23787
  238.4633    1.9287   43.0094 LP  0  0  0  0  0  0  0  0  0  0  0  0  # atno 27217 bound_to 6895
  236.0363    6.3612   42.8342 LP  0  0  0  0  0  0  0  0  0  0  0  0  # atno 27218 bound_to 6898
  236.4983    5.2820   41.5606 LP  0  0  0  0  0  0  0  0  0  0  0  0  # atno 27219 bound_to 6898
  231.2186    7.3826   46.6528 LP  0  0  0  0  0  0  0  0  0  0  0  0  # atno 27220 bound_to 25719
  232.0831    5.9081   46.9333 LP  0  0  0  0  0  0  0  0  0  0  0  0  # atno 27221 bound_to 25719
  229.5866   -1.0352   50.7427 LP  0  0  0  0  0  0  0  0  0  0  0  0  # atno 27222 bound_to 4129
  228.8274    0.2492   51.6450 LP  0  0  0  0  0  0  0  0  0  0  0  0  # atno 27223 bound_to 4052
  222.5608    7.6041   37.9853 LP  0  0  0  0  0  0  0  0  0  0  0  0  # atno 27225 bound_to 1313
  225.4270    7.8040   41.1636 LP  0  0  0  0  0  0  0  0  0  0  0  0  # atno 27226 bound_to 1316
  224.5106    9.2617   41.3513 LP  0  0  0  0  0  0  0  0  0  0  0  0  # atno 27227 bound_to 1316
  223.1612    8.3643   42.6473 LP  0  0  0  0  0  0  0  0  0  0  0  0  # atno 27228 bound_to 1536
  225.5899    4.6024   34.1191 LP  0  0  0  0  0  0  0  0  0  0  0  0  # atno 27229 bound_to 23815
  228.9984    5.3483   36.1034 LP  0  0  0  0  0  0  0  0  0  0  0  0  # atno 27230 bound_to 23818
  229.2042    4.7231   34.5013 LP  0  0  0  0  0  0  0  0  0  0  0  0  # atno 27231 bound_to 23818
  220.8925    7.0725   39.6126 LP  0  0  0  0  0  0  0  0  0  0  0  0  # atno 27232 bound_to 1257
  222.3961    7.8410   39.9986 LP  0  0  0  0  0  0  0  0  0  0  0  0  # atno 27233 bound_to 1257
  222.0738    5.1195   36.9733 LP  0  0  0  0  0  0  0  0  0  0  0  0  # atno 27234 bound_to 1260
  220.9169    4.6158   35.9367 LP  0  0  0  0  0  0  0  0  0  0  0  0  # atno 27235 bound_to 1260

> <Gold.Score>
     Fitness  S(hb_ext) S(vdw_ext)  S(hb_int)    S(int)      intcor
     39.97       8.06      23.84       0.00      -0.87      -0.76

> <Gold.Goldscore.Fitness>
39.9656

> <Gold.Goldscore.Internal.Vdw>
-1.0432

> <Gold.Goldscore.Internal.Torsion>
-0.5849

> <Gold.Goldscore.External.Vdw>
23.8366

> <Gold.Goldscore.Internal.HBond>
0.0000

> <Gold.Goldscore.External.HBond>
8.0599

> <Gold.Goldscore.Internal.Correction>
-0.7585

> <Gold.Goldscore.Hbonds>
donor molecule, donor type, donor heavy atom, donor atom, acceptor molecule, acceptor atom, score
      P1  H  4323  4344       L1     9  0.03
      P1  H 23719 23770       L1    11  1.00
      L1  H     8    22       P1  4284  1.00

> <Gold.Goldscore.Internal.Vdw.Weighted>
-1.0432

> <Gold.Goldscore.Internal.Torsion.Weighted>
-0.5849

> <Gold.Goldscore.External.Vdw.Weighted>
32.7754

> <Gold.Goldscore.Internal.HBond.Weighted>
0.0000

> <Gold.Goldscore.External.HBond.Weighted>
8.0599

> <Gold.Goldscore.Internal.Correction.Weighted>
-0.7585

> <Gold.Rescore>
     Score     S(PLP)   S(hbond)     S(cho)   S(metal)  DE(clash)   DE(tors)     intcor
     29.08     -28.00       0.96       0.00       0.00       0.00       0.90       ----

> <Gold.PLP.Fitness>
29.0828

> <Gold.PLP.PLP>
-28.0033

> <Gold.PLP.part.hbond>
-0.9418

> <Gold.PLP.part.metal>
0.0000

> <Gold.PLP.part.buried>
-6.3808

> <Gold.PLP.part.nonpolar>
-25.6255

> <Gold.PLP.part.repulsive>
3.5364

> <Gold.PLP.ligand.clash>
0.0000

> <Gold.PLP.ligand.torsion>
0.8983

> <Gold.PLP.Chemscore.Hbond>
0.9588

> <Gold.PLP.Chemscore.CHOScore>
0.0000

> <Gold.PLP.Chemscore.Metal>
0.0000

> <Gold.Chemscore.Hbonds>
donor molecule, donor type, donor heavy atom, donor atom, acceptor molecule, acceptor atom, score
      L1  H     8    22       P1  4284  0.41
      P1  H 23719 23770       L1    11  0.65

> <Gold.PLP.Chemscore.Internal.Correction>
   9.000000E+99

