#       Name:                CT1002167954
#       Creating user name   hitesit
#       Creation time:       Sun Apr 16 23:09:01 2023


#       File generated by GOLD software.
#

@<TRIPOS>MOLECULE
CT1002167954|ligand_prepared|mol2|1|dock3
    29    30     1
SMALL
NO_CHARGES


@<TRIPOS>ATOM
      1 C1         227.9495   2.6382  43.9295 C.3            1 RES1               0.0000
      2 C2         228.0662   3.8827  44.8331 C.ar           1 RES1               0.0000
      3 C3         229.3759   2.1634  43.6680 C.2            1 RES1               0.0000
      4 C4         227.0902   1.6361  44.6924 C.2            1 RES1               0.0000
      5 C5         227.2670   2.9152  42.5697 C.3            1 RES1               0.0000
      6 C6         228.5641   5.0804  44.3288 C.ar           1 RES1               0.0000
      7 C7         227.6782   3.8492  46.1698 C.ar           1 RES1               0.0000
      8 N8         229.7942   1.0357  44.3108 N.am           1 RES1               0.0000
      9 O9         230.1348   2.7909  42.9397 O.2            1 RES1               0.0000
     10 N10        227.6774   0.4679  45.1024 N.am           1 RES1               0.0000
     11 O11        225.9144   1.8550  44.9566 O.2            1 RES1               0.0000
     12 C12        227.1501   1.6870  41.6809 C.3            1 RES1               0.0000
     13 C13        228.6676   6.2048  45.1309 C.ar           1 RES1               0.0000
     14 C14        227.7828   4.9747  46.9703 C.ar           1 RES1               0.0000
     15 C15        228.9984   0.1357  44.9730 C.2            1 RES1               0.0000
     16 C16        228.2767   6.1529  46.4519 C.ar           1 RES1               0.0000
     17 O17        229.4634  -0.9105  45.4162 O.2            1 RES1               0.0000
     18 H18        226.2621   3.3147  42.7539 H              1 RES1               0.0000
     19 H19        227.8407   3.6835  42.0366 H              1 RES1               0.0000
     20 H20        228.8790   5.1396  43.2923 H              1 RES1               0.0000
     21 H21        227.2878   2.9329  46.5994 H              1 RES1               0.0000
     22 H22        230.7908   0.8438  44.2980 H              1 RES1               0.0000
     23 H23        227.0737  -0.2177  45.5450 H              1 RES1               0.0000
     24 H24        226.6643   1.9367  40.7399 H              1 RES1               0.0000
     25 H25        228.1331   1.2782  41.4566 H              1 RES1               0.0000
     26 H26        226.5639   0.9116  42.1697 H              1 RES1               0.0000
     27 H27        229.0582   7.1292  44.7185 H              1 RES1               0.0000
     28 H28        227.4745   4.9291  48.0096 H              1 RES1               0.0000
     29 H29        228.3575   7.0339  47.0800 H              1 RES1               0.0000
@<TRIPOS>BOND
    1    1    2 1     
    2    1    3 1     
    3    1    4 1     
    4    1    5 1     
    5    2    6 ar    
    6    2    7 ar    
    7    3    8 1     
    8    3    9 2     
    9    4   10 1     
   10    4   11 2     
   11    5   12 1     
   12    5   18 1     
   13    5   19 1     
   14    6   13 ar    
   15    6   20 1     
   16    7   14 ar    
   17    7   21 1     
   18    8   15 1     
   19    8   22 1     
   20   10   15 1     
   21   10   23 1     
   22   12   24 1     
   23   12   25 1     
   24   12   26 1     
   25   13   16 ar    
   26   13   27 1     
   27   14   16 ar    
   28   14   28 1     
   29   15   17 2     
   30   16   29 1     
@<TRIPOS>SUBSTRUCTURE
      1 RES1           1
@<TRIPOS>SET
DONOR_HYDROGENS      STATIC     ATOMS    <user>   **** ""
2 22 23
ATOM$RED        STATIC     ATOMS    COLORGROUP SYSTEM
2 22 23
@<TRIPOS>COMMENT
> <Gold.Version>
2022.3.0

> <Gold.Id.Protein>
unknown|4d1n_clean|pdb

> <Gold.Protein.RotatedTorsions>
[ 1594 1544 1543 1542 ] final  -23.02 input   60.00 | X-H torsion
[ 4304 4284 4283 4280 ] final   51.16 input   59.98 | X-H torsion
[ 4344 4323 4324 4325 ] final   24.08 input  122.59 | X-H torsion
[ 4348 4328 4327 4324 ] final  143.02 input   59.99 | X-H torsion
[ 6708 6672 6671 6669 ] final  166.23 input   60.02 | X-H torsion
[ 23762 23712 23713 23714 ] final -146.13 input   58.31 | X-H torsion
[ 23800 23787 23788 23789 ] final   25.30 input  -92.91 | X-H torsion
[ 6926 6895 6896 6897 ] final   52.33 input  109.21 | X-H torsion
[ 4168 4129 4130 4131 ] final  155.45 input  118.46 | X-H torsion
[ 4085 4052 4053 4054 ] final  145.62 input  111.71 | X-H torsion
[ 1354 1313 1314 1315 ] final  -56.57 input  117.91 | X-H torsion
[ 1584 1536 1537 1538 ] final -158.80 input   95.51 | X-H torsion
[ 23828 23815 23816 23817 ] final   42.42 input  -25.33 | X-H torsion
[ 1288 1260 1258 1255 ] final  178.96 input   59.99 | X-H torsion
[ 25744 25716 25717 25718 ] final   74.66 input   66.04 | X-H torsion
[ 27193 4055 4054 4053 ] final -172.77 input   -0.00 | X-H torsion
[ 27195 4282 4281 4280 ] final  -59.74 input    0.00 | X-H torsion
[ 27200 4326 4325 4324 ] final  150.02 input    0.00 | X-H torsion
[ 27211 23656 23655 23654 ] final  117.00 input   -0.00 | X-H torsion
[ 27214 23715 23714 23713 ] final  105.40 input    0.00 | X-H torsion
[ 27218 6898 6897 6896 ] final   25.69 input   -0.00 | X-H torsion
[ 27220 25719 25718 25717 ] final   -8.23 input   -0.00 | X-H torsion
[ 27226 1316 1315 1314 ] final   93.51 input    0.00 | X-H torsion
[ 27230 23818 23817 23816 ] final  103.02 input    0.00 | X-H torsion
[ 27232 1257 1256 1255 ] final  130.88 input    0.00 | X-H torsion

> <Gold.Protein.ActiveResidues>
 ARG304  THR320  LEU321  LEU323  LYS324  GLN369  TYR370  SER372  SER373  TYR408 
 HIS412  ARG415  ASN416  TRP426  GLU670  CYS673  ARG674  GLY675  GLY676  TYR703 
 LEU705  THR706  PRO707 

> <Gold.Protein.RotatedAtoms>
  220.5999    4.0309   37.0246 H   0  0  0  0  0  0  0  0  0  0  0  0  # atno 1288 bound_to 1260
  222.4686    7.3480   38.0708 H   0  0  0  0  0  0  0  0  0  0  0  0  # atno 1354 bound_to 1313
  222.7126    8.5232   43.0441 H   0  0  0  0  0  0  0  0  0  0  0  0  # atno 1584 bound_to 1536
  223.7972    4.1064   45.7495 H   0  0  0  0  0  0  0  0  0  0  0  0  # atno 1594 bound_to 1544
  222.3317    4.1790   44.9786 H   0  0  0  0  0  0  0  0  0  0  0  0  # atno 1595 bound_to 1544
  223.0481    2.7105   45.2608 H   0  0  0  0  0  0  0  0  0  0  0  0  # atno 1596 bound_to 1544
  227.9602    1.4667   51.3363 H   0  0  0  0  0  0  0  0  0  0  0  0  # atno 4085 bound_to 4052
  230.7194    0.0235   50.6070 H   0  0  0  0  0  0  0  0  0  0  0  0  # atno 4168 bound_to 4129
  225.0224   -3.7190   46.7039 H   0  0  0  0  0  0  0  0  0  0  0  0  # atno 4304 bound_to 4284
  228.8007   -4.4880   47.8125 H   0  0  0  0  0  0  0  0  0  0  0  0  # atno 4344 bound_to 4323
  232.7930   -3.9119   46.2156 H   0  0  0  0  0  0  0  0  0  0  0  0  # atno 4348 bound_to 4328
  231.7715   -0.3717   45.4205 H   0  0  0  0  0  0  0  0  0  0  0  0  # atno 6708 bound_to 6672
  238.7071    2.7995   44.4876 H   0  0  0  0  0  0  0  0  0  0  0  0  # atno 6926 bound_to 6895
  227.1396   -0.5690   35.8017 H   0  0  0  0  0  0  0  0  0  0  0  0  # atno 23762 bound_to 23712
  226.2425    2.8645   35.9343 H   0  0  0  0  0  0  0  0  0  0  0  0  # atno 23800 bound_to 23787
  226.4364    4.6295   35.6351 H   0  0  0  0  0  0  0  0  0  0  0  0  # atno 23828 bound_to 23815
  231.0267    9.3629   46.3909 H   0  0  0  0  0  0  0  0  0  0  0  0  # atno 25744 bound_to 25716
  230.0136   -2.2666   48.2425 LP  0  0  0  0  0  0  0  0  0  0  0  0  # atno 27193 bound_to 4055
  228.7332   -1.2852   47.6122 LP  0  0  0  0  0  0  0  0  0  0  0  0  # atno 27194 bound_to 4055
  227.0883   -6.4280   46.8704 LP  0  0  0  0  0  0  0  0  0  0  0  0  # atno 27195 bound_to 4282
  227.0366   -5.3699   45.5000 LP  0  0  0  0  0  0  0  0  0  0  0  0  # atno 27196 bound_to 4282
  226.2888   -2.8473   46.1704 LP  0  0  0  0  0  0  0  0  0  0  0  0  # atno 27197 bound_to 4284
  224.9343   -2.0942   46.6848 LP  0  0  0  0  0  0  0  0  0  0  0  0  # atno 27198 bound_to 4284
  228.1406   -3.1821   46.8543 LP  0  0  0  0  0  0  0  0  0  0  0  0  # atno 27199 bound_to 4323
  230.9384   -7.1558   44.7713 LP  0  0  0  0  0  0  0  0  0  0  0  0  # atno 27200 bound_to 4326
  229.7088   -6.1939   44.0211 LP  0  0  0  0  0  0  0  0  0  0  0  0  # atno 27201 bound_to 4326
  231.7178   -5.0178   46.7344 LP  0  0  0  0  0  0  0  0  0  0  0  0  # atno 27202 bound_to 4328
  231.8844   -3.6012   47.5294 LP  0  0  0  0  0  0  0  0  0  0  0  0  # atno 27203 bound_to 4328
  232.1212    1.0786   46.0713 LP  0  0  0  0  0  0  0  0  0  0  0  0  # atno 27204 bound_to 6672
  231.3597   -0.0575   46.9634 LP  0  0  0  0  0  0  0  0  0  0  0  0  # atno 27205 bound_to 6672
  226.9047   -1.4399   37.6044 LP  0  0  0  0  0  0  0  0  0  0  0  0  # atno 27211 bound_to 23656
  225.4592   -1.9342   36.7883 LP  0  0  0  0  0  0  0  0  0  0  0  0  # atno 27212 bound_to 23656
  226.6981    0.7912   34.7922 LP  0  0  0  0  0  0  0  0  0  0  0  0  # atno 27213 bound_to 23712
  225.8773    3.9921   37.9035 LP  0  0  0  0  0  0  0  0  0  0  0  0  # atno 27214 bound_to 23715
  225.0030    2.6445   38.5511 LP  0  0  0  0  0  0  0  0  0  0  0  0  # atno 27215 bound_to 23715
  225.0955    1.6495   35.4224 LP  0  0  0  0  0  0  0  0  0  0  0  0  # atno 27216 bound_to 23787
  238.3637    1.8053   43.0984 LP  0  0  0  0  0  0  0  0  0  0  0  0  # atno 27217 bound_to 6895
  235.6247    5.2410   42.1975 LP  0  0  0  0  0  0  0  0  0  0  0  0  # atno 27218 bound_to 6898
  236.9099    6.4022   42.1973 LP  0  0  0  0  0  0  0  0  0  0  0  0  # atno 27219 bound_to 6898
  231.1844    7.3744   46.8234 LP  0  0  0  0  0  0  0  0  0  0  0  0  # atno 27220 bound_to 25719
  232.1174    5.9163   46.7627 LP  0  0  0  0  0  0  0  0  0  0  0  0  # atno 27221 bound_to 25719
  229.4873   -1.0319   49.9662 LP  0  0  0  0  0  0  0  0  0  0  0  0  # atno 27222 bound_to 4129
  228.1587   -0.2509   51.5641 LP  0  0  0  0  0  0  0  0  0  0  0  0  # atno 27223 bound_to 4052
  223.6524    6.9282   36.8590 LP  0  0  0  0  0  0  0  0  0  0  0  0  # atno 27225 bound_to 1313
  225.7982    8.6601   41.0433 LP  0  0  0  0  0  0  0  0  0  0  0  0  # atno 27226 bound_to 1316
  224.1394    8.4056   41.4716 LP  0  0  0  0  0  0  0  0  0  0  0  0  # atno 27227 bound_to 1316
  223.8041    9.8448   42.7017 LP  0  0  0  0  0  0  0  0  0  0  0  0  # atno 27228 bound_to 1536
  225.4544    4.6863   34.1931 LP  0  0  0  0  0  0  0  0  0  0  0  0  # atno 27229 bound_to 23815
  229.3950    4.8459   34.5101 LP  0  0  0  0  0  0  0  0  0  0  0  0  # atno 27230 bound_to 23818
  228.8076    5.2255   36.0947 LP  0  0  0  0  0  0  0  0  0  0  0  0  # atno 27231 bound_to 23818
  222.1468    6.7847   40.0198 LP  0  0  0  0  0  0  0  0  0  0  0  0  # atno 27232 bound_to 1257
  221.1418    8.1287   39.5914 LP  0  0  0  0  0  0  0  0  0  0  0  0  # atno 27233 bound_to 1257
  221.9337    4.8610   37.4495 LP  0  0  0  0  0  0  0  0  0  0  0  0  # atno 27234 bound_to 1260
  221.3663    4.9489   35.9207 LP  0  0  0  0  0  0  0  0  0  0  0  0  # atno 27235 bound_to 1260

> <Gold.Score>
     Fitness  S(hb_ext) S(vdw_ext)  S(hb_int)    S(int)      intcor
     40.42       6.26      26.23       0.00      -1.92      -0.76

> <Gold.Goldscore.Fitness>
40.4187

> <Gold.Goldscore.Internal.Vdw>
-2.3071

> <Gold.Goldscore.Internal.Torsion>
-0.3665

> <Gold.Goldscore.External.Vdw>
26.2331

> <Gold.Goldscore.Internal.HBond>
0.0000

> <Gold.Goldscore.External.HBond>
6.2632

> <Gold.Goldscore.Internal.Correction>
-0.7585

> <Gold.Goldscore.Hbonds>
donor molecule, donor type, donor heavy atom, donor atom, acceptor molecule, acceptor atom, score
      P1  H 23722 23774       L1     9  0.98
      L1  H     8    22       P1  6904  0.03
      L1  H    10    23       P1  4284  0.09

> <Gold.Goldscore.Internal.Vdw.Weighted>
-2.3071

> <Gold.Goldscore.Internal.Torsion.Weighted>
-0.3665

> <Gold.Goldscore.External.Vdw.Weighted>
36.0706

> <Gold.Goldscore.Internal.HBond.Weighted>
0.0000

> <Gold.Goldscore.External.HBond.Weighted>
6.2632

> <Gold.Goldscore.Internal.Correction.Weighted>
-0.7585

> <Gold.Rescore>
     Score     S(PLP)   S(hbond)     S(cho)   S(metal)  DE(clash)   DE(tors)     intcor
     36.52     -32.00       2.02       0.00       0.00       1.41       0.06       ----

> <Gold.PLP.Fitness>
36.5197

> <Gold.PLP.PLP>
-32.0001

> <Gold.PLP.part.hbond>
-3.5746

> <Gold.PLP.part.metal>
0.0000

> <Gold.PLP.part.buried>
0.6745

> <Gold.PLP.part.nonpolar>
-32.4175

> <Gold.PLP.part.repulsive>
1.7622

> <Gold.PLP.ligand.clash>
1.4075

> <Gold.PLP.ligand.torsion>
0.0593

> <Gold.PLP.Chemscore.Hbond>
2.0153

> <Gold.PLP.Chemscore.CHOScore>
0.0000

> <Gold.PLP.Chemscore.Metal>
0.0000

> <Gold.Chemscore.Hbonds>
donor molecule, donor type, donor heavy atom, donor atom, acceptor molecule, acceptor atom, score
      P1  H  6672  6708       L1    17  0.08
      P1  H 23719 23770       L1     9  0.06
      P1  H 23722 23774       L1     9  0.63

> <Gold.PLP.Chemscore.Internal.Correction>
   9.000000E+99

