#       Name:                CT1002167954
#       Creating user name   hitesit
#       Creation time:       Sun Apr 16 22:50:10 2023


#       File generated by GOLD software.
#

@<TRIPOS>MOLECULE
CT1002167954|ligand_prepared|mol2|1|dock4
    29    30     1
SMALL
NO_CHARGES


@<TRIPOS>ATOM
      1 C1          26.9129   9.2636  -3.6065 C.3            1 RES1               0.0000
      2 C2          26.9534   9.5371  -2.0892 C.ar           1 RES1               0.0000
      3 C3          26.9977   7.7490  -3.7713 C.2            1 RES1               0.0000
      4 C4          25.6111   9.8728  -4.1153 C.2            1 RES1               0.0000
      5 C5          28.0802   9.9089  -4.3891 C.3            1 RES1               0.0000
      6 C6          25.8001   9.4263  -1.3182 C.ar           1 RES1               0.0000
      7 C7          28.1349   9.8978  -1.4470 C.ar           1 RES1               0.0000
      8 N8          25.8606   7.0880  -4.1317 N.am           1 RES1               0.0000
      9 O9          28.0367   7.1393  -3.5498 O.2            1 RES1               0.0000
     10 N10         24.6535   9.0240  -4.6055 N.am           1 RES1               0.0000
     11 O11         25.3993  11.0787  -4.0806 O.2            1 RES1               0.0000
     12 C12         27.8824   9.9079  -5.8968 C.3            1 RES1               0.0000
     13 C13         25.8276   9.6645   0.0459 C.ar           1 RES1               0.0000
     14 C14         28.1601  10.1359  -0.0827 C.ar           1 RES1               0.0000
     15 C15         24.7069   7.6568  -4.6084 C.2            1 RES1               0.0000
     16 C16         27.0075  10.0190   0.6646 C.ar           1 RES1               0.0000
     17 O17         23.7822   6.9600  -5.0165 O.2            1 RES1               0.0000
     18 H18         28.2028  10.9449  -4.0498 H              1 RES1               0.0000
     19 H19         29.0049   9.3675  -4.1540 H              1 RES1               0.0000
     20 H20         24.8618   9.1507  -1.7880 H              1 RES1               0.0000
     21 H21         29.0537   9.9968  -2.0151 H              1 RES1               0.0000
     22 H22         25.8687   6.0773  -4.0381 H              1 RES1               0.0000
     23 H23         23.8240   9.4510  -5.0055 H              1 RES1               0.0000
     24 H24         28.7297  10.3718  -6.3973 H              1 RES1               0.0000
     25 H25         27.7821   8.8915  -6.2720 H              1 RES1               0.0000
     26 H26         26.9847  10.4596  -6.1683 H              1 RES1               0.0000
     27 H27         24.9174   9.5726   0.6294 H              1 RES1               0.0000
     28 H28         29.0908  10.4153   0.3999 H              1 RES1               0.0000
     29 H29         27.0288  10.2053   1.7333 H              1 RES1               0.0000
@<TRIPOS>BOND
    1    1    2 1     
    2    1    3 1     
    3    1    4 1     
    4    1    5 1     
    5    2    6 ar    
    6    2    7 ar    
    7    3    8 1     
    8    3    9 2     
    9    4   10 1     
   10    4   11 2     
   11    5   12 1     
   12    5   18 1     
   13    5   19 1     
   14    6   13 ar    
   15    6   20 1     
   16    7   14 ar    
   17    7   21 1     
   18    8   15 1     
   19    8   22 1     
   20   10   15 1     
   21   10   23 1     
   22   12   24 1     
   23   12   25 1     
   24   12   26 1     
   25   13   16 ar    
   26   13   27 1     
   27   14   16 ar    
   28   14   28 1     
   29   15   17 2     
   30   16   29 1     
@<TRIPOS>SUBSTRUCTURE
      1 RES1           1
@<TRIPOS>SET
DONOR_HYDROGENS      STATIC     ATOMS    <user>   **** ""
2 22 23
ATOM$RED        STATIC     ATOMS    COLORGROUP SYSTEM
2 22 23
@<TRIPOS>COMMENT
> <Gold.Version>
2022.3.0

> <Gold.Id.Protein>
unknown|3nx8_clean|pdb

> <Gold.Protein.RotatedTorsions>
[ 1752 1744 1743 1741 ] final  -68.34 input   60.01 | X-H torsion
[ 2770 2763 2761 2758 ] final   37.06 input   60.01 | X-H torsion
[ 5056 5047 5046 5044 ] final   79.67 input   59.99 | X-H torsion

> <Gold.Protein.ActiveResidues>
 LEU49   GLY50   THR51   GLY52   ARG56   VAL57   MET58   LEU59   VAL60   HIS68  
 TYR69   ALA70   MET71   LYS72   LEU95   VAL104  LYS105  MET118  VAL119  MET120 
 GLU121  TYR122  VAL123  PRO124  GLY125  GLY126  GLU127  GLU170  ASN171  LEU173 
 ILE174  GLN181  VAL182  THR183  ASP184  PHE327  TYR330 

> <Gold.Protein.RotatedAtoms>
   34.6762   10.9106  -10.8573 H   0  0  0  0  0  0  0  0  0  0  0  0  # atno 1752 bound_to 1744
   30.1107    8.1977    1.3449 H   0  0  0  0  0  0  0  0  0  0  0  0  # atno 2770 bound_to 2763
   23.4022   10.1386   -8.6397 H   0  0  0  0  0  0  0  0  0  0  0  0  # atno 5056 bound_to 5047
   35.5842   12.1278  -11.4422 LP  0  0  0  0  0  0  0  0  0  0  0  0  # atno 5370 bound_to 1744
   34.0941   12.4302  -10.8464 LP  0  0  0  0  0  0  0  0  0  0  0  0  # atno 5371 bound_to 1744
   28.6905    8.3445    0.5635 LP  0  0  0  0  0  0  0  0  0  0  0  0  # atno 5378 bound_to 2763
   30.0830    8.7555   -0.1839 LP  0  0  0  0  0  0  0  0  0  0  0  0  # atno 5379 bound_to 2763

> <Gold.Score>
     Fitness  S(hb_ext) S(vdw_ext)  S(hb_int)    S(int)      intcor
     42.12       1.61      29.60       0.00      -0.19      -0.79

> <Gold.Goldscore.Fitness>
42.1229

> <Gold.Goldscore.Internal.Vdw>
-0.3521

> <Gold.Goldscore.Internal.Torsion>
-0.6207

> <Gold.Goldscore.External.Vdw>
29.6020

> <Gold.Goldscore.Internal.HBond>
0.0000

> <Gold.Goldscore.External.HBond>
1.6058

> <Gold.Goldscore.Internal.Correction>
-0.7872

> <Gold.Goldscore.Hbonds>
donor molecule, donor type, donor heavy atom, donor atom, acceptor molecule, acceptor atom, score
      L1  H     8    22       P1  2555  0.80

> <Gold.Goldscore.Internal.Vdw.Weighted>
-0.3521

> <Gold.Goldscore.Internal.Torsion.Weighted>
-0.6207

> <Gold.Goldscore.External.Vdw.Weighted>
40.7027

> <Gold.Goldscore.Internal.HBond.Weighted>
0.0000

> <Gold.Goldscore.External.HBond.Weighted>
1.6058

> <Gold.Goldscore.Internal.Correction.Weighted>
-0.7872

> <Gold.Rescore>
     Score     S(PLP)   S(hbond)     S(cho)   S(metal)  DE(clash)   DE(tors)     intcor
     24.65     -22.95       1.10       0.00       0.00       0.00       0.80       ----

> <Gold.PLP.Fitness>
24.6502

> <Gold.PLP.PLP>
-22.9510

> <Gold.PLP.part.hbond>
-3.0933

> <Gold.PLP.part.metal>
0.0000

> <Gold.PLP.part.buried>
13.7522

> <Gold.PLP.part.nonpolar>
-35.4045

> <Gold.PLP.part.repulsive>
2.5149

> <Gold.PLP.ligand.clash>
0.0000

> <Gold.PLP.ligand.torsion>
0.8016

> <Gold.PLP.Chemscore.Hbond>
1.1009

> <Gold.PLP.Chemscore.CHOScore>
0.0000

> <Gold.PLP.Chemscore.Metal>
0.0000

> <Gold.Chemscore.Hbonds>
donor molecule, donor type, donor heavy atom, donor atom, acceptor molecule, acceptor atom, score
      L1  H     8    22       P1  2555  1.00
      L1  H    10    23       P1   541  0.35

> <Gold.PLP.Chemscore.Internal.Correction>
   9.000000E+99

#       Name:                CT1002167954
#       Creating user name   hitesit
#       Creation time:       Sun Apr 16 22:50:07 2023


#       File generated by GOLD software.
#

@<TRIPOS>MOLECULE
CT1002167954|ligand_prepared|mol2|1|dock1
    29    30     1
SMALL
NO_CHARGES


@<TRIPOS>ATOM
      1 C1          26.7257   9.5984  -3.4514 C.3            1 RES1               0.0000
      2 C2          28.2600   9.7559  -3.4490 C.ar           1 RES1               0.0000
      3 C3          26.3340   9.1966  -2.0325 C.2            1 RES1               0.0000
      4 C4          26.1596  10.9425  -3.8961 C.2            1 RES1               0.0000
      5 C5          26.2103   8.5162  -4.4284 C.3            1 RES1               0.0000
      6 C6          28.9351  10.1002  -2.2818 C.ar           1 RES1               0.0000
      7 C7          29.0127   9.5580  -4.6035 C.ar           1 RES1               0.0000
      8 N8          25.7317  10.1392  -1.2524 N.am           1 RES1               0.0000
      9 O9          26.5855   8.0818  -1.5916 O.2            1 RES1               0.0000
     10 N10         25.4230  11.6602  -2.9904 N.am           1 RES1               0.0000
     11 O11         26.3587  11.3941  -5.0171 O.2            1 RES1               0.0000
     12 C12         24.7375   8.1816  -4.2514 C.3            1 RES1               0.0000
     13 C13         30.3131  10.2386  -2.2684 C.ar           1 RES1               0.0000
     14 C14         30.3907   9.6972  -4.5879 C.ar           1 RES1               0.0000
     15 C15         25.2093  11.3336  -1.6790 C.2            1 RES1               0.0000
     16 C16         31.0419  10.0368  -3.4211 C.ar           1 RES1               0.0000
     17 O17         24.5816  12.0575  -0.9114 O.2            1 RES1               0.0000
     18 H18         26.3726   8.8625  -5.4566 H              1 RES1               0.0000
     19 H19         26.7996   7.6020  -4.2856 H              1 RES1               0.0000
     20 H20         28.3782  10.2653  -1.3655 H              1 RES1               0.0000
     21 H21         28.5216   9.2912  -5.5331 H              1 RES1               0.0000
     22 H22         25.6635   9.9373  -0.2599 H              1 RES1               0.0000
     23 H23         24.9943  12.5173  -3.3250 H              1 RES1               0.0000
     24 H24         24.4276   7.4174  -4.9610 H              1 RES1               0.0000
     25 H25         24.5444   7.8100  -3.2472 H              1 RES1               0.0000
     26 H26         24.1199   9.0630  -4.4112 H              1 RES1               0.0000
     27 H27         30.8207  10.5074  -1.3478 H              1 RES1               0.0000
     28 H28         30.9601   9.5380  -5.4977 H              1 RES1               0.0000
     29 H29         32.1214  10.1449  -3.4103 H              1 RES1               0.0000
@<TRIPOS>BOND
    1    1    2 1     
    2    1    3 1     
    3    1    4 1     
    4    1    5 1     
    5    2    6 ar    
    6    2    7 ar    
    7    3    8 1     
    8    3    9 2     
    9    4   10 1     
   10    4   11 2     
   11    5   12 1     
   12    5   18 1     
   13    5   19 1     
   14    6   13 ar    
   15    6   20 1     
   16    7   14 ar    
   17    7   21 1     
   18    8   15 1     
   19    8   22 1     
   20   10   15 1     
   21   10   23 1     
   22   12   24 1     
   23   12   25 1     
   24   12   26 1     
   25   13   16 ar    
   26   13   27 1     
   27   14   16 ar    
   28   14   28 1     
   29   15   17 2     
   30   16   29 1     
@<TRIPOS>SUBSTRUCTURE
      1 RES1           1
@<TRIPOS>SET
DONOR_HYDROGENS      STATIC     ATOMS    <user>   **** ""
2 22 23
ATOM$RED        STATIC     ATOMS    COLORGROUP SYSTEM
2 22 23
@<TRIPOS>COMMENT
> <Gold.Version>
2022.3.0

> <Gold.Id.Protein>
unknown|3nx8_clean|pdb

> <Gold.Protein.RotatedTorsions>
[ 1752 1744 1743 1741 ] final   23.61 input   60.01 | X-H torsion
[ 2770 2763 2761 2758 ] final -164.53 input   60.01 | X-H torsion
[ 5056 5047 5046 5044 ] final -174.04 input   59.99 | X-H torsion

> <Gold.Protein.ActiveResidues>
 LEU49   GLY50   THR51   GLY52   ARG56   VAL57   MET58   LEU59   VAL60   HIS68  
 TYR69   ALA70   MET71   LYS72   LEU95   VAL104  LYS105  MET118  VAL119  MET120 
 GLU121  TYR122  VAL123  PRO124  GLY125  GLY126  GLU127  GLU170  ASN171  LEU173 
 ILE174  GLN181  VAL182  THR183  ASP184  PHE327  TYR330 

> <Gold.Protein.RotatedAtoms>
   33.9351   12.0253  -10.7115 H   0  0  0  0  0  0  0  0  0  0  0  0  # atno 1752 bound_to 1744
   29.4756    8.7338   -0.2968 H   0  0  0  0  0  0  0  0  0  0  0  0  # atno 2770 bound_to 2763
   21.9926    9.9375   -9.1064 H   0  0  0  0  0  0  0  0  0  0  0  0  # atno 5056 bound_to 5047
   35.0918   10.9295  -11.0426 LP  0  0  0  0  0  0  0  0  0  0  0  0  # atno 5370 bound_to 1744
   35.3326   12.5063  -11.3927 LP  0  0  0  0  0  0  0  0  0  0  0  0  # atno 5371 bound_to 1744
   30.5082    8.3966    0.9153 LP  0  0  0  0  0  0  0  0  0  0  0  0  # atno 5378 bound_to 2763
   28.9045    8.1639    1.1168 LP  0  0  0  0  0  0  0  0  0  0  0  0  # atno 5379 bound_to 2763

> <Gold.Score>
     Fitness  S(hb_ext) S(vdw_ext)  S(hb_int)    S(int)      intcor
     41.96       0.08      31.00       0.00      -0.74      -0.79

> <Gold.Goldscore.Fitness>
41.9585

> <Gold.Goldscore.Internal.Vdw>
-0.9781

> <Gold.Goldscore.Internal.Torsion>
-0.5470

> <Gold.Goldscore.External.Vdw>
30.9956

> <Gold.Goldscore.Internal.HBond>
0.0000

> <Gold.Goldscore.External.HBond>
0.0754

> <Gold.Goldscore.Internal.Correction>
-0.7893

> <Gold.Goldscore.Hbonds>
donor molecule, donor type, donor heavy atom, donor atom, acceptor molecule, acceptor atom, score
      L1  H    10    23       P1   534  0.04

> <Gold.Goldscore.Internal.Vdw.Weighted>
-0.9781

> <Gold.Goldscore.Internal.Torsion.Weighted>
-0.5470

> <Gold.Goldscore.External.Vdw.Weighted>
42.6190

> <Gold.Goldscore.Internal.HBond.Weighted>
0.0000

> <Gold.Goldscore.External.HBond.Weighted>
0.0754

> <Gold.Goldscore.Internal.Correction.Weighted>
-0.7893

> <Gold.Rescore>
     Score     S(PLP)   S(hbond)     S(cho)   S(metal)  DE(clash)   DE(tors)     intcor
     19.45     -20.57       0.46       0.00       0.00       1.59       0.46       ----

> <Gold.PLP.Fitness>
19.4476

> <Gold.PLP.PLP>
-20.5741

> <Gold.PLP.part.hbond>
-4.0601

> <Gold.PLP.part.metal>
0.0000

> <Gold.PLP.part.buried>
15.8638

> <Gold.PLP.part.nonpolar>
-35.2120

> <Gold.PLP.part.repulsive>
1.0253

> <Gold.PLP.ligand.clash>
1.5943

> <Gold.PLP.ligand.torsion>
0.4572

> <Gold.PLP.Chemscore.Hbond>
0.4607

> <Gold.PLP.Chemscore.CHOScore>
0.0000

> <Gold.PLP.Chemscore.Metal>
0.0000

> <Gold.Chemscore.Hbonds>
donor molecule, donor type, donor heavy atom, donor atom, acceptor molecule, acceptor atom, score
      L1  H    10    23       P1   534  0.46
      P1  H   552   556       L1    17  0.18

> <Gold.PLP.Chemscore.Internal.Correction>
   9.000000E+99

#       Name:                CT1002167954
#       Creating user name   hitesit
#       Creation time:       Sun Apr 16 22:50:08 2023


#       File generated by GOLD software.
#

@<TRIPOS>MOLECULE
CT1002167954|ligand_prepared|mol2|1|dock2
    29    30     1
SMALL
NO_CHARGES


@<TRIPOS>ATOM
      1 C1          26.0156   9.8500  -2.6536 C.3            1 RES1               0.0000
      2 C2          27.5056   9.9529  -3.0386 C.ar           1 RES1               0.0000
      3 C3          25.9756   9.6793  -1.1378 C.2            1 RES1               0.0000
      4 C4          25.3565  11.1309  -3.1531 C.2            1 RES1               0.0000
      5 C5          25.2840   8.6519  -3.3023 C.3            1 RES1               0.0000
      6 C6          27.9033   9.8429  -4.3676 C.ar           1 RES1               0.0000
      7 C7          28.4919  10.1601  -2.0778 C.ar           1 RES1               0.0000
      8 N8          25.5751  10.7486  -0.3920 N.am           1 RES1               0.0000
      9 O9          26.3278   8.6353  -0.6028 O.2            1 RES1               0.0000
     10 N10         24.8562  12.0014  -2.2205 N.am           1 RES1               0.0000
     11 O11         25.2807  11.4021  -4.3451 O.2            1 RES1               0.0000
     12 C12         26.0737   7.3532  -3.2559 C.3            1 RES1               0.0000
     13 C13         29.2383   9.9394  -4.7238 C.ar           1 RES1               0.0000
     14 C14         29.8264  10.2561  -2.4362 C.ar           1 RES1               0.0000
     15 C15         24.9630  11.8828  -0.8615 C.2            1 RES1               0.0000
     16 C16         30.2005  10.1465  -3.7586 C.ar           1 RES1               0.0000
     17 O17         24.5354  12.7349  -0.0880 O.2            1 RES1               0.0000
     18 H18         24.3270   8.5018  -2.7875 H              1 RES1               0.0000
     19 H19         25.0668   8.8958  -4.3495 H              1 RES1               0.0000
     20 H20         27.1605   9.6774  -5.1408 H              1 RES1               0.0000
     21 H21         28.2208  10.2483  -1.0312 H              1 RES1               0.0000
     22 H22         25.7467  10.7004   0.6073 H              1 RES1               0.0000
     23 H23         24.3579  12.8129  -2.5719 H              1 RES1               0.0000
     24 H24         25.5153   6.5454  -3.7242 H              1 RES1               0.0000
     25 H25         27.0210   7.4588  -3.7805 H              1 RES1               0.0000
     26 H26         26.2856   7.0672  -2.2277 H              1 RES1               0.0000
     27 H27         29.5277   9.8511  -5.7658 H              1 RES1               0.0000
     28 H28         30.5804  10.4185  -1.6731 H              1 RES1               0.0000
     29 H29         31.2462  10.2225  -4.0379 H              1 RES1               0.0000
@<TRIPOS>BOND
    1    1    2 1     
    2    1    3 1     
    3    1    4 1     
    4    1    5 1     
    5    2    6 ar    
    6    2    7 ar    
    7    3    8 1     
    8    3    9 2     
    9    4   10 1     
   10    4   11 2     
   11    5   12 1     
   12    5   18 1     
   13    5   19 1     
   14    6   13 ar    
   15    6   20 1     
   16    7   14 ar    
   17    7   21 1     
   18    8   15 1     
   19    8   22 1     
   20   10   15 1     
   21   10   23 1     
   22   12   24 1     
   23   12   25 1     
   24   12   26 1     
   25   13   16 ar    
   26   13   27 1     
   27   14   16 ar    
   28   14   28 1     
   29   15   17 2     
   30   16   29 1     
@<TRIPOS>SUBSTRUCTURE
      1 RES1           1
@<TRIPOS>SET
DONOR_HYDROGENS      STATIC     ATOMS    <user>   **** ""
2 22 23
ATOM$RED        STATIC     ATOMS    COLORGROUP SYSTEM
2 22 23
@<TRIPOS>COMMENT
> <Gold.Version>
2022.3.0

> <Gold.Id.Protein>
unknown|3nx8_clean|pdb

> <Gold.Protein.RotatedTorsions>
[ 1752 1744 1743 1741 ] final   77.97 input   60.01 | X-H torsion
[ 2770 2763 2761 2758 ] final  -98.53 input   60.01 | X-H torsion
[ 5056 5047 5046 5044 ] final  143.81 input   59.99 | X-H torsion

> <Gold.Protein.ActiveResidues>
 LEU49   GLY50   THR51   GLY52   ARG56   VAL57   MET58   LEU59   VAL60   HIS68  
 TYR69   ALA70   MET71   LYS72   LEU95   VAL104  LYS105  MET118  VAL119  MET120 
 GLU121  TYR122  VAL123  PRO124  GLY125  GLY126  GLU127  GLU170  ASN171  LEU173 
 ILE174  GLN181  VAL182  THR183  ASP184  PHE327  TYR330 

> <Gold.Protein.RotatedAtoms>
   34.4021   12.6748  -11.0144 H   0  0  0  0  0  0  0  0  0  0  0  0  # atno 1752 bound_to 1744
   28.7264    8.4320    0.3265 H   0  0  0  0  0  0  0  0  0  0  0  0  # atno 2770 bound_to 2763
   22.4114   10.0681   -8.5955 H   0  0  0  0  0  0  0  0  0  0  0  0  # atno 5056 bound_to 5047
   34.3045   11.0763  -10.7258 LP  0  0  0  0  0  0  0  0  0  0  0  0  # atno 5370 bound_to 1744
   35.6498   11.7056  -11.4046 LP  0  0  0  0  0  0  0  0  0  0  0  0  # atno 5371 bound_to 1744
   30.2872    8.7209   -0.0337 LP  0  0  0  0  0  0  0  0  0  0  0  0  # atno 5378 bound_to 2763
   29.8796    8.1433    1.4383 LP  0  0  0  0  0  0  0  0  0  0  0  0  # atno 5379 bound_to 2763

> <Gold.Score>
     Fitness  S(hb_ext) S(vdw_ext)  S(hb_int)    S(int)      intcor
     41.65       0.23      32.36       0.00      -3.07      -0.79

> <Gold.Goldscore.Fitness>
41.6470

> <Gold.Goldscore.Internal.Vdw>
-3.1072

> <Gold.Goldscore.Internal.Torsion>
-0.7542

> <Gold.Goldscore.External.Vdw>
32.3569

> <Gold.Goldscore.Internal.HBond>
0.0000

> <Gold.Goldscore.External.HBond>
0.2305

> <Gold.Goldscore.Internal.Correction>
-0.7872

> <Gold.Goldscore.Hbonds>
donor molecule, donor type, donor heavy atom, donor atom, acceptor molecule, acceptor atom, score
      P1  H  2763  2770       L1     9  0.12

> <Gold.Goldscore.Internal.Vdw.Weighted>
-3.1072

> <Gold.Goldscore.Internal.Torsion.Weighted>
-0.7542

> <Gold.Goldscore.External.Vdw.Weighted>
44.4907

> <Gold.Goldscore.Internal.HBond.Weighted>
0.0000

> <Gold.Goldscore.External.HBond.Weighted>
0.2305

> <Gold.Goldscore.Internal.Correction.Weighted>
-0.7872

> <Gold.Rescore>
     Score     S(PLP)   S(hbond)     S(cho)   S(metal)  DE(clash)   DE(tors)     intcor
     20.36     -19.20       1.00       0.00       0.00       0.86       0.49       ----

> <Gold.PLP.Fitness>
20.3560

> <Gold.PLP.PLP>
-19.2026

> <Gold.PLP.part.hbond>
-3.3516

> <Gold.PLP.part.metal>
0.0000

> <Gold.PLP.part.buried>
10.7871

> <Gold.PLP.part.nonpolar>
-31.3286

> <Gold.PLP.part.repulsive>
3.5061

> <Gold.PLP.ligand.clash>
0.8599

> <Gold.PLP.ligand.torsion>
0.4933

> <Gold.PLP.Chemscore.Hbond>
1.0000

> <Gold.PLP.Chemscore.CHOScore>
0.0000

> <Gold.PLP.Chemscore.Metal>
0.0000

> <Gold.PLP.Chemscore.Internal.Correction>
   9.000000E+99

#       Name:                CT1002167954
#       Creating user name   hitesit
#       Creation time:       Sun Apr 16 22:50:09 2023


#       File generated by GOLD software.
#

@<TRIPOS>MOLECULE
CT1002167954|ligand_prepared|mol2|1|dock3
    29    30     1
SMALL
NO_CHARGES


@<TRIPOS>ATOM
      1 C1          26.9874   9.4143  -3.5548 C.3            1 RES1               0.0000
      2 C2          27.0670   9.6489  -2.0325 C.ar           1 RES1               0.0000
      3 C3          26.9360   7.9022  -3.7531 C.2            1 RES1               0.0000
      4 C4          25.7396  10.1475  -4.0347 C.2            1 RES1               0.0000
      5 C5          28.1994   9.9714  -4.3371 C.3            1 RES1               0.0000
      6 C6          28.2950   9.8532  -1.4103 C.ar           1 RES1               0.0000
      7 C7          25.9231   9.6664  -1.2390 C.ar           1 RES1               0.0000
      8 N8          25.7412   7.3526  -4.1142 N.am           1 RES1               0.0000
      9 O9          27.9190   7.1983  -3.5572 O.2            1 RES1               0.0000
     10 N10         24.7058   9.3979  -4.5317 N.am           1 RES1               0.0000
     11 O11         25.6359  11.3663  -3.9716 O.2            1 RES1               0.0000
     12 C12         27.9670  10.0738  -5.8363 C.3            1 RES1               0.0000
     13 C13         28.3762  10.0702  -0.0448 C.ar           1 RES1               0.0000
     14 C14         26.0066   9.8833   0.1265 C.ar           1 RES1               0.0000
     15 C15         24.6378   8.0317  -4.5647 C.2            1 RES1               0.0000
     16 C16         27.2322  10.0858   0.7244 C.ar           1 RES1               0.0000
     17 O17         23.6510   7.4287  -4.9767 O.2            1 RES1               0.0000
     18 H18         28.4426  10.9681  -3.9486 H              1 RES1               0.0000
     19 H19         29.0646   9.3213  -4.1576 H              1 RES1               0.0000
     20 H20         29.2062   9.8419  -1.9990 H              1 RES1               0.0000
     21 H21         24.9482   9.5084  -1.6876 H              1 RES1               0.0000
     22 H22         25.6607   6.3433  -4.0425 H              1 RES1               0.0000
     23 H23         23.9134   9.9054  -4.9125 H              1 RES1               0.0000
     24 H24         28.8479  10.4700  -6.3370 H              1 RES1               0.0000
     25 H25         27.7473   9.0961  -6.2603 H              1 RES1               0.0000
     26 H26         27.1289  10.7331  -6.0526 H              1 RES1               0.0000
     27 H27         29.3433  10.2276   0.4212 H              1 RES1               0.0000
     28 H28         25.1037   9.8941   0.7280 H              1 RES1               0.0000
     29 H29         27.2961  10.2561   1.7940 H              1 RES1               0.0000
@<TRIPOS>BOND
    1    1    2 1     
    2    1    3 1     
    3    1    4 1     
    4    1    5 1     
    5    2    6 ar    
    6    2    7 ar    
    7    3    8 1     
    8    3    9 2     
    9    4   10 1     
   10    4   11 2     
   11    5   12 1     
   12    5   18 1     
   13    5   19 1     
   14    6   13 ar    
   15    6   20 1     
   16    7   14 ar    
   17    7   21 1     
   18    8   15 1     
   19    8   22 1     
   20   10   15 1     
   21   10   23 1     
   22   12   24 1     
   23   12   25 1     
   24   12   26 1     
   25   13   16 ar    
   26   13   27 1     
   27   14   16 ar    
   28   14   28 1     
   29   15   17 2     
   30   16   29 1     
@<TRIPOS>SUBSTRUCTURE
      1 RES1           1
@<TRIPOS>SET
DONOR_HYDROGENS      STATIC     ATOMS    <user>   **** ""
2 22 23
ATOM$RED        STATIC     ATOMS    COLORGROUP SYSTEM
2 22 23
@<TRIPOS>COMMENT
> <Gold.Version>
2022.3.0

> <Gold.Id.Protein>
unknown|3nx8_clean|pdb

> <Gold.Protein.RotatedTorsions>
[ 1752 1744 1743 1741 ] final   37.69 input   60.01 | X-H torsion
[ 2770 2763 2761 2758 ] final  -10.98 input   60.01 | X-H torsion
[ 5056 5047 5046 5044 ] final -103.58 input   59.99 | X-H torsion

> <Gold.Protein.ActiveResidues>
 LEU49   GLY50   THR51   GLY52   ARG56   VAL57   MET58   LEU59   VAL60   HIS68  
 TYR69   ALA70   MET71   LYS72   LEU95   VAL104  LYS105  MET118  VAL119  MET120 
 GLU121  TYR122  VAL123  PRO124  GLY125  GLY126  GLU127  GLU170  ASN171  LEU173 
 ILE174  GLN181  VAL182  THR183  ASP184  PHE327  TYR330 

> <Gold.Protein.RotatedAtoms>
   33.9943   12.2391  -10.7704 H   0  0  0  0  0  0  0  0  0  0  0  0  # atno 1752 bound_to 1744
   29.3571    8.0996    1.4089 H   0  0  0  0  0  0  0  0  0  0  0  0  # atno 2770 bound_to 2763
   22.3203    9.7701  -10.1221 H   0  0  0  0  0  0  0  0  0  0  0  0  # atno 5056 bound_to 5047
   34.8853   10.8889  -10.9472 LP  0  0  0  0  0  0  0  0  0  0  0  0  # atno 5370 bound_to 1744
   35.4796   12.3316  -11.4289 LP  0  0  0  0  0  0  0  0  0  0  0  0  # atno 5371 bound_to 1744
   28.9884    8.6130   -0.0910 LP  0  0  0  0  0  0  0  0  0  0  0  0  # atno 5378 bound_to 2763
   30.5436    8.5858    0.4063 LP  0  0  0  0  0  0  0  0  0  0  0  0  # atno 5379 bound_to 2763

> <Gold.Score>
     Fitness  S(hb_ext) S(vdw_ext)  S(hb_int)    S(int)      intcor
     41.38       1.64      29.38       0.00      -0.65      -0.79

> <Gold.Goldscore.Fitness>
41.3847

> <Gold.Goldscore.Internal.Vdw>
-0.7256

> <Gold.Goldscore.Internal.Torsion>
-0.7132

> <Gold.Goldscore.External.Vdw>
29.3808

> <Gold.Goldscore.Internal.HBond>
0.0000

> <Gold.Goldscore.External.HBond>
1.6377

> <Gold.Goldscore.Internal.Correction>
-0.7872

> <Gold.Goldscore.Hbonds>
donor molecule, donor type, donor heavy atom, donor atom, acceptor molecule, acceptor atom, score
      L1  H     8    22       P1  2555  0.82

> <Gold.Goldscore.Internal.Vdw.Weighted>
-0.7256

> <Gold.Goldscore.Internal.Torsion.Weighted>
-0.7132

> <Gold.Goldscore.External.Vdw.Weighted>
40.3985

> <Gold.Goldscore.Internal.HBond.Weighted>
0.0000

> <Gold.Goldscore.External.HBond.Weighted>
1.6377

> <Gold.Goldscore.Internal.Correction.Weighted>
-0.7872

> <Gold.Rescore>
     Score     S(PLP)   S(hbond)     S(cho)   S(metal)  DE(clash)   DE(tors)     intcor
     22.23     -19.57       1.41       0.00       0.00       0.00       0.79       ----

> <Gold.PLP.Fitness>
22.2312

> <Gold.PLP.PLP>
-19.5730

> <Gold.PLP.part.hbond>
-3.0000

> <Gold.PLP.part.metal>
0.0000

> <Gold.PLP.part.buried>
15.3229

> <Gold.PLP.part.nonpolar>
-36.2840

> <Gold.PLP.part.repulsive>
3.0422

> <Gold.PLP.ligand.clash>
0.0000

> <Gold.PLP.ligand.torsion>
0.7889

> <Gold.PLP.Chemscore.Hbond>
1.4120

> <Gold.PLP.Chemscore.CHOScore>
0.0000

> <Gold.PLP.Chemscore.Metal>
0.0000

> <Gold.Chemscore.Hbonds>
donor molecule, donor type, donor heavy atom, donor atom, acceptor molecule, acceptor atom, score
      L1  H     8    22       P1  2555  1.00
      L1  H    10    23       P1   541  0.14

> <Gold.PLP.Chemscore.Internal.Correction>
   9.000000E+99

#       Name:                CT1002167954
#       Creating user name   hitesit
#       Creation time:       Sun Apr 16 22:50:16 2023


#       File generated by GOLD software.
#

@<TRIPOS>MOLECULE
CT1002167954|ligand_prepared|mol2|1|dock10
    29    30     1
SMALL
NO_CHARGES


@<TRIPOS>ATOM
      1 C1          26.6915   9.5072  -3.5191 C.3            1 RES1               0.0000
      2 C2          26.9480   9.8291  -2.0328 C.ar           1 RES1               0.0000
      3 C3          26.6507  10.8476  -4.2470 C.2            1 RES1               0.0000
      4 C4          27.8299   8.5940  -3.9605 C.2            1 RES1               0.0000
      5 C5          25.3582   8.7673  -3.7771 C.3            1 RES1               0.0000
      6 C6          28.2365   9.7799  -1.5092 C.ar           1 RES1               0.0000
      7 C7          25.9086  10.1789  -1.1750 C.ar           1 RES1               0.0000
      8 N8          27.7219  11.1776  -5.0239 N.am           1 RES1               0.0000
      9 O9          25.7106  11.6207  -4.1100 O.2            1 RES1               0.0000
     10 N10         28.7085   9.0703  -4.8980 N.am           1 RES1               0.0000
     11 O11         27.9838   7.4725  -3.4926 O.2            1 RES1               0.0000
     12 C12         25.1203   7.5895  -2.8453 C.3            1 RES1               0.0000
     13 C13         28.4776  10.0727  -0.1771 C.ar           1 RES1               0.0000
     14 C14         26.1519  10.4710   0.1569 C.ar           1 RES1               0.0000
     15 C15         28.7240  10.3321  -5.4271 C.2            1 RES1               0.0000
     16 C16         27.4357  10.4188   0.6567 C.ar           1 RES1               0.0000
     17 O17         29.5796  10.7037  -6.2253 O.2            1 RES1               0.0000
     18 H18         24.5316   9.4796  -3.6641 H              1 RES1               0.0000
     19 H19         25.3498   8.4055  -4.8127 H              1 RES1               0.0000
     20 H20         29.0687   9.5071  -2.1496 H              1 RES1               0.0000
     21 H21         24.8903  10.2254  -1.5460 H              1 RES1               0.0000
     22 H22         27.7835  12.1422  -5.3337 H              1 RES1               0.0000
     23 H23         29.4164   8.4244  -5.2326 H              1 RES1               0.0000
     24 H24         24.1717   7.1061  -3.0690 H              1 RES1               0.0000
     25 H25         25.9108   6.8492  -2.9497 H              1 RES1               0.0000
     26 H26         25.0974   7.9169  -1.8079 H              1 RES1               0.0000
     27 H27         29.4896  10.0288   0.2116 H              1 RES1               0.0000
     28 H28         25.3287  10.7424   0.8096 H              1 RES1               0.0000
     29 H29         27.6249  10.6484   1.7001 H              1 RES1               0.0000
@<TRIPOS>BOND
    1    1    2 1     
    2    1    3 1     
    3    1    4 1     
    4    1    5 1     
    5    2    6 ar    
    6    2    7 ar    
    7    3    8 1     
    8    3    9 2     
    9    4   10 1     
   10    4   11 2     
   11    5   12 1     
   12    5   18 1     
   13    5   19 1     
   14    6   13 ar    
   15    6   20 1     
   16    7   14 ar    
   17    7   21 1     
   18    8   15 1     
   19    8   22 1     
   20   10   15 1     
   21   10   23 1     
   22   12   24 1     
   23   12   25 1     
   24   12   26 1     
   25   13   16 ar    
   26   13   27 1     
   27   14   16 ar    
   28   14   28 1     
   29   15   17 2     
   30   16   29 1     
@<TRIPOS>SUBSTRUCTURE
      1 RES1           1
@<TRIPOS>SET
DONOR_HYDROGENS      STATIC     ATOMS    <user>   **** ""
2 22 23
ATOM$RED        STATIC     ATOMS    COLORGROUP SYSTEM
2 22 23
@<TRIPOS>COMMENT
> <Gold.Version>
2022.3.0

> <Gold.Id.Protein>
unknown|3nx8_clean|pdb

> <Gold.Protein.RotatedTorsions>
[ 1752 1744 1743 1741 ] final  151.92 input   60.01 | X-H torsion
[ 2770 2763 2761 2758 ] final   64.64 input   60.01 | X-H torsion
[ 5056 5047 5046 5044 ] final  -90.07 input   59.99 | X-H torsion

> <Gold.Protein.ActiveResidues>
 LEU49   GLY50   THR51   GLY52   ARG56   VAL57   MET58   LEU59   VAL60   HIS68  
 TYR69   ALA70   MET71   LYS72   LEU95   VAL104  LYS105  MET118  VAL119  MET120 
 GLU121  TYR122  VAL123  PRO124  GLY125  GLY126  GLU127  GLU170  ASN171  LEU173 
 ILE174  GLN181  VAL182  THR183  ASP184  PHE327  TYR330 

> <Gold.Protein.RotatedAtoms>
   35.4207   12.4039  -11.4117 H   0  0  0  0  0  0  0  0  0  0  0  0  # atno 1752 bound_to 1744
   30.4258    8.3333    1.0591 H   0  0  0  0  0  0  0  0  0  0  0  0  # atno 2770 bound_to 2763
   22.5099    9.7639  -10.2340 H   0  0  0  0  0  0  0  0  0  0  0  0  # atno 5056 bound_to 5047
   33.9573   12.1558  -10.7445 LP  0  0  0  0  0  0  0  0  0  0  0  0  # atno 5370 bound_to 1744
   34.9714   10.8988  -10.9859 LP  0  0  0  0  0  0  0  0  0  0  0  0  # atno 5371 bound_to 1744
   28.8053    8.2057    0.9752 LP  0  0  0  0  0  0  0  0  0  0  0  0  # atno 5378 bound_to 2763
   29.6511    8.7579   -0.3079 LP  0  0  0  0  0  0  0  0  0  0  0  0  # atno 5379 bound_to 2763

> <Gold.Score>
     Fitness  S(hb_ext) S(vdw_ext)  S(hb_int)    S(int)      intcor
     39.40       0.04      31.16       0.00      -3.48      -0.76

> <Gold.Goldscore.Fitness>
39.4011

> <Gold.Goldscore.Internal.Vdw>
-3.6321

> <Gold.Goldscore.Internal.Torsion>
-0.6077

> <Gold.Goldscore.External.Vdw>
31.1584

> <Gold.Goldscore.Internal.HBond>
0.0000

> <Gold.Goldscore.External.HBond>
0.0397

> <Gold.Goldscore.Internal.Correction>
-0.7585

> <Gold.Goldscore.Hbonds>
donor molecule, donor type, donor heavy atom, donor atom, acceptor molecule, acceptor atom, score
      L1  H     8    22       P1   624  0.02

> <Gold.Goldscore.Internal.Vdw.Weighted>
-3.6321

> <Gold.Goldscore.Internal.Torsion.Weighted>
-0.6077

> <Gold.Goldscore.External.Vdw.Weighted>
42.8428

> <Gold.Goldscore.Internal.HBond.Weighted>
0.0000

> <Gold.Goldscore.External.HBond.Weighted>
0.0397

> <Gold.Goldscore.Internal.Correction.Weighted>
-0.7585

> <Gold.Rescore>
     Score     S(PLP)   S(hbond)     S(cho)   S(metal)  DE(clash)   DE(tors)     intcor
     17.51     -19.63       0.00       0.00       0.00       0.01       1.05       ----

> <Gold.PLP.Fitness>
17.5116

> <Gold.PLP.PLP>
-19.6277

> <Gold.PLP.part.hbond>
-1.6693

> <Gold.PLP.part.metal>
0.0000

> <Gold.PLP.part.buried>
15.0790

> <Gold.PLP.part.nonpolar>
-37.9211

> <Gold.PLP.part.repulsive>
3.9741

> <Gold.PLP.ligand.clash>
0.0074

> <Gold.PLP.ligand.torsion>
1.0544

> <Gold.PLP.Chemscore.Hbond>
0.0000

> <Gold.PLP.Chemscore.CHOScore>
0.0000

> <Gold.PLP.Chemscore.Metal>
0.0000

> <Gold.PLP.Chemscore.Internal.Correction>
   9.000000E+99

#       Name:                CT1002167954
#       Creating user name   hitesit
#       Creation time:       Sun Apr 16 22:50:14 2023


#       File generated by GOLD software.
#

@<TRIPOS>MOLECULE
CT1002167954|ligand_prepared|mol2|1|dock8
    29    30     1
SMALL
NO_CHARGES


@<TRIPOS>ATOM
      1 C1          26.9175   9.2767  -3.0737 C.3            1 RES1               0.0000
      2 C2          28.2617   9.6823  -3.7120 C.ar           1 RES1               0.0000
      3 C3          25.8629  10.2045  -3.6697 C.2            1 RES1               0.0000
      4 C4          26.7125   7.8039  -3.4108 C.2            1 RES1               0.0000
      5 C5          26.8873   9.4232  -1.5345 C.3            1 RES1               0.0000
      6 C6          28.3352  10.0070  -5.0633 C.ar           1 RES1               0.0000
      7 C7          29.4341   9.7390  -2.9631 C.ar           1 RES1               0.0000
      8 N8          25.0077   9.6786  -4.5927 N.am           1 RES1               0.0000
      9 O9          25.8079  11.3893  -3.3638 O.2            1 RES1               0.0000
     10 N10         25.6672   7.4729  -4.2326 N.am           1 RES1               0.0000
     11 O11         27.4566   6.9289  -2.9855 O.2            1 RES1               0.0000
     12 C12         25.4945   9.3096  -0.9350 C.3            1 RES1               0.0000
     13 C13         29.5365  10.3777  -5.6443 C.ar           1 RES1               0.0000
     14 C14         30.6346  10.1098  -3.5462 C.ar           1 RES1               0.0000
     15 C15         24.8240   8.3465  -4.8636 C.2            1 RES1               0.0000
     16 C16         30.6868  10.4298  -4.8862 C.ar           1 RES1               0.0000
     17 O17         23.9412   7.9750  -5.6316 O.2            1 RES1               0.0000
     18 H18         27.5259   8.6480  -1.0934 H              1 RES1               0.0000
     19 H19         27.3094  10.3990  -1.2643 H              1 RES1               0.0000
     20 H20         27.4408   9.9693  -5.6763 H              1 RES1               0.0000
     21 H21         29.4170   9.4905  -1.9074 H              1 RES1               0.0000
     22 H22         24.4536  10.3367  -5.1314 H              1 RES1               0.0000
     23 H23         25.5022   6.4835  -4.3884 H              1 RES1               0.0000
     24 H24         25.5300   9.4196   0.1468 H              1 RES1               0.0000
     25 H25         24.8392  10.0817  -1.3328 H              1 RES1               0.0000
     26 H26         25.0544   8.3410  -1.1629 H              1 RES1               0.0000
     27 H27         29.5726  10.6273  -6.6996 H              1 RES1               0.0000
     28 H28         31.5375  10.1488  -2.9459 H              1 RES1               0.0000
     29 H29         31.6278  10.7206  -5.3415 H              1 RES1               0.0000
@<TRIPOS>BOND
    1    1    2 1     
    2    1    3 1     
    3    1    4 1     
    4    1    5 1     
    5    2    6 ar    
    6    2    7 ar    
    7    3    8 1     
    8    3    9 2     
    9    4   10 1     
   10    4   11 2     
   11    5   12 1     
   12    5   18 1     
   13    5   19 1     
   14    6   13 ar    
   15    6   20 1     
   16    7   14 ar    
   17    7   21 1     
   18    8   15 1     
   19    8   22 1     
   20   10   15 1     
   21   10   23 1     
   22   12   24 1     
   23   12   25 1     
   24   12   26 1     
   25   13   16 ar    
   26   13   27 1     
   27   14   16 ar    
   28   14   28 1     
   29   15   17 2     
   30   16   29 1     
@<TRIPOS>SUBSTRUCTURE
      1 RES1           1
@<TRIPOS>SET
DONOR_HYDROGENS      STATIC     ATOMS    <user>   **** ""
2 22 23
ATOM$RED        STATIC     ATOMS    COLORGROUP SYSTEM
2 22 23
@<TRIPOS>COMMENT
> <Gold.Version>
2022.3.0

> <Gold.Id.Protein>
unknown|3nx8_clean|pdb

> <Gold.Protein.RotatedTorsions>
[ 1752 1744 1743 1741 ] final  112.82 input   60.01 | X-H torsion
[ 2770 2763 2761 2758 ] final  108.07 input   60.01 | X-H torsion
[ 5056 5047 5046 5044 ] final   68.01 input   59.99 | X-H torsion

> <Gold.Protein.ActiveResidues>
 LEU49   GLY50   THR51   GLY52   ARG56   VAL57   MET58   LEU59   VAL60   HIS68  
 TYR69   ALA70   MET71   LYS72   LEU95   VAL104  LYS105  MET118  VAL119  MET120 
 GLU121  TYR122  VAL123  PRO124  GLY125  GLY126  GLU127  GLU170  ASN171  LEU173 
 ILE174  GLN181  VAL182  THR183  ASP184  PHE327  TYR330 

> <Gold.Protein.RotatedAtoms>
   34.9117   12.7279  -11.2426 H   0  0  0  0  0  0  0  0  0  0  0  0  # atno 1752 bound_to 1744
   30.5412    8.5777    0.4208 H   0  0  0  0  0  0  0  0  0  0  0  0  # atno 2770 bound_to 2763
   23.5482   10.1271   -8.7610 H   0  0  0  0  0  0  0  0  0  0  0  0  # atno 5056 bound_to 5047
   33.9777   11.5314  -10.6558 LP  0  0  0  0  0  0  0  0  0  0  0  0  # atno 5370 bound_to 1744
   35.4636   11.1970  -11.2448 LP  0  0  0  0  0  0  0  0  0  0  0  0  # atno 5371 bound_to 1744
   29.3404    8.1000    1.4103 LP  0  0  0  0  0  0  0  0  0  0  0  0  # atno 5378 bound_to 2763
   28.9999    8.6176   -0.1006 LP  0  0  0  0  0  0  0  0  0  0  0  0  # atno 5379 bound_to 2763

> <Gold.Score>
     Fitness  S(hb_ext) S(vdw_ext)  S(hb_int)    S(int)      intcor
     36.10       1.79      25.14       0.00      -0.25      -0.76

> <Gold.Goldscore.Fitness>
36.1030

> <Gold.Goldscore.Internal.Vdw>
-0.4051

> <Gold.Goldscore.Internal.Torsion>
-0.6036

> <Gold.Goldscore.External.Vdw>
25.1362

> <Gold.Goldscore.Internal.HBond>
0.0000

> <Gold.Goldscore.External.HBond>
1.7910

> <Gold.Goldscore.Internal.Correction>
-0.7585

> <Gold.Goldscore.Hbonds>
donor molecule, donor type, donor heavy atom, donor atom, acceptor molecule, acceptor atom, score
      L1  H    10    23       P1  2555  0.90

> <Gold.Goldscore.Internal.Vdw.Weighted>
-0.4051

> <Gold.Goldscore.Internal.Torsion.Weighted>
-0.6036

> <Gold.Goldscore.External.Vdw.Weighted>
34.5623

> <Gold.Goldscore.Internal.HBond.Weighted>
0.0000

> <Gold.Goldscore.External.HBond.Weighted>
1.7910

> <Gold.Goldscore.Internal.Correction.Weighted>
-0.7585

> <Gold.Rescore>
     Score     S(PLP)   S(hbond)     S(cho)   S(metal)  DE(clash)   DE(tors)     intcor
     29.14     -27.56       1.19       0.00       0.00       0.00       1.00       ----

> <Gold.PLP.Fitness>
29.1423

> <Gold.PLP.PLP>
-27.5586

> <Gold.PLP.part.hbond>
-3.2959

> <Gold.PLP.part.metal>
0.0000

> <Gold.PLP.part.buried>
10.5830

> <Gold.PLP.part.nonpolar>
-37.4530

> <Gold.PLP.part.repulsive>
2.1503

> <Gold.PLP.ligand.clash>
0.0000

> <Gold.PLP.ligand.torsion>
0.9998

> <Gold.PLP.Chemscore.Hbond>
1.1944

> <Gold.PLP.Chemscore.CHOScore>
0.0000

> <Gold.PLP.Chemscore.Metal>
0.0000

> <Gold.Chemscore.Hbonds>
donor molecule, donor type, donor heavy atom, donor atom, acceptor molecule, acceptor atom, score
      L1  H    10    23       P1  2555  1.00

> <Gold.PLP.Chemscore.Internal.Correction>
   9.000000E+99

#       Name:                CT1002167954
#       Creating user name   hitesit
#       Creation time:       Sun Apr 16 22:50:15 2023


#       File generated by GOLD software.
#

@<TRIPOS>MOLECULE
CT1002167954|ligand_prepared|mol2|1|dock9
    29    30     1
SMALL
NO_CHARGES


@<TRIPOS>ATOM
      1 C1          28.1406   9.9783  -4.1560 C.3            1 RES1               0.0000
      2 C2          29.6551  10.0391  -3.8703 C.ar           1 RES1               0.0000
      3 C3          27.8877  10.9212  -5.3287 C.2            1 RES1               0.0000
      4 C4          27.8207   8.5173  -4.4522 C.2            1 RES1               0.0000
      5 C5          27.2617  10.4281  -2.9657 C.3            1 RES1               0.0000
      6 C6          30.5581  10.3195  -4.8915 C.ar           1 RES1               0.0000
      7 C7          30.1630   9.8201  -2.5926 C.ar           1 RES1               0.0000
      8 N8          27.6287  10.3615  -6.5451 N.am           1 RES1               0.0000
      9 O9          27.9536  12.1372  -5.1967 O.2            1 RES1               0.0000
     10 N10         27.4020   8.1953  -5.7167 N.am           1 RES1               0.0000
     11 O11         27.9433   7.6396  -3.6068 O.2            1 RES1               0.0000
     12 C12         25.7849  10.5512  -3.3062 C.3            1 RES1               0.0000
     13 C13         31.9194  10.3816  -4.6437 C.ar           1 RES1               0.0000
     14 C14         31.5247   9.8825  -2.3470 C.ar           1 RES1               0.0000
     15 C15         27.3210   9.0464  -6.7850 C.2            1 RES1               0.0000
     16 C16         32.4035  10.1636  -3.3714 C.ar           1 RES1               0.0000
     17 O17         26.9880   8.6709  -7.9054 O.2            1 RES1               0.0000
     18 H18         27.3767   9.7049  -2.1489 H              1 RES1               0.0000
     19 H19         27.6235  11.3995  -2.6069 H              1 RES1               0.0000
     20 H20         30.1958  10.4914  -5.8995 H              1 RES1               0.0000
     21 H21         29.4904   9.5963  -1.7716 H              1 RES1               0.0000
     22 H22         27.6674  10.9776  -7.3508 H              1 RES1               0.0000
     23 H23         27.1250   7.2319  -5.8763 H              1 RES1               0.0000
     24 H24         25.2138  10.8695  -2.4365 H              1 RES1               0.0000
     25 H25         25.6312  11.2812  -4.0982 H              1 RES1               0.0000
     26 H26         25.3858   9.5967  -3.6429 H              1 RES1               0.0000
     27 H27         32.6070  10.6018  -5.4536 H              1 RES1               0.0000
     28 H28         31.9014   9.7097  -1.3443 H              1 RES1               0.0000
     29 H29         33.4699  10.2127  -3.1775 H              1 RES1               0.0000
@<TRIPOS>BOND
    1    1    2 1     
    2    1    3 1     
    3    1    4 1     
    4    1    5 1     
    5    2    6 ar    
    6    2    7 ar    
    7    3    8 1     
    8    3    9 2     
    9    4   10 1     
   10    4   11 2     
   11    5   12 1     
   12    5   18 1     
   13    5   19 1     
   14    6   13 ar    
   15    6   20 1     
   16    7   14 ar    
   17    7   21 1     
   18    8   15 1     
   19    8   22 1     
   20   10   15 1     
   21   10   23 1     
   22   12   24 1     
   23   12   25 1     
   24   12   26 1     
   25   13   16 ar    
   26   13   27 1     
   27   14   16 ar    
   28   14   28 1     
   29   15   17 2     
   30   16   29 1     
@<TRIPOS>SUBSTRUCTURE
      1 RES1           1
@<TRIPOS>SET
DONOR_HYDROGENS      STATIC     ATOMS    <user>   **** ""
2 22 23
ATOM$RED        STATIC     ATOMS    COLORGROUP SYSTEM
2 22 23
@<TRIPOS>COMMENT
> <Gold.Version>
2022.3.0

> <Gold.Id.Protein>
unknown|3nx8_clean|pdb

> <Gold.Protein.RotatedTorsions>
[ 1752 1744 1743 1741 ] final   40.89 input   60.01 | X-H torsion
[ 2770 2763 2761 2758 ] final  106.80 input   60.01 | X-H torsion
[ 5056 5047 5046 5044 ] final   71.30 input   59.99 | X-H torsion

> <Gold.Protein.ActiveResidues>
 LEU49   GLY50   THR51   GLY52   ARG56   VAL57   MET58   LEU59   VAL60   HIS68  
 TYR69   ALA70   MET71   LYS72   LEU95   VAL104  LYS105  MET118  VAL119  MET120 
 GLU121  TYR122  VAL123  PRO124  GLY125  GLY126  GLU127  GLU170  ASN171  LEU173 
 ILE174  GLN181  VAL182  THR183  ASP184  PHE327  TYR330 

> <Gold.Protein.RotatedAtoms>
   34.0146   12.2847  -10.7863 H   0  0  0  0  0  0  0  0  0  0  0  0  # atno 1752 bound_to 1744
   30.5453    8.5710    0.4401 H   0  0  0  0  0  0  0  0  0  0  0  0  # atno 2770 bound_to 2763
   23.5096   10.1311   -8.7239 H   0  0  0  0  0  0  0  0  0  0  0  0  # atno 5056 bound_to 5047
   34.8370   10.8875  -10.9261 LP  0  0  0  0  0  0  0  0  0  0  0  0  # atno 5370 bound_to 1744
   35.5074   12.2872  -11.4340 LP  0  0  0  0  0  0  0  0  0  0  0  0  # atno 5371 bound_to 1744
   29.3206    8.1006    1.4034 LP  0  0  0  0  0  0  0  0  0  0  0  0  # atno 5378 bound_to 2763
   29.0155    8.6237   -0.1131 LP  0  0  0  0  0  0  0  0  0  0  0  0  # atno 5379 bound_to 2763

> <Gold.Score>
     Fitness  S(hb_ext) S(vdw_ext)  S(hb_int)    S(int)      intcor
     35.80       0.21      26.47       0.00      -0.80      -0.76

> <Gold.Goldscore.Fitness>
35.8009

> <Gold.Goldscore.Internal.Vdw>
-1.0921

> <Gold.Goldscore.Internal.Torsion>
-0.4701

> <Gold.Goldscore.External.Vdw>
26.4676

> <Gold.Goldscore.Internal.HBond>
0.0000

> <Gold.Goldscore.External.HBond>
0.2116

> <Gold.Goldscore.Internal.Correction>
-0.7585

> <Gold.Goldscore.Hbonds>
donor molecule, donor type, donor heavy atom, donor atom, acceptor molecule, acceptor atom, score
      L1  H     8    22       P1   515  0.11

> <Gold.Goldscore.Internal.Vdw.Weighted>
-1.0921

> <Gold.Goldscore.Internal.Torsion.Weighted>
-0.4701

> <Gold.Goldscore.External.Vdw.Weighted>
36.3929

> <Gold.Goldscore.Internal.HBond.Weighted>
0.0000

> <Gold.Goldscore.External.HBond.Weighted>
0.2116

> <Gold.Goldscore.Internal.Correction.Weighted>
-0.7585

> <Gold.Rescore>
     Score     S(PLP)   S(hbond)     S(cho)   S(metal)  DE(clash)   DE(tors)     intcor
     11.33     -12.31       0.30       0.00       0.00       0.00       0.95       ----

> <Gold.PLP.Fitness>
11.3264

> <Gold.PLP.PLP>
-12.3107

> <Gold.PLP.part.hbond>
-2.3722

> <Gold.PLP.part.metal>
0.0000

> <Gold.PLP.part.buried>
23.1311

> <Gold.PLP.part.nonpolar>
-41.4895

> <Gold.PLP.part.repulsive>
10.1825

> <Gold.PLP.ligand.clash>
0.0000

> <Gold.PLP.ligand.torsion>
0.9482

> <Gold.PLP.Chemscore.Hbond>
0.3040

> <Gold.PLP.Chemscore.CHOScore>
0.0000

> <Gold.PLP.Chemscore.Metal>
0.0000

> <Gold.Chemscore.Hbonds>
donor molecule, donor type, donor heavy atom, donor atom, acceptor molecule, acceptor atom, score
      L1  H     8    22       P1   515  0.33
      L1  H    10    23       P1  1806  0.09

> <Gold.PLP.Chemscore.Internal.Correction>
   9.000000E+99

#       Name:                CT1002167954
#       Creating user name   hitesit
#       Creation time:       Sun Apr 16 22:50:13 2023


#       File generated by GOLD software.
#

@<TRIPOS>MOLECULE
CT1002167954|ligand_prepared|mol2|1|dock7
    29    30     1
SMALL
NO_CHARGES


@<TRIPOS>ATOM
      1 C1          27.1624   8.7678  -3.8982 C.3            1 RES1               0.0000
      2 C2          28.5213   9.4968  -3.8741 C.ar           1 RES1               0.0000
      3 C3          27.4761   7.2751  -3.8563 C.2            1 RES1               0.0000
      4 C4          26.3850   9.2743  -2.6883 C.2            1 RES1               0.0000
      5 C5          26.3202   9.0574  -5.1625 C.3            1 RES1               0.0000
      6 C6          29.1165   9.8467  -2.6658 C.ar           1 RES1               0.0000
      7 C7          29.1919   9.8231  -5.0499 C.ar           1 RES1               0.0000
      8 N8          27.2414   6.6127  -2.6875 N.am           1 RES1               0.0000
      9 O9          27.9592   6.6963  -4.8216 O.2            1 RES1               0.0000
     10 N10         26.0996   8.3815  -1.6887 N.am           1 RES1               0.0000
     11 O11         26.0317  10.4424  -2.5838 O.2            1 RES1               0.0000
     12 C12         24.9510   8.3961  -5.1520 C.3            1 RES1               0.0000
     13 C13         30.3391  10.4966  -2.6338 C.ar           1 RES1               0.0000
     14 C14         30.4145  10.4732  -5.0157 C.ar           1 RES1               0.0000
     15 C15         26.5191   7.0809  -1.6194 C.2            1 RES1               0.0000
     16 C16         30.9891  10.8099  -3.8085 C.ar           1 RES1               0.0000
     17 O17         26.2679   6.3555  -0.6614 O.2            1 RES1               0.0000
     18 H18         26.1878  10.1422  -5.2576 H              1 RES1               0.0000
     19 H19         26.8739   8.7087  -6.0430 H              1 RES1               0.0000
     20 H20         28.6187   9.6105  -1.7312 H              1 RES1               0.0000
     21 H21         28.7583   9.5690  -6.0111 H              1 RES1               0.0000
     22 H22         27.6397   5.6833  -2.5994 H              1 RES1               0.0000
     23 H23         25.5205   8.7174  -0.9257 H              1 RES1               0.0000
     24 H24         24.4020   8.6315  -6.0613 H              1 RES1               0.0000
     25 H25         25.0456   7.3144  -5.0836 H              1 RES1               0.0000
     26 H26         24.3635   8.7393  -4.3029 H              1 RES1               0.0000
     27 H27         30.7865  10.7605  -1.6812 H              1 RES1               0.0000
     28 H28         30.9222  10.7184  -5.9427 H              1 RES1               0.0000
     29 H29         31.9471  11.3186  -3.7832 H              1 RES1               0.0000
@<TRIPOS>BOND
    1    1    2 1     
    2    1    3 1     
    3    1    4 1     
    4    1    5 1     
    5    2    6 ar    
    6    2    7 ar    
    7    3    8 1     
    8    3    9 2     
    9    4   10 1     
   10    4   11 2     
   11    5   12 1     
   12    5   18 1     
   13    5   19 1     
   14    6   13 ar    
   15    6   20 1     
   16    7   14 ar    
   17    7   21 1     
   18    8   15 1     
   19    8   22 1     
   20   10   15 1     
   21   10   23 1     
   22   12   24 1     
   23   12   25 1     
   24   12   26 1     
   25   13   16 ar    
   26   13   27 1     
   27   14   16 ar    
   28   14   28 1     
   29   15   17 2     
   30   16   29 1     
@<TRIPOS>SUBSTRUCTURE
      1 RES1           1
@<TRIPOS>SET
DONOR_HYDROGENS      STATIC     ATOMS    <user>   **** ""
2 22 23
ATOM$RED        STATIC     ATOMS    COLORGROUP SYSTEM
2 22 23
@<TRIPOS>COMMENT
> <Gold.Version>
2022.3.0

> <Gold.Id.Protein>
unknown|3nx8_clean|pdb

> <Gold.Protein.RotatedTorsions>
[ 1752 1744 1743 1741 ] final  -39.32 input   60.01 | X-H torsion
[ 2770 2763 2761 2758 ] final -109.27 input   60.01 | X-H torsion
[ 5056 5047 5046 5044 ] final   91.90 input   59.99 | X-H torsion

> <Gold.Protein.ActiveResidues>
 LEU49   GLY50   THR51   GLY52   ARG56   VAL57   MET58   LEU59   VAL60   HIS68  
 TYR69   ALA70   MET71   LYS72   LEU95   VAL104  LYS105  MET118  VAL119  MET120 
 GLU121  TYR122  VAL123  PRO124  GLY125  GLY126  GLU127  GLU170  ASN171  LEU173 
 ILE174  GLN181  VAL182  THR183  ASP184  PHE327  TYR330 

> <Gold.Protein.RotatedAtoms>
   34.2754   11.1090  -10.7153 H   0  0  0  0  0  0  0  0  0  0  0  0  # atno 1752 bound_to 1744
   28.7858    8.4937    0.1736 H   0  0  0  0  0  0  0  0  0  0  0  0  # atno 2770 bound_to 2763
   23.2261   10.1424   -8.5461 H   0  0  0  0  0  0  0  0  0  0  0  0  # atno 5056 bound_to 5047
   35.6462   11.6618  -11.3962 LP  0  0  0  0  0  0  0  0  0  0  0  0  # atno 5370 bound_to 1744
   34.4356   12.6965  -11.0353 LP  0  0  0  0  0  0  0  0  0  0  0  0  # atno 5371 bound_to 1744
   30.4004    8.6846    0.0967 LP  0  0  0  0  0  0  0  0  0  0  0  0  # atno 5378 bound_to 2763
   29.7067    8.1175    1.4619 LP  0  0  0  0  0  0  0  0  0  0  0  0  # atno 5379 bound_to 2763

> <Gold.Score>
     Fitness  S(hb_ext) S(vdw_ext)  S(hb_int)    S(int)      intcor
     34.80       0.38      26.00       0.00      -1.33      -0.76

> <Gold.Goldscore.Fitness>
34.7992

> <Gold.Goldscore.Internal.Vdw>
-1.7089

> <Gold.Goldscore.Internal.Torsion>
-0.3817

> <Gold.Goldscore.External.Vdw>
26.0022

> <Gold.Goldscore.Internal.HBond>
0.0000

> <Gold.Goldscore.External.HBond>
0.3783

> <Gold.Goldscore.Internal.Correction>
-0.7585

> <Gold.Goldscore.Hbonds>
donor molecule, donor type, donor heavy atom, donor atom, acceptor molecule, acceptor atom, score
      L1  H    10    23       P1  2777  0.06

> <Gold.Goldscore.Internal.Vdw.Weighted>
-1.7089

> <Gold.Goldscore.Internal.Torsion.Weighted>
-0.3817

> <Gold.Goldscore.External.Vdw.Weighted>
35.7530

> <Gold.Goldscore.Internal.HBond.Weighted>
0.0000

> <Gold.Goldscore.External.HBond.Weighted>
0.3783

> <Gold.Goldscore.Internal.Correction.Weighted>
-0.7585

> <Gold.Rescore>
     Score     S(PLP)   S(hbond)     S(cho)   S(metal)  DE(clash)   DE(tors)     intcor
     15.68     -17.32       0.22       0.00       0.00       0.00       1.15       ----

> <Gold.PLP.Fitness>
15.6758

> <Gold.PLP.PLP>
-17.3209

> <Gold.PLP.part.hbond>
-1.0000

> <Gold.PLP.part.metal>
0.0000

> <Gold.PLP.part.buried>
12.6711

> <Gold.PLP.part.nonpolar>
-35.8548

> <Gold.PLP.part.repulsive>
6.2588

> <Gold.PLP.ligand.clash>
0.0000

> <Gold.PLP.ligand.torsion>
1.1455

> <Gold.PLP.Chemscore.Hbond>
0.2153

> <Gold.PLP.Chemscore.CHOScore>
0.0000

> <Gold.PLP.Chemscore.Metal>
0.0000

> <Gold.PLP.Chemscore.Internal.Correction>
   9.000000E+99

#       Name:                CT1002167954
#       Creating user name   hitesit
#       Creation time:       Sun Apr 16 22:50:11 2023


#       File generated by GOLD software.
#

@<TRIPOS>MOLECULE
CT1002167954|ligand_prepared|mol2|1|dock5
    29    30     1
SMALL
NO_CHARGES


@<TRIPOS>ATOM
      1 C1          26.5258   9.0549  -3.2938 C.3            1 RES1               0.0000
      2 C2          27.7198   9.5466  -4.1372 C.ar           1 RES1               0.0000
      3 C3          25.2988   9.7975  -3.8144 C.2            1 RES1               0.0000
      4 C4          26.4644   7.5431  -3.4821 C.2            1 RES1               0.0000
      5 C5          26.6689   9.3424  -1.7810 C.3            1 RES1               0.0000
      6 C6          29.0133   9.5066  -3.6253 C.ar           1 RES1               0.0000
      7 C7          27.5442  10.0396  -5.4275 C.ar           1 RES1               0.0000
      8 N8          24.4073   9.0937  -4.5693 N.am           1 RES1               0.0000
      9 O9          25.1359  10.9923  -3.5990 O.2            1 RES1               0.0000
     10 N10         25.3742   7.0202  -4.1270 N.am           1 RES1               0.0000
     11 O11         27.3581   6.8016  -3.0926 O.2            1 RES1               0.0000
     12 C12         25.3509   9.3102  -1.0235 C.3            1 RES1               0.0000
     13 C13         30.0925   9.9409  -4.3770 C.ar           1 RES1               0.0000
     14 C14         28.6248  10.4736  -6.1774 C.ar           1 RES1               0.0000
     15 C15         24.3577   7.7297  -4.7063 C.2            1 RES1               0.0000
     16 C16         29.8991  10.4242  -5.6536 C.ar           1 RES1               0.0000
     17 O17         23.4392   7.1902  -5.3166 O.2            1 RES1               0.0000
     18 H18         27.3463   8.5992  -1.3429 H              1 RES1               0.0000
     19 H19         27.1266  10.3309  -1.6513 H              1 RES1               0.0000
     20 H20         29.1846   9.1318  -2.6217 H              1 RES1               0.0000
     21 H21         26.5505  10.0887  -5.8597 H              1 RES1               0.0000
     22 H22         23.7135   9.6312  -5.0791 H              1 RES1               0.0000
     23 H23         25.3149   6.0083  -4.1801 H              1 RES1               0.0000
     24 H24         25.5079   9.5182   0.0328 H              1 RES1               0.0000
     25 H25         24.6616  10.0546  -1.4166 H              1 RES1               0.0000
     26 H26         24.8800   8.3331  -1.1101 H              1 RES1               0.0000
     27 H27         31.0932   9.9012  -3.9596 H              1 RES1               0.0000
     28 H28         28.4678  10.8538  -7.1814 H              1 RES1               0.0000
     29 H29         30.7447  10.7639  -6.2424 H              1 RES1               0.0000
@<TRIPOS>BOND
    1    1    2 1     
    2    1    3 1     
    3    1    4 1     
    4    1    5 1     
    5    2    6 ar    
    6    2    7 ar    
    7    3    8 1     
    8    3    9 2     
    9    4   10 1     
   10    4   11 2     
   11    5   12 1     
   12    5   18 1     
   13    5   19 1     
   14    6   13 ar    
   15    6   20 1     
   16    7   14 ar    
   17    7   21 1     
   18    8   15 1     
   19    8   22 1     
   20   10   15 1     
   21   10   23 1     
   22   12   24 1     
   23   12   25 1     
   24   12   26 1     
   25   13   16 ar    
   26   13   27 1     
   27   14   16 ar    
   28   14   28 1     
   29   15   17 2     
   30   16   29 1     
@<TRIPOS>SUBSTRUCTURE
      1 RES1           1
@<TRIPOS>SET
DONOR_HYDROGENS      STATIC     ATOMS    <user>   **** ""
2 22 23
ATOM$RED        STATIC     ATOMS    COLORGROUP SYSTEM
2 22 23
@<TRIPOS>COMMENT
> <Gold.Version>
2022.3.0

> <Gold.Id.Protein>
unknown|3nx8_clean|pdb

> <Gold.Protein.RotatedTorsions>
[ 1752 1744 1743 1741 ] final  131.97 input   60.01 | X-H torsion
[ 2770 2763 2761 2758 ] final   -8.02 input   60.01 | X-H torsion
[ 5056 5047 5046 5044 ] final   98.17 input   59.99 | X-H torsion

> <Gold.Protein.ActiveResidues>
 LEU49   GLY50   THR51   GLY52   ARG56   VAL57   MET58   LEU59   VAL60   HIS68  
 TYR69   ALA70   MET71   LYS72   LEU95   VAL104  LYS105  MET118  VAL119  MET120 
 GLU121  TYR122  VAL123  PRO124  GLY125  GLY126  GLU127  GLU170  ASN171  LEU173 
 ILE174  GLN181  VAL182  THR183  ASP184  PHE327  TYR330 

> <Gold.Protein.RotatedAtoms>
   35.1842   12.6148  -11.3426 H   0  0  0  0  0  0  0  0  0  0  0  0  # atno 1752 bound_to 1744
   29.4036    8.0992    1.4225 H   0  0  0  0  0  0  0  0  0  0  0  0  # atno 2770 bound_to 2763
   23.1293   10.1410   -8.5128 H   0  0  0  0  0  0  0  0  0  0  0  0  # atno 5056 bound_to 5047
   33.9178   11.8385  -10.6779 LP  0  0  0  0  0  0  0  0  0  0  0  0  # atno 5370 bound_to 1744
   35.2491   11.0038  -11.1221 LP  0  0  0  0  0  0  0  0  0  0  0  0  # atno 5371 bound_to 1744
   28.9538    8.5982   -0.0601 LP  0  0  0  0  0  0  0  0  0  0  0  0  # atno 5378 bound_to 2763
   30.5314    8.6009    0.3616 LP  0  0  0  0  0  0  0  0  0  0  0  0  # atno 5379 bound_to 2763

> <Gold.Score>
     Fitness  S(hb_ext) S(vdw_ext)  S(hb_int)    S(int)      intcor
     34.74       1.37      25.40       0.00      -1.55      -0.79

> <Gold.Goldscore.Fitness>
34.7372

> <Gold.Goldscore.Internal.Vdw>
-1.3835

> <Gold.Goldscore.Internal.Torsion>
-0.9573

> <Gold.Goldscore.External.Vdw>
25.3964

> <Gold.Goldscore.Internal.HBond>
0.0000

> <Gold.Goldscore.External.HBond>
1.3707

> <Gold.Goldscore.Internal.Correction>
-0.7872

> <Gold.Goldscore.Hbonds>
donor molecule, donor type, donor heavy atom, donor atom, acceptor molecule, acceptor atom, score
      L1  H    10    23       P1  2555  0.69

> <Gold.Goldscore.Internal.Vdw.Weighted>
-1.3835

> <Gold.Goldscore.Internal.Torsion.Weighted>
-0.9573

> <Gold.Goldscore.External.Vdw.Weighted>
34.9201

> <Gold.Goldscore.Internal.HBond.Weighted>
0.0000

> <Gold.Goldscore.External.HBond.Weighted>
1.3707

> <Gold.Goldscore.Internal.Correction.Weighted>
-0.7872

> <Gold.Rescore>
     Score     S(PLP)   S(hbond)     S(cho)   S(metal)  DE(clash)   DE(tors)     intcor
     29.01     -27.40       1.23       0.00       0.00       0.10       1.00       ----

> <Gold.PLP.Fitness>
29.0078

> <Gold.PLP.PLP>
-27.4042

> <Gold.PLP.part.hbond>
-3.6820

> <Gold.PLP.part.metal>
0.0000

> <Gold.PLP.part.buried>
11.1448

> <Gold.PLP.part.nonpolar>
-37.4990

> <Gold.PLP.part.repulsive>
1.8391

> <Gold.PLP.ligand.clash>
0.1012

> <Gold.PLP.ligand.torsion>
0.9956

> <Gold.PLP.Chemscore.Hbond>
1.2320

> <Gold.PLP.Chemscore.CHOScore>
0.0000

> <Gold.PLP.Chemscore.Metal>
0.0000

> <Gold.Chemscore.Hbonds>
donor molecule, donor type, donor heavy atom, donor atom, acceptor molecule, acceptor atom, score
      L1  H     8    22       P1   541  0.14
      L1  H    10    23       P1  2555  0.80

> <Gold.PLP.Chemscore.Internal.Correction>
   9.000000E+99

#       Name:                CT1002167954
#       Creating user name   hitesit
#       Creation time:       Sun Apr 16 22:50:12 2023


#       File generated by GOLD software.
#

@<TRIPOS>MOLECULE
CT1002167954|ligand_prepared|mol2|1|dock6
    29    30     1
SMALL
NO_CHARGES


@<TRIPOS>ATOM
      1 C1          27.0417   9.0896  -3.9446 C.3            1 RES1               0.0000
      2 C2          28.4844   9.6234  -3.8339 C.ar           1 RES1               0.0000
      3 C3          27.1570   7.5811  -4.1434 C.2            1 RES1               0.0000
      4 C4          26.3366   9.4950  -2.6550 C.2            1 RES1               0.0000
      5 C5          26.2456   9.6819  -5.1308 C.3            1 RES1               0.0000
      6 C6          29.2152   9.9329  -4.9771 C.ar           1 RES1               0.0000
      7 C7          29.0960   9.8138  -2.5976 C.ar           1 RES1               0.0000
      8 N8          26.8367   6.7784  -3.0884 N.am           1 RES1               0.0000
      9 O9          27.5608   7.1045  -5.1970 O.2            1 RES1               0.0000
     10 N10         25.9359   8.5000  -1.8022 N.am           1 RES1               0.0000
     11 O11         26.1393  10.6677  -2.3618 O.2            1 RES1               0.0000
     12 C12         24.8037   9.2044  -5.2009 C.3            1 RES1               0.0000
     13 C13         30.5094  10.4179  -4.8877 C.ar           1 RES1               0.0000
     14 C14         30.3905  10.2988  -2.5105 C.ar           1 RES1               0.0000
     15 C15         26.1814   7.1616  -1.9459 C.2            1 RES1               0.0000
     16 C16         31.0977  10.6016  -3.6545 C.ar           1 RES1               0.0000
     17 O17         25.8366   6.3327  -1.1085 O.2            1 RES1               0.0000
     18 H18         26.2518  10.7758  -5.0491 H              1 RES1               0.0000
     19 H19         26.7525   9.4126  -6.0658 H              1 RES1               0.0000
     20 H20         28.7697   9.7925  -5.9563 H              1 RES1               0.0000
     21 H21         28.5590   9.5812  -1.6843 H              1 RES1               0.0000
     22 H22         27.1098   5.8031  -3.1551 H              1 RES1               0.0000
     23 H23         25.4053   8.7834  -0.9845 H              1 RES1               0.0000
     24 H24         24.2907   9.6498  -6.0508 H              1 RES1               0.0000
     25 H25         24.7603   8.1226  -5.3079 H              1 RES1               0.0000
     26 H26         24.2626   9.4776  -4.2973 H              1 RES1               0.0000
     27 H27         31.0622  10.6535  -5.7911 H              1 RES1               0.0000
     28 H28         30.8498  10.4412  -1.5379 H              1 RES1               0.0000
     29 H29         32.1115  10.9820  -3.5847 H              1 RES1               0.0000
@<TRIPOS>BOND
    1    1    2 1     
    2    1    3 1     
    3    1    4 1     
    4    1    5 1     
    5    2    6 ar    
    6    2    7 ar    
    7    3    8 1     
    8    3    9 2     
    9    4   10 1     
   10    4   11 2     
   11    5   12 1     
   12    5   18 1     
   13    5   19 1     
   14    6   13 ar    
   15    6   20 1     
   16    7   14 ar    
   17    7   21 1     
   18    8   15 1     
   19    8   22 1     
   20   10   15 1     
   21   10   23 1     
   22   12   24 1     
   23   12   25 1     
   24   12   26 1     
   25   13   16 ar    
   26   13   27 1     
   27   14   16 ar    
   28   14   28 1     
   29   15   17 2     
   30   16   29 1     
@<TRIPOS>SUBSTRUCTURE
      1 RES1           1
@<TRIPOS>SET
DONOR_HYDROGENS      STATIC     ATOMS    <user>   **** ""
2 22 23
ATOM$RED        STATIC     ATOMS    COLORGROUP SYSTEM
2 22 23
@<TRIPOS>COMMENT
> <Gold.Version>
2022.3.0

> <Gold.Id.Protein>
unknown|3nx8_clean|pdb

> <Gold.Protein.RotatedTorsions>
[ 1752 1744 1743 1741 ] final   67.28 input   60.01 | X-H torsion
[ 2770 2763 2761 2758 ] final  -80.64 input   60.01 | X-H torsion
[ 5056 5047 5046 5044 ] final   98.51 input   59.99 | X-H torsion

> <Gold.Protein.ActiveResidues>
 LEU49   GLY50   THR51   GLY52   ARG56   VAL57   MET58   LEU59   VAL60   HIS68  
 TYR69   ALA70   MET71   LYS72   LEU95   VAL104  LYS105  MET118  VAL119  MET120 
 GLU121  TYR122  VAL123  PRO124  GLY125  GLY126  GLU127  GLU170  ASN171  LEU173 
 ILE174  GLN181  VAL182  THR183  ASP184  PHE327  TYR330 

> <Gold.Protein.RotatedAtoms>
   34.2657   12.5931  -10.9428 H   0  0  0  0  0  0  0  0  0  0  0  0  # atno 1752 bound_to 1744
   28.6983    8.3301    0.5980 H   0  0  0  0  0  0  0  0  0  0  0  0  # atno 2770 bound_to 2763
   23.1238   10.1409   -8.5113 H   0  0  0  0  0  0  0  0  0  0  0  0  # atno 5056 bound_to 5047
   34.4468   10.9848  -10.7729 LP  0  0  0  0  0  0  0  0  0  0  0  0  # atno 5370 bound_to 1744
   35.6448   11.8793  -11.4296 LP  0  0  0  0  0  0  0  0  0  0  0  0  # atno 5371 bound_to 1744
   30.0497    8.7586   -0.2015 LP  0  0  0  0  0  0  0  0  0  0  0  0  # atno 5378 bound_to 2763
   30.1455    8.2082    1.3329 LP  0  0  0  0  0  0  0  0  0  0  0  0  # atno 5379 bound_to 2763

> <Gold.Score>
     Fitness  S(hb_ext) S(vdw_ext)  S(hb_int)    S(int)      intcor
     34.21       0.46      25.89       0.00      -1.85      -0.76

> <Gold.Goldscore.Fitness>
34.2082

> <Gold.Goldscore.Internal.Vdw>
-2.2343

> <Gold.Goldscore.Internal.Torsion>
-0.3766

> <Gold.Goldscore.External.Vdw>
25.8927

> <Gold.Goldscore.Internal.HBond>
0.0000

> <Gold.Goldscore.External.HBond>
0.4581

> <Gold.Goldscore.Internal.Correction>
-0.7585

> <Gold.Goldscore.Hbonds>
donor molecule, donor type, donor heavy atom, donor atom, acceptor molecule, acceptor atom, score
      L1  H    10    23       P1  2777  0.08

> <Gold.Goldscore.Internal.Vdw.Weighted>
-2.2343

> <Gold.Goldscore.Internal.Torsion.Weighted>
-0.3766

> <Gold.Goldscore.External.Vdw.Weighted>
35.6024

> <Gold.Goldscore.Internal.HBond.Weighted>
0.0000

> <Gold.Goldscore.External.HBond.Weighted>
0.4581

> <Gold.Goldscore.Internal.Correction.Weighted>
-0.7585

> <Gold.Rescore>
     Score     S(PLP)   S(hbond)     S(cho)   S(metal)  DE(clash)   DE(tors)     intcor
     15.57     -16.83       0.23       0.00       0.00       0.00       0.98       ----

> <Gold.PLP.Fitness>
15.5672

> <Gold.PLP.PLP>
-16.8338

> <Gold.PLP.part.hbond>
-0.9513

> <Gold.PLP.part.metal>
0.0000

> <Gold.PLP.part.buried>
12.4400

> <Gold.PLP.part.nonpolar>
-35.1678

> <Gold.PLP.part.repulsive>
6.1025

> <Gold.PLP.ligand.clash>
0.0000

> <Gold.PLP.ligand.torsion>
0.9831

> <Gold.PLP.Chemscore.Hbond>
0.2332

> <Gold.PLP.Chemscore.CHOScore>
0.0000

> <Gold.PLP.Chemscore.Metal>
0.0000

> <Gold.Chemscore.Hbonds>
donor molecule, donor type, donor heavy atom, donor atom, acceptor molecule, acceptor atom, score
      L1  H     8    22       P1  2555  0.05

> <Gold.PLP.Chemscore.Internal.Correction>
   9.000000E+99

