#       Name:                GA Fitting Points
#       Creating user name   hitesit
#       Creation time:       Sun Apr 16 22:50:02 2023


#       Fitting Points Used by GA Software.
#

@<TRIPOS>MOLECULE
GA Fitting Points
  2920    0    0
SMALL
NO_CHARGES


@<TRIPOS>ATOM
      1 ****        22.2500   7.0000  -6.2500 Du        
      2 ****        22.2500   7.0000  -6.0000 Du        
      3 ****        22.2500   7.2500  -6.7500 Du        
      4 ****        22.2500   7.2500  -6.5000 Du        
      5 ****        22.2500   7.2500  -6.2500 Du        
      6 ****        22.2500   7.2500  -6.0000 Du        
      7 ****        22.2500   7.2500  -5.7500 Du        
      8 ****        22.2500   7.5000  -6.7500 Du        
      9 ****        22.2500   7.5000  -6.5000 Du        
     10 ****        22.2500   7.5000  -6.2500 Du        
     11 ****        22.2500   7.5000  -6.0000 Du        
     12 ****        22.2500   7.7500  -7.2500 Du        
     13 ****        22.2500   7.7500  -7.0000 Du        
     14 ****        22.2500   7.7500  -6.7500 Du        
     15 ****        22.2500   7.7500  -6.5000 Du        
     16 ****        22.2500   7.7500  -6.2500 Du        
     17 ****        22.2500   7.7500  -6.0000 Du        
     18 ****        22.2500   8.0000  -7.0000 Du        
     19 ****        22.2500   8.0000  -6.7500 Du        
     20 ****        22.2500   8.0000  -6.5000 Du        
     21 ****        22.2500   8.0000  -6.2500 Du        
     22 ****        22.2500   8.2500  -6.7500 Du        
     23 ****        22.5000   7.2500  -6.2500 Du        
     24 ****        22.5000   7.2500  -6.0000 Du        
     25 ****        22.5000   7.2500  -5.7500 Du        
     26 ****        22.5000   7.5000  -6.5000 Du        
     27 ****        22.5000   7.5000  -6.2500 Du        
     28 ****        22.5000   7.5000  -6.0000 Du        
     29 ****        22.5000   7.5000  -5.7500 Du        
     30 ****        22.5000   7.7500  -6.7500 Du        
     31 ****        22.5000   7.7500  -6.5000 Du        
     32 ****        22.5000   7.7500  -6.2500 Du        
     33 ****        22.5000   7.7500  -6.0000 Du        
     34 ****        22.5000   8.0000  -6.7500 Du        
     35 ****        22.5000   8.0000  -6.5000 Du        
     36 ****        23.2500   7.0000  -3.5000 Du        
     37 ****        23.5000   6.7500  -3.2500 Du        
     38 ****        23.5000   7.0000  -4.0000 Du        
     39 ****        23.5000   7.0000  -3.7500 Du        
     40 ****        23.5000   7.0000  -3.5000 Du        
     41 ****        23.5000   7.0000  -3.2500 Du        
     42 ****        23.5000   7.2500  -4.5000 Du        
     43 ****        23.5000   7.2500  -4.2500 Du        
     44 ****        23.5000   7.2500  -4.0000 Du        
     45 ****        23.5000   7.2500  -3.7500 Du        
     46 ****        23.7500   6.7500  -3.2500 Du        
     47 ****        23.7500   7.0000  -4.2500 Du        
     48 ****        23.7500   7.0000  -4.0000 Du        
     49 ****        23.7500   7.0000  -3.7500 Du        
     50 ****        23.7500   7.0000  -3.5000 Du        
     51 ****        23.7500   7.0000  -3.2500 Du        
     52 ****        23.7500   7.0000  -3.0000 Du        
     53 ****        23.7500   7.2500  -4.5000 Du        
     54 ****        23.7500   7.2500  -4.2500 Du        
     55 ****        23.7500   7.2500  -4.0000 Du        
     56 ****        23.7500   7.2500  -3.7500 Du        
     57 ****        23.7500   7.2500  -3.5000 Du        
     58 ****        23.7500   7.2500  -3.2500 Du        
     59 ****        23.7500   7.5000  -4.5000 Du        
     60 ****        23.7500   7.5000  -4.2500 Du        
     61 ****        23.7500   7.5000  -4.0000 Du        
     62 ****        23.7500   7.5000  -3.7500 Du        
     63 ****        24.0000   7.0000  -4.2500 Du        
     64 ****        24.0000   7.0000  -4.0000 Du        
     65 ****        24.0000   7.0000  -3.7500 Du        
     66 ****        24.0000   7.0000  -3.5000 Du        
     67 ****        24.0000   7.0000  -3.2500 Du        
     68 ****        24.0000   7.0000  -3.0000 Du        
     69 ****        24.0000   7.2500  -4.5000 Du        
     70 ****        24.0000   7.2500  -4.2500 Du        
     71 ****        24.0000   7.2500  -4.0000 Du        
     72 ****        24.0000   7.2500  -3.7500 Du        
     73 ****        24.0000   7.2500  -3.5000 Du        
     74 ****        24.0000   7.2500  -3.2500 Du        
     75 ****        24.0000   7.2500  -3.0000 Du        
     76 ****        24.0000   7.5000  -4.5000 Du        
     77 ****        24.0000   7.5000  -4.2500 Du        
     78 ****        24.0000   7.5000  -4.0000 Du        
     79 ****        24.0000   7.5000  -3.7500 Du        
     80 ****        24.0000   7.5000  -3.5000 Du        
     81 ****        24.0000   7.5000  -3.2500 Du        
     82 ****        24.0000   7.7500  -4.5000 Du        
     83 ****        24.0000   7.7500  -4.2500 Du        
     84 ****        24.0000   7.7500  -4.0000 Du        
     85 ****        24.0000   7.7500  -3.7500 Du        
     86 ****        24.2500   7.0000  -4.0000 Du        
     87 ****        24.2500   7.0000  -3.7500 Du        
     88 ****        24.2500   7.0000  -3.5000 Du        
     89 ****        24.2500   7.0000  -3.2500 Du        
     90 ****        24.2500   7.0000  -3.0000 Du        
     91 ****        24.2500   7.2500  -4.2500 Du        
     92 ****        24.2500   7.2500  -4.0000 Du        
     93 ****        24.2500   7.2500  -3.7500 Du        
     94 ****        24.2500   7.2500  -3.5000 Du        
     95 ****        24.2500   7.2500  -3.2500 Du        
     96 ****        24.2500   7.2500  -3.0000 Du        
     97 ****        24.2500   7.2500  -2.7500 Du        
     98 ****        24.2500   7.5000  -4.5000 Du        
     99 ****        24.2500   7.5000  -4.2500 Du        
    100 ****        24.2500   7.5000  -4.0000 Du        
    101 ****        24.2500   7.5000  -3.7500 Du        
    102 ****        24.2500   7.5000  -3.5000 Du        
    103 ****        24.2500   7.5000  -3.2500 Du        
    104 ****        24.2500   7.5000  -3.0000 Du        
    105 ****        24.2500   7.7500  -4.5000 Du        
    106 ****        24.2500   7.7500  -4.2500 Du        
    107 ****        24.2500   7.7500  -4.0000 Du        
    108 ****        24.2500   7.7500  -3.7500 Du        
    109 ****        24.2500   7.7500  -3.5000 Du        
    110 ****        24.2500   7.7500  -3.2500 Du        
    111 ****        24.2500   8.0000  -4.5000 Du        
    112 ****        24.2500   8.0000  -4.2500 Du        
    113 ****        24.2500   8.0000  -4.0000 Du        
    114 ****        24.2500   8.0000  -3.7500 Du        
    115 ****        24.5000   7.0000  -3.7500 Du        
    116 ****        24.5000   7.0000  -3.5000 Du        
    117 ****        24.5000   7.0000  -3.2500 Du        
    118 ****        24.5000   7.0000  -3.0000 Du        
    119 ****        24.5000   7.2500  -4.2500 Du        
    120 ****        24.5000   7.2500  -4.0000 Du        
    121 ****        24.5000   7.2500  -3.7500 Du        
    122 ****        24.5000   7.2500  -3.5000 Du        
    123 ****        24.5000   7.2500  -3.2500 Du        
    124 ****        24.5000   7.2500  -3.0000 Du        
    125 ****        24.5000   7.2500  -2.7500 Du        
    126 ****        24.5000   7.5000  -4.2500 Du        
    127 ****        24.5000   7.5000  -4.0000 Du        
    128 ****        24.5000   7.5000  -3.7500 Du        
    129 ****        24.5000   7.5000  -3.5000 Du        
    130 ****        24.5000   7.5000  -3.2500 Du        
    131 ****        24.5000   7.5000  -3.0000 Du        
    132 ****        24.5000   7.5000  -2.7500 Du        
    133 ****        24.5000   7.7500  -4.5000 Du        
    134 ****        24.5000   7.7500  -4.2500 Du        
    135 ****        24.5000   7.7500  -4.0000 Du        
    136 ****        24.5000   7.7500  -3.7500 Du        
    137 ****        24.5000   7.7500  -3.5000 Du        
    138 ****        24.5000   7.7500  -3.2500 Du        
    139 ****        24.5000   7.7500  -3.0000 Du        
    140 ****        24.5000   7.7500  -2.7500 Du        
    141 ****        24.5000   8.0000  -4.5000 Du        
    142 ****        24.5000   8.0000  -4.2500 Du        
    143 ****        24.5000   8.0000  -4.0000 Du        
    144 ****        24.5000   8.0000  -3.7500 Du        
    145 ****        24.5000   8.0000  -3.5000 Du        
    146 ****        24.5000   8.0000  -3.2500 Du        
    147 ****        24.5000   8.0000  -3.0000 Du        
    148 ****        24.5000   8.2500  -4.5000 Du        
    149 ****        24.5000   8.2500  -4.2500 Du        
    150 ****        24.5000   8.2500  -4.0000 Du        
    151 ****        24.5000   8.2500  -3.7500 Du        
    152 ****        24.5000   8.2500  -3.5000 Du        
    153 ****        24.7500   7.0000  -3.7500 Du        
    154 ****        24.7500   7.0000  -3.5000 Du        
    155 ****        24.7500   7.0000  -3.2500 Du        
    156 ****        24.7500   7.0000  -3.0000 Du        
    157 ****        24.7500   7.2500  -4.0000 Du        
    158 ****        24.7500   7.2500  -3.7500 Du        
    159 ****        24.7500   7.2500  -3.5000 Du        
    160 ****        24.7500   7.2500  -3.2500 Du        
    161 ****        24.7500   7.2500  -3.0000 Du        
    162 ****        24.7500   7.2500  -2.7500 Du        
    163 ****        24.7500   7.2500  -2.5000 Du        
    164 ****        24.7500   7.5000  -4.2500 Du        
    165 ****        24.7500   7.5000  -4.0000 Du        
    166 ****        24.7500   7.5000  -3.7500 Du        
    167 ****        24.7500   7.5000  -3.5000 Du        
    168 ****        24.7500   7.5000  -3.2500 Du        
    169 ****        24.7500   7.5000  -3.0000 Du        
    170 ****        24.7500   7.5000  -2.7500 Du        
    171 ****        24.7500   7.5000  -2.5000 Du        
    172 ****        24.7500   7.5000  -2.2500 Du        
    173 ****        24.7500   7.7500  -4.2500 Du        
    174 ****        24.7500   7.7500  -4.0000 Du        
    175 ****        24.7500   7.7500  -3.7500 Du        
    176 ****        24.7500   7.7500  -3.5000 Du        
    177 ****        24.7500   7.7500  -3.2500 Du        
    178 ****        24.7500   7.7500  -3.0000 Du        
    179 ****        24.7500   7.7500  -2.7500 Du        
    180 ****        24.7500   7.7500  -2.5000 Du        
    181 ****        24.7500   7.7500  -2.2500 Du        
    182 ****        24.7500   8.0000  -4.5000 Du        
    183 ****        24.7500   8.0000  -4.2500 Du        
    184 ****        24.7500   8.0000  -4.0000 Du        
    185 ****        24.7500   8.0000  -3.7500 Du        
    186 ****        24.7500   8.0000  -3.5000 Du        
    187 ****        24.7500   8.0000  -3.2500 Du        
    188 ****        24.7500   8.0000  -3.0000 Du        
    189 ****        24.7500   8.0000  -2.7500 Du        
    190 ****        24.7500   8.0000  -2.5000 Du        
    191 ****        24.7500   8.2500  -4.5000 Du        
    192 ****        24.7500   8.2500  -4.2500 Du        
    193 ****        24.7500   8.2500  -4.0000 Du        
    194 ****        24.7500   8.2500  -3.7500 Du        
    195 ****        24.7500   8.2500  -3.5000 Du        
    196 ****        24.7500   8.2500  -3.2500 Du        
    197 ****        24.7500   8.2500  -3.0000 Du        
    198 ****        24.7500   8.2500  -2.7500 Du        
    199 ****        24.7500   8.5000  -4.5000 Du        
    200 ****        24.7500   8.5000  -4.2500 Du        
    201 ****        24.7500   8.5000  -4.0000 Du        
    202 ****        24.7500   8.5000  -3.7500 Du        
    203 ****        24.7500   8.5000  -3.5000 Du        
    204 ****        24.7500   8.5000  -3.2500 Du        
    205 ****        24.7500   8.7500  -4.5000 Du        
    206 ****        24.7500   8.7500  -4.2500 Du        
    207 ****        24.7500   8.7500  -4.0000 Du        
    208 ****        24.7500   8.7500  -3.7500 Du        
    209 ****        24.7500   8.7500  -3.5000 Du        
    210 ****        25.0000   7.0000  -3.5000 Du        
    211 ****        25.0000   7.0000  -3.2500 Du        
    212 ****        25.0000   7.0000  -3.0000 Du        
    213 ****        25.0000   7.0000  -2.7500 Du        
    214 ****        25.0000   7.2500  -4.0000 Du        
    215 ****        25.0000   7.2500  -3.7500 Du        
    216 ****        25.0000   7.2500  -3.5000 Du        
    217 ****        25.0000   7.2500  -3.2500 Du        
    218 ****        25.0000   7.2500  -3.0000 Du        
    219 ****        25.0000   7.2500  -2.7500 Du        
    220 ****        25.0000   7.2500  -2.5000 Du        
    221 ****        25.0000   7.5000  -4.2500 Du        
    222 ****        25.0000   7.5000  -4.0000 Du        
    223 ****        25.0000   7.5000  -3.7500 Du        
    224 ****        25.0000   7.5000  -3.5000 Du        
    225 ****        25.0000   7.5000  -3.2500 Du        
    226 ****        25.0000   7.5000  -3.0000 Du        
    227 ****        25.0000   7.5000  -2.7500 Du        
    228 ****        25.0000   7.5000  -2.5000 Du        
    229 ****        25.0000   7.5000  -2.2500 Du        
    230 ****        25.0000   7.7500  -4.2500 Du        
    231 ****        25.0000   7.7500  -4.0000 Du        
    232 ****        25.0000   7.7500  -3.7500 Du        
    233 ****        25.0000   7.7500  -3.5000 Du        
    234 ****        25.0000   7.7500  -3.2500 Du        
    235 ****        25.0000   7.7500  -3.0000 Du        
    236 ****        25.0000   7.7500  -2.7500 Du        
    237 ****        25.0000   7.7500  -2.5000 Du        
    238 ****        25.0000   7.7500  -2.2500 Du        
    239 ****        25.0000   7.7500  -2.0000 Du        
    240 ****        25.0000   8.0000  -4.5000 Du        
    241 ****        25.0000   8.0000  -4.2500 Du        
    242 ****        25.0000   8.0000  -4.0000 Du        
    243 ****        25.0000   8.0000  -3.7500 Du        
    244 ****        25.0000   8.0000  -3.5000 Du        
    245 ****        25.0000   8.0000  -3.2500 Du        
    246 ****        25.0000   8.0000  -3.0000 Du        
    247 ****        25.0000   8.0000  -2.7500 Du        
    248 ****        25.0000   8.0000  -2.5000 Du        
    249 ****        25.0000   8.0000  -2.2500 Du        
    250 ****        25.0000   8.0000  -2.0000 Du        
    251 ****        25.0000   8.2500  -4.5000 Du        
    252 ****        25.0000   8.2500  -4.2500 Du        
    253 ****        25.0000   8.2500  -4.0000 Du        
    254 ****        25.0000   8.2500  -3.7500 Du        
    255 ****        25.0000   8.2500  -3.5000 Du        
    256 ****        25.0000   8.2500  -3.2500 Du        
    257 ****        25.0000   8.2500  -3.0000 Du        
    258 ****        25.0000   8.2500  -2.7500 Du        
    259 ****        25.0000   8.2500  -2.5000 Du        
    260 ****        25.0000   8.2500  -2.2500 Du        
    261 ****        25.0000   8.2500  -2.0000 Du        
    262 ****        25.0000   8.5000  -4.5000 Du        
    263 ****        25.0000   8.5000  -4.2500 Du        
    264 ****        25.0000   8.5000  -4.0000 Du        
    265 ****        25.0000   8.5000  -3.7500 Du        
    266 ****        25.0000   8.5000  -3.5000 Du        
    267 ****        25.0000   8.5000  -3.2500 Du        
    268 ****        25.0000   8.5000  -3.0000 Du        
    269 ****        25.0000   8.5000  -2.7500 Du        
    270 ****        25.0000   8.5000  -2.5000 Du        
    271 ****        25.0000   8.7500  -4.7500 Du        
    272 ****        25.0000   8.7500  -4.5000 Du        
    273 ****        25.0000   8.7500  -4.2500 Du        
    274 ****        25.0000   8.7500  -4.0000 Du        
    275 ****        25.0000   8.7500  -3.7500 Du        
    276 ****        25.0000   8.7500  -3.5000 Du        
    277 ****        25.0000   8.7500  -3.2500 Du        
    278 ****        25.0000   8.7500  -3.0000 Du        
    279 ****        25.0000   8.7500  -2.7500 Du        
    280 ****        25.0000   9.0000  -4.7500 Du        
    281 ****        25.0000   9.0000  -4.5000 Du        
    282 ****        25.0000   9.0000  -4.2500 Du        
    283 ****        25.0000   9.0000  -4.0000 Du        
    284 ****        25.0000   9.0000  -3.7500 Du        
    285 ****        25.0000   9.0000  -3.5000 Du        
    286 ****        25.0000   9.0000  -3.2500 Du        
    287 ****        25.0000   9.0000  -3.0000 Du        
    288 ****        25.0000   9.2500  -4.2500 Du        
    289 ****        25.0000   9.2500  -4.0000 Du        
    290 ****        25.0000   9.2500  -3.7500 Du        
    291 ****        25.0000   9.2500  -3.5000 Du        
    292 ****        25.0000   9.2500  -3.2500 Du        
    293 ****        25.2500   7.0000  -3.2500 Du        
    294 ****        25.2500   7.0000  -3.0000 Du        
    295 ****        25.2500   7.0000  -2.7500 Du        
    296 ****        25.2500   7.2500  -4.0000 Du        
    297 ****        25.2500   7.2500  -3.7500 Du        
    298 ****        25.2500   7.2500  -3.5000 Du        
    299 ****        25.2500   7.2500  -3.2500 Du        
    300 ****        25.2500   7.2500  -3.0000 Du        
    301 ****        25.2500   7.2500  -2.7500 Du        
    302 ****        25.2500   7.2500  -2.5000 Du        
    303 ****        25.2500   7.2500  -2.2500 Du        
    304 ****        25.2500   7.5000  -4.2500 Du        
    305 ****        25.2500   7.5000  -4.0000 Du        
    306 ****        25.2500   7.5000  -3.7500 Du        
    307 ****        25.2500   7.5000  -3.5000 Du        
    308 ****        25.2500   7.5000  -3.2500 Du        
    309 ****        25.2500   7.5000  -3.0000 Du        
    310 ****        25.2500   7.5000  -2.7500 Du        
    311 ****        25.2500   7.5000  -2.5000 Du        
    312 ****        25.2500   7.5000  -2.2500 Du        
    313 ****        25.2500   7.5000  -2.0000 Du        
    314 ****        25.2500   7.7500  -4.2500 Du        
    315 ****        25.2500   7.7500  -4.0000 Du        
    316 ****        25.2500   7.7500  -3.7500 Du        
    317 ****        25.2500   7.7500  -3.5000 Du        
    318 ****        25.2500   7.7500  -3.2500 Du        
    319 ****        25.2500   7.7500  -3.0000 Du        
    320 ****        25.2500   7.7500  -2.7500 Du        
    321 ****        25.2500   7.7500  -2.5000 Du        
    322 ****        25.2500   7.7500  -2.2500 Du        
    323 ****        25.2500   7.7500  -2.0000 Du        
    324 ****        25.2500   7.7500  -1.7500 Du        
    325 ****        25.2500   8.0000  -4.2500 Du        
    326 ****        25.2500   8.0000  -4.0000 Du        
    327 ****        25.2500   8.0000  -3.7500 Du        
    328 ****        25.2500   8.0000  -3.5000 Du        
    329 ****        25.2500   8.0000  -3.2500 Du        
    330 ****        25.2500   8.0000  -3.0000 Du        
    331 ****        25.2500   8.0000  -2.7500 Du        
    332 ****        25.2500   8.0000  -2.5000 Du        
    333 ****        25.2500   8.0000  -2.2500 Du        
    334 ****        25.2500   8.0000  -2.0000 Du        
    335 ****        25.2500   8.0000  -1.7500 Du        
    336 ****        25.2500   8.2500  -4.5000 Du        
    337 ****        25.2500   8.2500  -4.2500 Du        
    338 ****        25.2500   8.2500  -4.0000 Du        
    339 ****        25.2500   8.2500  -3.7500 Du        
    340 ****        25.2500   8.2500  -3.5000 Du        
    341 ****        25.2500   8.2500  -3.2500 Du        
    342 ****        25.2500   8.2500  -3.0000 Du        
    343 ****        25.2500   8.2500  -2.7500 Du        
    344 ****        25.2500   8.2500  -2.5000 Du        
    345 ****        25.2500   8.2500  -2.2500 Du        
    346 ****        25.2500   8.2500  -2.0000 Du        
    347 ****        25.2500   8.2500  -1.7500 Du        
    348 ****        25.2500   8.5000  -4.5000 Du        
    349 ****        25.2500   8.5000  -4.2500 Du        
    350 ****        25.2500   8.5000  -4.0000 Du        
    351 ****        25.2500   8.5000  -3.7500 Du        
    352 ****        25.2500   8.5000  -3.5000 Du        
    353 ****        25.2500   8.5000  -3.2500 Du        
    354 ****        25.2500   8.5000  -3.0000 Du        
    355 ****        25.2500   8.5000  -2.7500 Du        
    356 ****        25.2500   8.5000  -2.5000 Du        
    357 ****        25.2500   8.5000  -2.2500 Du        
    358 ****        25.2500   8.5000  -2.0000 Du        
    359 ****        25.2500   8.7500  -4.7500 Du        
    360 ****        25.2500   8.7500  -4.5000 Du        
    361 ****        25.2500   8.7500  -4.2500 Du        
    362 ****        25.2500   8.7500  -4.0000 Du        
    363 ****        25.2500   8.7500  -3.7500 Du        
    364 ****        25.2500   8.7500  -3.5000 Du        
    365 ****        25.2500   8.7500  -3.2500 Du        
    366 ****        25.2500   8.7500  -3.0000 Du        
    367 ****        25.2500   8.7500  -2.7500 Du        
    368 ****        25.2500   8.7500  -2.5000 Du        
    369 ****        25.2500   8.7500  -2.2500 Du        
    370 ****        25.2500   8.7500  -2.0000 Du        
    371 ****        25.2500   9.0000  -4.7500 Du        
    372 ****        25.2500   9.0000  -4.5000 Du        
    373 ****        25.2500   9.0000  -4.2500 Du        
    374 ****        25.2500   9.0000  -4.0000 Du        
    375 ****        25.2500   9.0000  -3.7500 Du        
    376 ****        25.2500   9.0000  -3.5000 Du        
    377 ****        25.2500   9.0000  -3.2500 Du        
    378 ****        25.2500   9.0000  -3.0000 Du        
    379 ****        25.2500   9.0000  -2.7500 Du        
    380 ****        25.2500   9.0000  -2.5000 Du        
    381 ****        25.2500   9.0000  -2.2500 Du        
    382 ****        25.2500   9.2500  -4.7500 Du        
    383 ****        25.2500   9.2500  -4.5000 Du        
    384 ****        25.2500   9.2500  -4.2500 Du        
    385 ****        25.2500   9.2500  -4.0000 Du        
    386 ****        25.2500   9.2500  -3.7500 Du        
    387 ****        25.2500   9.2500  -3.5000 Du        
    388 ****        25.2500   9.2500  -3.2500 Du        
    389 ****        25.2500   9.2500  -3.0000 Du        
    390 ****        25.2500   9.2500  -2.7500 Du        
    391 ****        25.2500   9.2500  -2.5000 Du        
    392 ****        25.2500   9.5000  -4.2500 Du        
    393 ****        25.2500   9.5000  -4.0000 Du        
    394 ****        25.2500   9.5000  -3.7500 Du        
    395 ****        25.2500   9.5000  -3.5000 Du        
    396 ****        25.2500   9.5000  -3.2500 Du        
    397 ****        25.2500   9.5000  -3.0000 Du        
    398 ****        25.2500   9.5000  -2.7500 Du        
    399 ****        25.2500   9.7500  -4.0000 Du        
    400 ****        25.2500   9.7500  -3.7500 Du        
    401 ****        25.2500   9.7500  -3.5000 Du        
    402 ****        25.2500   9.7500  -3.2500 Du        
    403 ****        25.2500   9.7500  -3.0000 Du        
    404 ****        25.2500  10.0000  -3.5000 Du        
    405 ****        25.2500  10.0000  -3.2500 Du        
    406 ****        25.2500  10.0000  -3.0000 Du        
    407 ****        25.5000   7.0000  -3.2500 Du        
    408 ****        25.5000   7.0000  -3.0000 Du        
    409 ****        25.5000   7.2500  -3.7500 Du        
    410 ****        25.5000   7.2500  -3.5000 Du        
    411 ****        25.5000   7.2500  -3.2500 Du        
    412 ****        25.5000   7.2500  -3.0000 Du        
    413 ****        25.5000   7.2500  -2.7500 Du        
    414 ****        25.5000   7.2500  -2.5000 Du        
    415 ****        25.5000   7.5000  -4.0000 Du        
    416 ****        25.5000   7.5000  -3.7500 Du        
    417 ****        25.5000   7.5000  -3.5000 Du        
    418 ****        25.5000   7.5000  -3.2500 Du        
    419 ****        25.5000   7.5000  -3.0000 Du        
    420 ****        25.5000   7.5000  -2.7500 Du        
    421 ****        25.5000   7.5000  -2.5000 Du        
    422 ****        25.5000   7.5000  -2.2500 Du        
    423 ****        25.5000   7.7500  -4.2500 Du        
    424 ****        25.5000   7.7500  -4.0000 Du        
    425 ****        25.5000   7.7500  -3.7500 Du        
    426 ****        25.5000   7.7500  -3.5000 Du        
    427 ****        25.5000   7.7500  -3.2500 Du        
    428 ****        25.5000   7.7500  -3.0000 Du        
    429 ****        25.5000   7.7500  -2.7500 Du        
    430 ****        25.5000   7.7500  -2.5000 Du        
    431 ****        25.5000   7.7500  -2.2500 Du        
    432 ****        25.5000   7.7500  -2.0000 Du        
    433 ****        25.5000   8.0000  -4.2500 Du        
    434 ****        25.5000   8.0000  -4.0000 Du        
    435 ****        25.5000   8.0000  -3.7500 Du        
    436 ****        25.5000   8.0000  -3.5000 Du        
    437 ****        25.5000   8.0000  -3.2500 Du        
    438 ****        25.5000   8.0000  -3.0000 Du        
    439 ****        25.5000   8.0000  -2.7500 Du        
    440 ****        25.5000   8.0000  -2.5000 Du        
    441 ****        25.5000   8.0000  -2.2500 Du        
    442 ****        25.5000   8.0000  -2.0000 Du        
    443 ****        25.5000   8.0000  -1.7500 Du        
    444 ****        25.5000   8.2500  -4.5000 Du        
    445 ****        25.5000   8.2500  -4.2500 Du        
    446 ****        25.5000   8.2500  -4.0000 Du        
    447 ****        25.5000   8.2500  -3.7500 Du        
    448 ****        25.5000   8.2500  -3.5000 Du        
    449 ****        25.5000   8.2500  -3.2500 Du        
    450 ****        25.5000   8.2500  -3.0000 Du        
    451 ****        25.5000   8.2500  -2.7500 Du        
    452 ****        25.5000   8.2500  -2.5000 Du        
    453 ****        25.5000   8.2500  -2.2500 Du        
    454 ****        25.5000   8.2500  -2.0000 Du        
    455 ****        25.5000   8.2500  -1.7500 Du        
    456 ****        25.5000   8.5000  -4.5000 Du        
    457 ****        25.5000   8.5000  -4.2500 Du        
    458 ****        25.5000   8.5000  -4.0000 Du        
    459 ****        25.5000   8.5000  -3.7500 Du        
    460 ****        25.5000   8.5000  -3.5000 Du        
    461 ****        25.5000   8.5000  -3.2500 Du        
    462 ****        25.5000   8.5000  -3.0000 Du        
    463 ****        25.5000   8.5000  -2.7500 Du        
    464 ****        25.5000   8.5000  -2.5000 Du        
    465 ****        25.5000   8.5000  -2.2500 Du        
    466 ****        25.5000   8.5000  -2.0000 Du        
    467 ****        25.5000   8.5000  -1.7500 Du        
    468 ****        25.5000   8.7500  -4.5000 Du        
    469 ****        25.5000   8.7500  -4.2500 Du        
    470 ****        25.5000   8.7500  -4.0000 Du        
    471 ****        25.5000   8.7500  -3.7500 Du        
    472 ****        25.5000   8.7500  -3.5000 Du        
    473 ****        25.5000   8.7500  -3.2500 Du        
    474 ****        25.5000   8.7500  -3.0000 Du        
    475 ****        25.5000   8.7500  -2.7500 Du        
    476 ****        25.5000   8.7500  -2.5000 Du        
    477 ****        25.5000   8.7500  -2.2500 Du        
    478 ****        25.5000   8.7500  -2.0000 Du        
    479 ****        25.5000   8.7500  -1.7500 Du        
    480 ****        25.5000   9.0000  -4.7500 Du        
    481 ****        25.5000   9.0000  -4.5000 Du        
    482 ****        25.5000   9.0000  -4.2500 Du        
    483 ****        25.5000   9.0000  -4.0000 Du        
    484 ****        25.5000   9.0000  -3.7500 Du        
    485 ****        25.5000   9.0000  -3.5000 Du        
    486 ****        25.5000   9.0000  -3.2500 Du        
    487 ****        25.5000   9.0000  -3.0000 Du        
    488 ****        25.5000   9.0000  -2.7500 Du        
    489 ****        25.5000   9.0000  -2.5000 Du        
    490 ****        25.5000   9.0000  -2.2500 Du        
    491 ****        25.5000   9.0000  -2.0000 Du        
    492 ****        25.5000   9.0000  -1.7500 Du        
    493 ****        25.5000   9.0000  -1.5000 Du        
    494 ****        25.5000   9.2500  -4.7500 Du        
    495 ****        25.5000   9.2500  -4.5000 Du        
    496 ****        25.5000   9.2500  -4.2500 Du        
    497 ****        25.5000   9.2500  -4.0000 Du        
    498 ****        25.5000   9.2500  -3.7500 Du        
    499 ****        25.5000   9.2500  -3.5000 Du        
    500 ****        25.5000   9.2500  -3.2500 Du        
    501 ****        25.5000   9.2500  -3.0000 Du        
    502 ****        25.5000   9.2500  -2.7500 Du        
    503 ****        25.5000   9.2500  -2.5000 Du        
    504 ****        25.5000   9.2500  -2.2500 Du        
    505 ****        25.5000   9.2500  -2.0000 Du        
    506 ****        25.5000   9.2500  -1.7500 Du        
    507 ****        25.5000   9.5000  -4.5000 Du        
    508 ****        25.5000   9.5000  -4.2500 Du        
    509 ****        25.5000   9.5000  -4.0000 Du        
    510 ****        25.5000   9.5000  -3.7500 Du        
    511 ****        25.5000   9.5000  -3.5000 Du        
    512 ****        25.5000   9.5000  -3.2500 Du        
    513 ****        25.5000   9.5000  -3.0000 Du        
    514 ****        25.5000   9.5000  -2.7500 Du        
    515 ****        25.5000   9.5000  -2.5000 Du        
    516 ****        25.5000   9.5000  -2.2500 Du        
    517 ****        25.5000   9.5000  -2.0000 Du        
    518 ****        25.5000   9.5000  -1.7500 Du        
    519 ****        25.5000   9.7500  -4.2500 Du        
    520 ****        25.5000   9.7500  -4.0000 Du        
    521 ****        25.5000   9.7500  -3.7500 Du        
    522 ****        25.5000   9.7500  -3.5000 Du        
    523 ****        25.5000   9.7500  -3.2500 Du        
    524 ****        25.5000   9.7500  -3.0000 Du        
    525 ****        25.5000   9.7500  -2.7500 Du        
    526 ****        25.5000   9.7500  -2.5000 Du        
    527 ****        25.5000   9.7500  -2.2500 Du        
    528 ****        25.5000   9.7500  -2.0000 Du        
    529 ****        25.5000   9.7500  -1.7500 Du        
    530 ****        25.5000  10.0000  -4.0000 Du        
    531 ****        25.5000  10.0000  -3.7500 Du        
    532 ****        25.5000  10.0000  -3.5000 Du        
    533 ****        25.5000  10.0000  -3.2500 Du        
    534 ****        25.5000  10.0000  -3.0000 Du        
    535 ****        25.5000  10.0000  -2.7500 Du        
    536 ****        25.5000  10.0000  -2.5000 Du        
    537 ****        25.5000  10.0000  -2.2500 Du        
    538 ****        25.5000  10.0000  -2.0000 Du        
    539 ****        25.5000  10.0000  -1.7500 Du        
    540 ****        25.5000  10.2500  -3.7500 Du        
    541 ****        25.5000  10.2500  -3.5000 Du        
    542 ****        25.5000  10.2500  -3.2500 Du        
    543 ****        25.5000  10.2500  -3.0000 Du        
    544 ****        25.5000  10.2500  -2.7500 Du        
    545 ****        25.5000  10.2500  -2.5000 Du        
    546 ****        25.5000  10.2500  -2.2500 Du        
    547 ****        25.5000  10.2500  -2.0000 Du        
    548 ****        25.5000  10.5000  -3.5000 Du        
    549 ****        25.5000  10.5000  -3.2500 Du        
    550 ****        25.5000  10.5000  -3.0000 Du        
    551 ****        25.5000  10.5000  -2.7500 Du        
    552 ****        25.5000  10.7500  -0.2500 Du        
    553 ****        25.5000  10.7500   0.0000 Du        
    554 ****        25.5000  10.7500   0.2500 Du        
    555 ****        25.5000  11.0000  -0.2500 Du        
    556 ****        25.5000  11.0000   0.0000 Du        
    557 ****        25.7500   7.0000  -3.2500 Du        
    558 ****        25.7500   7.0000  -3.0000 Du        
    559 ****        25.7500   7.2500  -4.0000 Du        
    560 ****        25.7500   7.2500  -3.7500 Du        
    561 ****        25.7500   7.2500  -3.5000 Du        
    562 ****        25.7500   7.2500  -3.2500 Du        
    563 ****        25.7500   7.2500  -3.0000 Du        
    564 ****        25.7500   7.2500  -2.7500 Du        
    565 ****        25.7500   7.2500  -2.5000 Du        
    566 ****        25.7500   7.5000  -4.0000 Du        
    567 ****        25.7500   7.5000  -3.7500 Du        
    568 ****        25.7500   7.5000  -3.5000 Du        
    569 ****        25.7500   7.5000  -3.2500 Du        
    570 ****        25.7500   7.5000  -3.0000 Du        
    571 ****        25.7500   7.5000  -2.7500 Du        
    572 ****        25.7500   7.5000  -2.5000 Du        
    573 ****        25.7500   7.5000  -2.2500 Du        
    574 ****        25.7500   7.7500  -4.2500 Du        
    575 ****        25.7500   7.7500  -4.0000 Du        
    576 ****        25.7500   7.7500  -3.7500 Du        
    577 ****        25.7500   7.7500  -3.5000 Du        
    578 ****        25.7500   7.7500  -3.2500 Du        
    579 ****        25.7500   7.7500  -3.0000 Du        
    580 ****        25.7500   7.7500  -2.7500 Du        
    581 ****        25.7500   7.7500  -2.5000 Du        
    582 ****        25.7500   7.7500  -2.2500 Du        
    583 ****        25.7500   8.0000  -4.2500 Du        
    584 ****        25.7500   8.0000  -4.0000 Du        
    585 ****        25.7500   8.0000  -3.7500 Du        
    586 ****        25.7500   8.0000  -3.5000 Du        
    587 ****        25.7500   8.0000  -3.2500 Du        
    588 ****        25.7500   8.0000  -3.0000 Du        
    589 ****        25.7500   8.0000  -2.7500 Du        
    590 ****        25.7500   8.0000  -2.5000 Du        
    591 ****        25.7500   8.0000  -2.2500 Du        
    592 ****        25.7500   8.0000  -2.0000 Du        
    593 ****        25.7500   8.2500  -4.5000 Du        
    594 ****        25.7500   8.2500  -4.2500 Du        
    595 ****        25.7500   8.2500  -4.0000 Du        
    596 ****        25.7500   8.2500  -3.7500 Du        
    597 ****        25.7500   8.2500  -3.5000 Du        
    598 ****        25.7500   8.2500  -3.2500 Du        
    599 ****        25.7500   8.2500  -3.0000 Du        
    600 ****        25.7500   8.2500  -2.7500 Du        
    601 ****        25.7500   8.2500  -2.5000 Du        
    602 ****        25.7500   8.2500  -2.2500 Du        
    603 ****        25.7500   8.2500  -2.0000 Du        
    604 ****        25.7500   8.2500  -1.7500 Du        
    605 ****        25.7500   8.5000  -4.5000 Du        
    606 ****        25.7500   8.5000  -4.2500 Du        
    607 ****        25.7500   8.5000  -4.0000 Du        
    608 ****        25.7500   8.5000  -3.7500 Du        
    609 ****        25.7500   8.5000  -3.5000 Du        
    610 ****        25.7500   8.5000  -3.2500 Du        
    611 ****        25.7500   8.5000  -3.0000 Du        
    612 ****        25.7500   8.5000  -2.7500 Du        
    613 ****        25.7500   8.5000  -2.5000 Du        
    614 ****        25.7500   8.5000  -2.2500 Du        
    615 ****        25.7500   8.5000  -2.0000 Du        
    616 ****        25.7500   8.5000  -1.7500 Du        
    617 ****        25.7500   8.7500  -4.7500 Du        
    618 ****        25.7500   8.7500  -4.5000 Du        
    619 ****        25.7500   8.7500  -4.2500 Du        
    620 ****        25.7500   8.7500  -4.0000 Du        
    621 ****        25.7500   8.7500  -3.7500 Du        
    622 ****        25.7500   8.7500  -3.5000 Du        
    623 ****        25.7500   8.7500  -3.2500 Du        
    624 ****        25.7500   8.7500  -3.0000 Du        
    625 ****        25.7500   8.7500  -2.7500 Du        
    626 ****        25.7500   8.7500  -2.5000 Du        
    627 ****        25.7500   8.7500  -2.2500 Du        
    628 ****        25.7500   8.7500  -2.0000 Du        
    629 ****        25.7500   8.7500  -1.7500 Du        
    630 ****        25.7500   8.7500  -1.5000 Du        
    631 ****        25.7500   9.0000  -4.7500 Du        
    632 ****        25.7500   9.0000  -4.5000 Du        
    633 ****        25.7500   9.0000  -4.2500 Du        
    634 ****        25.7500   9.0000  -4.0000 Du        
    635 ****        25.7500   9.0000  -3.7500 Du        
    636 ****        25.7500   9.0000  -3.5000 Du        
    637 ****        25.7500   9.0000  -3.2500 Du        
    638 ****        25.7500   9.0000  -3.0000 Du        
    639 ****        25.7500   9.0000  -2.7500 Du        
    640 ****        25.7500   9.0000  -2.5000 Du        
    641 ****        25.7500   9.0000  -2.2500 Du        
    642 ****        25.7500   9.0000  -2.0000 Du        
    643 ****        25.7500   9.0000  -1.7500 Du        
    644 ****        25.7500   9.0000  -1.5000 Du        
    645 ****        25.7500   9.0000  -1.2500 Du        
    646 ****        25.7500   9.2500  -4.7500 Du        
    647 ****        25.7500   9.2500  -4.5000 Du        
    648 ****        25.7500   9.2500  -4.2500 Du        
    649 ****        25.7500   9.2500  -4.0000 Du        
    650 ****        25.7500   9.2500  -3.7500 Du        
    651 ****        25.7500   9.2500  -3.5000 Du        
    652 ****        25.7500   9.2500  -3.2500 Du        
    653 ****        25.7500   9.2500  -3.0000 Du        
    654 ****        25.7500   9.2500  -2.7500 Du        
    655 ****        25.7500   9.2500  -2.5000 Du        
    656 ****        25.7500   9.2500  -2.2500 Du        
    657 ****        25.7500   9.2500  -2.0000 Du        
    658 ****        25.7500   9.2500  -1.7500 Du        
    659 ****        25.7500   9.2500  -1.5000 Du        
    660 ****        25.7500   9.2500  -1.2500 Du        
    661 ****        25.7500   9.5000  -4.7500 Du        
    662 ****        25.7500   9.5000  -4.5000 Du        
    663 ****        25.7500   9.5000  -4.2500 Du        
    664 ****        25.7500   9.5000  -4.0000 Du        
    665 ****        25.7500   9.5000  -3.7500 Du        
    666 ****        25.7500   9.5000  -3.5000 Du        
    667 ****        25.7500   9.5000  -3.2500 Du        
    668 ****        25.7500   9.5000  -3.0000 Du        
    669 ****        25.7500   9.5000  -2.7500 Du        
    670 ****        25.7500   9.5000  -2.5000 Du        
    671 ****        25.7500   9.5000  -2.2500 Du        
    672 ****        25.7500   9.5000  -2.0000 Du        
    673 ****        25.7500   9.5000  -1.7500 Du        
    674 ****        25.7500   9.5000  -1.5000 Du        
    675 ****        25.7500   9.5000  -1.2500 Du        
    676 ****        25.7500   9.5000  -1.0000 Du        
    677 ****        25.7500   9.7500  -4.5000 Du        
    678 ****        25.7500   9.7500  -4.2500 Du        
    679 ****        25.7500   9.7500  -4.0000 Du        
    680 ****        25.7500   9.7500  -3.7500 Du        
    681 ****        25.7500   9.7500  -3.5000 Du        
    682 ****        25.7500   9.7500  -3.2500 Du        
    683 ****        25.7500   9.7500  -3.0000 Du        
    684 ****        25.7500   9.7500  -2.7500 Du        
    685 ****        25.7500   9.7500  -2.5000 Du        
    686 ****        25.7500   9.7500  -2.2500 Du        
    687 ****        25.7500   9.7500  -2.0000 Du        
    688 ****        25.7500   9.7500  -1.7500 Du        
    689 ****        25.7500   9.7500  -1.5000 Du        
    690 ****        25.7500   9.7500  -1.2500 Du        
    691 ****        25.7500   9.7500  -1.0000 Du        
    692 ****        25.7500   9.7500  -0.7500 Du        
    693 ****        25.7500   9.7500  -0.5000 Du        
    694 ****        25.7500  10.0000  -4.2500 Du        
    695 ****        25.7500  10.0000  -4.0000 Du        
    696 ****        25.7500  10.0000  -3.7500 Du        
    697 ****        25.7500  10.0000  -3.5000 Du        
    698 ****        25.7500  10.0000  -3.2500 Du        
    699 ****        25.7500  10.0000  -3.0000 Du        
    700 ****        25.7500  10.0000  -2.7500 Du        
    701 ****        25.7500  10.0000  -2.5000 Du        
    702 ****        25.7500  10.0000  -2.2500 Du        
    703 ****        25.7500  10.0000  -2.0000 Du        
    704 ****        25.7500  10.0000  -1.7500 Du        
    705 ****        25.7500  10.0000  -1.5000 Du        
    706 ****        25.7500  10.0000  -1.2500 Du        
    707 ****        25.7500  10.0000  -1.0000 Du        
    708 ****        25.7500  10.0000  -0.7500 Du        
    709 ****        25.7500  10.0000  -0.5000 Du        
    710 ****        25.7500  10.0000  -0.2500 Du        
    711 ****        25.7500  10.0000   0.0000 Du        
    712 ****        25.7500  10.2500  -4.0000 Du        
    713 ****        25.7500  10.2500  -3.7500 Du        
    714 ****        25.7500  10.2500  -3.5000 Du        
    715 ****        25.7500  10.2500  -3.2500 Du        
    716 ****        25.7500  10.2500  -3.0000 Du        
    717 ****        25.7500  10.2500  -2.7500 Du        
    718 ****        25.7500  10.2500  -2.5000 Du        
    719 ****        25.7500  10.2500  -2.2500 Du        
    720 ****        25.7500  10.2500  -2.0000 Du        
    721 ****        25.7500  10.2500  -1.7500 Du        
    722 ****        25.7500  10.2500  -1.5000 Du        
    723 ****        25.7500  10.2500  -1.2500 Du        
    724 ****        25.7500  10.2500  -1.0000 Du        
    725 ****        25.7500  10.2500  -0.7500 Du        
    726 ****        25.7500  10.2500  -0.5000 Du        
    727 ****        25.7500  10.2500  -0.2500 Du        
    728 ****        25.7500  10.2500   0.0000 Du        
    729 ****        25.7500  10.2500   0.2500 Du        
    730 ****        25.7500  10.5000  -3.7500 Du        
    731 ****        25.7500  10.5000  -3.5000 Du        
    732 ****        25.7500  10.5000  -3.2500 Du        
    733 ****        25.7500  10.5000  -3.0000 Du        
    734 ****        25.7500  10.5000  -2.7500 Du        
    735 ****        25.7500  10.5000  -2.5000 Du        
    736 ****        25.7500  10.5000  -1.0000 Du        
    737 ****        25.7500  10.5000  -0.7500 Du        
    738 ****        25.7500  10.5000  -0.5000 Du        
    739 ****        25.7500  10.5000  -0.2500 Du        
    740 ****        25.7500  10.5000   0.0000 Du        
    741 ****        25.7500  10.5000   0.2500 Du        
    742 ****        25.7500  10.7500  -3.5000 Du        
    743 ****        25.7500  10.7500  -3.2500 Du        
    744 ****        25.7500  10.7500  -0.5000 Du        
    745 ****        25.7500  10.7500  -0.2500 Du        
    746 ****        25.7500  10.7500   0.0000 Du        
    747 ****        25.7500  10.7500   0.2500 Du        
    748 ****        25.7500  11.0000  -0.2500 Du        
    749 ****        25.7500  11.0000   0.0000 Du        
    750 ****        26.0000   7.2500  -4.0000 Du        
    751 ****        26.0000   7.2500  -3.7500 Du        
    752 ****        26.0000   7.2500  -3.5000 Du        
    753 ****        26.0000   7.2500  -3.2500 Du        
    754 ****        26.0000   7.2500  -3.0000 Du        
    755 ****        26.0000   7.2500  -2.7500 Du        
    756 ****        26.0000   7.5000  -4.2500 Du        
    757 ****        26.0000   7.5000  -4.0000 Du        
    758 ****        26.0000   7.5000  -3.7500 Du        
    759 ****        26.0000   7.5000  -3.5000 Du        
    760 ****        26.0000   7.5000  -3.2500 Du        
    761 ****        26.0000   7.5000  -3.0000 Du        
    762 ****        26.0000   7.5000  -2.7500 Du        
    763 ****        26.0000   7.7500  -4.2500 Du        
    764 ****        26.0000   7.7500  -4.0000 Du        
    765 ****        26.0000   7.7500  -3.7500 Du        
    766 ****        26.0000   7.7500  -3.5000 Du        
    767 ****        26.0000   7.7500  -3.2500 Du        
    768 ****        26.0000   7.7500  -3.0000 Du        
    769 ****        26.0000   7.7500  -2.7500 Du        
    770 ****        26.0000   7.7500  -2.5000 Du        
    771 ****        26.0000   8.0000  -4.5000 Du        
    772 ****        26.0000   8.0000  -4.2500 Du        
    773 ****        26.0000   8.0000  -4.0000 Du        
    774 ****        26.0000   8.0000  -3.7500 Du        
    775 ****        26.0000   8.0000  -3.5000 Du        
    776 ****        26.0000   8.0000  -3.2500 Du        
    777 ****        26.0000   8.0000  -3.0000 Du        
    778 ****        26.0000   8.0000  -2.7500 Du        
    779 ****        26.0000   8.0000  -2.5000 Du        
    780 ****        26.0000   8.0000  -2.2500 Du        
    781 ****        26.0000   8.2500  -4.5000 Du        
    782 ****        26.0000   8.2500  -4.2500 Du        
    783 ****        26.0000   8.2500  -4.0000 Du        
    784 ****        26.0000   8.2500  -3.7500 Du        
    785 ****        26.0000   8.2500  -3.5000 Du        
    786 ****        26.0000   8.2500  -3.2500 Du        
    787 ****        26.0000   8.2500  -3.0000 Du        
    788 ****        26.0000   8.2500  -2.7500 Du        
    789 ****        26.0000   8.2500  -2.5000 Du        
    790 ****        26.0000   8.2500  -2.2500 Du        
    791 ****        26.0000   8.2500  -2.0000 Du        
    792 ****        26.0000   8.5000  -4.5000 Du        
    793 ****        26.0000   8.5000  -4.2500 Du        
    794 ****        26.0000   8.5000  -4.0000 Du        
    795 ****        26.0000   8.5000  -3.7500 Du        
    796 ****        26.0000   8.5000  -3.5000 Du        
    797 ****        26.0000   8.5000  -3.2500 Du        
    798 ****        26.0000   8.5000  -3.0000 Du        
    799 ****        26.0000   8.5000  -2.7500 Du        
    800 ****        26.0000   8.5000  -2.5000 Du        
    801 ****        26.0000   8.5000  -2.2500 Du        
    802 ****        26.0000   8.5000  -2.0000 Du        
    803 ****        26.0000   8.7500  -4.7500 Du        
    804 ****        26.0000   8.7500  -4.5000 Du        
    805 ****        26.0000   8.7500  -4.2500 Du        
    806 ****        26.0000   8.7500  -4.0000 Du        
    807 ****        26.0000   8.7500  -3.7500 Du        
    808 ****        26.0000   8.7500  -3.5000 Du        
    809 ****        26.0000   8.7500  -3.2500 Du        
    810 ****        26.0000   8.7500  -3.0000 Du        
    811 ****        26.0000   8.7500  -2.7500 Du        
    812 ****        26.0000   8.7500  -2.5000 Du        
    813 ****        26.0000   8.7500  -2.2500 Du        
    814 ****        26.0000   8.7500  -2.0000 Du        
    815 ****        26.0000   8.7500  -1.7500 Du        
    816 ****        26.0000   8.7500  -1.5000 Du        
    817 ****        26.0000   9.0000  -5.0000 Du        
    818 ****        26.0000   9.0000  -4.7500 Du        
    819 ****        26.0000   9.0000  -4.5000 Du        
    820 ****        26.0000   9.0000  -4.2500 Du        
    821 ****        26.0000   9.0000  -4.0000 Du        
    822 ****        26.0000   9.0000  -3.7500 Du        
    823 ****        26.0000   9.0000  -3.5000 Du        
    824 ****        26.0000   9.0000  -3.2500 Du        
    825 ****        26.0000   9.0000  -3.0000 Du        
    826 ****        26.0000   9.0000  -2.7500 Du        
    827 ****        26.0000   9.0000  -2.5000 Du        
    828 ****        26.0000   9.0000  -2.2500 Du        
    829 ****        26.0000   9.0000  -2.0000 Du        
    830 ****        26.0000   9.0000  -1.7500 Du        
    831 ****        26.0000   9.0000  -1.5000 Du        
    832 ****        26.0000   9.0000  -1.2500 Du        
    833 ****        26.0000   9.2500  -5.0000 Du        
    834 ****        26.0000   9.2500  -4.7500 Du        
    835 ****        26.0000   9.2500  -4.5000 Du        
    836 ****        26.0000   9.2500  -4.2500 Du        
    837 ****        26.0000   9.2500  -4.0000 Du        
    838 ****        26.0000   9.2500  -3.7500 Du        
    839 ****        26.0000   9.2500  -3.5000 Du        
    840 ****        26.0000   9.2500  -3.2500 Du        
    841 ****        26.0000   9.2500  -3.0000 Du        
    842 ****        26.0000   9.2500  -2.7500 Du        
    843 ****        26.0000   9.2500  -2.5000 Du        
    844 ****        26.0000   9.2500  -2.2500 Du        
    845 ****        26.0000   9.2500  -2.0000 Du        
    846 ****        26.0000   9.2500  -1.7500 Du        
    847 ****        26.0000   9.2500  -1.5000 Du        
    848 ****        26.0000   9.2500  -1.2500 Du        
    849 ****        26.0000   9.2500  -1.0000 Du        
    850 ****        26.0000   9.5000  -4.7500 Du        
    851 ****        26.0000   9.5000  -4.5000 Du        
    852 ****        26.0000   9.5000  -4.2500 Du        
    853 ****        26.0000   9.5000  -4.0000 Du        
    854 ****        26.0000   9.5000  -3.7500 Du        
    855 ****        26.0000   9.5000  -3.5000 Du        
    856 ****        26.0000   9.5000  -3.2500 Du        
    857 ****        26.0000   9.5000  -3.0000 Du        
    858 ****        26.0000   9.5000  -2.7500 Du        
    859 ****        26.0000   9.5000  -2.5000 Du        
    860 ****        26.0000   9.5000  -2.2500 Du        
    861 ****        26.0000   9.5000  -2.0000 Du        
    862 ****        26.0000   9.5000  -1.7500 Du        
    863 ****        26.0000   9.5000  -1.5000 Du        
    864 ****        26.0000   9.5000  -1.2500 Du        
    865 ****        26.0000   9.5000  -1.0000 Du        
    866 ****        26.0000   9.5000  -0.7500 Du        
    867 ****        26.0000   9.7500  -4.5000 Du        
    868 ****        26.0000   9.7500  -4.2500 Du        
    869 ****        26.0000   9.7500  -4.0000 Du        
    870 ****        26.0000   9.7500  -3.7500 Du        
    871 ****        26.0000   9.7500  -3.5000 Du        
    872 ****        26.0000   9.7500  -3.2500 Du        
    873 ****        26.0000   9.7500  -3.0000 Du        
    874 ****        26.0000   9.7500  -2.7500 Du        
    875 ****        26.0000   9.7500  -2.5000 Du        
    876 ****        26.0000   9.7500  -2.2500 Du        
    877 ****        26.0000   9.7500  -2.0000 Du        
    878 ****        26.0000   9.7500  -1.7500 Du        
    879 ****        26.0000   9.7500  -1.5000 Du        
    880 ****        26.0000   9.7500  -1.2500 Du        
    881 ****        26.0000   9.7500  -1.0000 Du        
    882 ****        26.0000   9.7500  -0.7500 Du        
    883 ****        26.0000   9.7500  -0.5000 Du        
    884 ****        26.0000   9.7500  -0.2500 Du        
    885 ****        26.0000  10.0000  -4.5000 Du        
    886 ****        26.0000  10.0000  -4.2500 Du        
    887 ****        26.0000  10.0000  -4.0000 Du        
    888 ****        26.0000  10.0000  -3.7500 Du        
    889 ****        26.0000  10.0000  -3.5000 Du        
    890 ****        26.0000  10.0000  -3.2500 Du        
    891 ****        26.0000  10.0000  -3.0000 Du        
    892 ****        26.0000  10.0000  -2.7500 Du        
    893 ****        26.0000  10.0000  -2.5000 Du        
    894 ****        26.0000  10.0000  -2.2500 Du        
    895 ****        26.0000  10.0000  -2.0000 Du        
    896 ****        26.0000  10.0000  -1.7500 Du        
    897 ****        26.0000  10.0000  -1.5000 Du        
    898 ****        26.0000  10.0000  -1.2500 Du        
    899 ****        26.0000  10.0000  -1.0000 Du        
    900 ****        26.0000  10.0000  -0.7500 Du        
    901 ****        26.0000  10.0000  -0.5000 Du        
    902 ****        26.0000  10.0000  -0.2500 Du        
    903 ****        26.0000  10.0000   0.0000 Du        
    904 ****        26.0000  10.0000   0.2500 Du        
    905 ****        26.0000  10.2500  -4.2500 Du        
    906 ****        26.0000  10.2500  -4.0000 Du        
    907 ****        26.0000  10.2500  -3.7500 Du        
    908 ****        26.0000  10.2500  -3.5000 Du        
    909 ****        26.0000  10.2500  -3.2500 Du        
    910 ****        26.0000  10.2500  -3.0000 Du        
    911 ****        26.0000  10.2500  -2.7500 Du        
    912 ****        26.0000  10.2500  -2.5000 Du        
    913 ****        26.0000  10.2500  -2.2500 Du        
    914 ****        26.0000  10.2500  -2.0000 Du        
    915 ****        26.0000  10.2500  -1.7500 Du        
    916 ****        26.0000  10.2500  -1.5000 Du        
    917 ****        26.0000  10.2500  -1.2500 Du        
    918 ****        26.0000  10.2500  -1.0000 Du        
    919 ****        26.0000  10.2500  -0.7500 Du        
    920 ****        26.0000  10.2500  -0.5000 Du        
    921 ****        26.0000  10.2500  -0.2500 Du        
    922 ****        26.0000  10.2500   0.0000 Du        
    923 ****        26.0000  10.2500   0.2500 Du        
    924 ****        26.0000  10.2500   0.5000 Du        
    925 ****        26.0000  10.5000  -4.0000 Du        
    926 ****        26.0000  10.5000  -3.7500 Du        
    927 ****        26.0000  10.5000  -3.5000 Du        
    928 ****        26.0000  10.5000  -3.2500 Du        
    929 ****        26.0000  10.5000  -3.0000 Du        
    930 ****        26.0000  10.5000  -0.7500 Du        
    931 ****        26.0000  10.5000  -0.5000 Du        
    932 ****        26.0000  10.5000  -0.2500 Du        
    933 ****        26.0000  10.5000   0.0000 Du        
    934 ****        26.0000  10.5000   0.2500 Du        
    935 ****        26.0000  10.5000   0.5000 Du        
    936 ****        26.0000  10.7500  -3.7500 Du        
    937 ****        26.0000  10.7500  -3.5000 Du        
    938 ****        26.0000  10.7500  -0.2500 Du        
    939 ****        26.0000  10.7500   0.0000 Du        
    940 ****        26.0000  10.7500   0.2500 Du        
    941 ****        26.2500   7.2500  -4.0000 Du        
    942 ****        26.2500   7.2500  -3.7500 Du        
    943 ****        26.2500   7.2500  -3.5000 Du        
    944 ****        26.2500   7.2500  -3.2500 Du        
    945 ****        26.2500   7.5000  -4.2500 Du        
    946 ****        26.2500   7.5000  -4.0000 Du        
    947 ****        26.2500   7.5000  -3.7500 Du        
    948 ****        26.2500   7.5000  -3.5000 Du        
    949 ****        26.2500   7.5000  -3.2500 Du        
    950 ****        26.2500   7.5000  -3.0000 Du        
    951 ****        26.2500   7.7500  -4.2500 Du        
    952 ****        26.2500   7.7500  -4.0000 Du        
    953 ****        26.2500   7.7500  -3.7500 Du        
    954 ****        26.2500   7.7500  -3.5000 Du        
    955 ****        26.2500   7.7500  -3.2500 Du        
    956 ****        26.2500   7.7500  -3.0000 Du        
    957 ****        26.2500   7.7500  -2.7500 Du        
    958 ****        26.2500   8.0000  -4.5000 Du        
    959 ****        26.2500   8.0000  -4.2500 Du        
    960 ****        26.2500   8.0000  -4.0000 Du        
    961 ****        26.2500   8.0000  -3.7500 Du        
    962 ****        26.2500   8.0000  -3.5000 Du        
    963 ****        26.2500   8.0000  -3.2500 Du        
    964 ****        26.2500   8.0000  -3.0000 Du        
    965 ****        26.2500   8.0000  -2.7500 Du        
    966 ****        26.2500   8.2500  -4.5000 Du        
    967 ****        26.2500   8.2500  -4.2500 Du        
    968 ****        26.2500   8.2500  -4.0000 Du        
    969 ****        26.2500   8.2500  -3.7500 Du        
    970 ****        26.2500   8.2500  -3.5000 Du        
    971 ****        26.2500   8.2500  -3.2500 Du        
    972 ****        26.2500   8.2500  -3.0000 Du        
    973 ****        26.2500   8.2500  -2.7500 Du        
    974 ****        26.2500   8.2500  -2.5000 Du        
    975 ****        26.2500   8.5000  -4.7500 Du        
    976 ****        26.2500   8.5000  -4.5000 Du        
    977 ****        26.2500   8.5000  -4.2500 Du        
    978 ****        26.2500   8.5000  -4.0000 Du        
    979 ****        26.2500   8.5000  -3.7500 Du        
    980 ****        26.2500   8.5000  -3.5000 Du        
    981 ****        26.2500   8.5000  -3.2500 Du        
    982 ****        26.2500   8.5000  -3.0000 Du        
    983 ****        26.2500   8.5000  -2.7500 Du        
    984 ****        26.2500   8.5000  -2.5000 Du        
    985 ****        26.2500   8.5000  -2.2500 Du        
    986 ****        26.2500   8.7500  -4.7500 Du        
    987 ****        26.2500   8.7500  -4.5000 Du        
    988 ****        26.2500   8.7500  -4.2500 Du        
    989 ****        26.2500   8.7500  -4.0000 Du        
    990 ****        26.2500   8.7500  -3.7500 Du        
    991 ****        26.2500   8.7500  -3.5000 Du        
    992 ****        26.2500   8.7500  -3.2500 Du        
    993 ****        26.2500   8.7500  -3.0000 Du        
    994 ****        26.2500   8.7500  -2.7500 Du        
    995 ****        26.2500   8.7500  -2.5000 Du        
    996 ****        26.2500   8.7500  -2.2500 Du        
    997 ****        26.2500   8.7500  -2.0000 Du        
    998 ****        26.2500   9.0000  -5.0000 Du        
    999 ****        26.2500   9.0000  -4.7500 Du        
   1000 ****        26.2500   9.0000  -4.5000 Du        
   1001 ****        26.2500   9.0000  -4.2500 Du        
   1002 ****        26.2500   9.0000  -4.0000 Du        
   1003 ****        26.2500   9.0000  -3.7500 Du        
   1004 ****        26.2500   9.0000  -3.5000 Du        
   1005 ****        26.2500   9.0000  -3.2500 Du        
   1006 ****        26.2500   9.0000  -3.0000 Du        
   1007 ****        26.2500   9.0000  -2.7500 Du        
   1008 ****        26.2500   9.0000  -2.5000 Du        
   1009 ****        26.2500   9.0000  -2.2500 Du        
   1010 ****        26.2500   9.0000  -2.0000 Du        
   1011 ****        26.2500   9.0000  -1.7500 Du        
   1012 ****        26.2500   9.0000  -1.5000 Du        
   1013 ****        26.2500   9.0000  -1.2500 Du        
   1014 ****        26.2500   9.2500  -5.0000 Du        
   1015 ****        26.2500   9.2500  -4.7500 Du        
   1016 ****        26.2500   9.2500  -4.5000 Du        
   1017 ****        26.2500   9.2500  -4.2500 Du        
   1018 ****        26.2500   9.2500  -4.0000 Du        
   1019 ****        26.2500   9.2500  -3.7500 Du        
   1020 ****        26.2500   9.2500  -3.5000 Du        
   1021 ****        26.2500   9.2500  -3.2500 Du        
   1022 ****        26.2500   9.2500  -3.0000 Du        
   1023 ****        26.2500   9.2500  -2.7500 Du        
   1024 ****        26.2500   9.2500  -2.5000 Du        
   1025 ****        26.2500   9.2500  -2.2500 Du        
   1026 ****        26.2500   9.2500  -2.0000 Du        
   1027 ****        26.2500   9.2500  -1.7500 Du        
   1028 ****        26.2500   9.2500  -1.5000 Du        
   1029 ****        26.2500   9.2500  -1.2500 Du        
   1030 ****        26.2500   9.2500  -1.0000 Du        
   1031 ****        26.2500   9.5000  -5.0000 Du        
   1032 ****        26.2500   9.5000  -4.7500 Du        
   1033 ****        26.2500   9.5000  -4.5000 Du        
   1034 ****        26.2500   9.5000  -4.2500 Du        
   1035 ****        26.2500   9.5000  -4.0000 Du        
   1036 ****        26.2500   9.5000  -3.7500 Du        
   1037 ****        26.2500   9.5000  -3.5000 Du        
   1038 ****        26.2500   9.5000  -3.2500 Du        
   1039 ****        26.2500   9.5000  -3.0000 Du        
   1040 ****        26.2500   9.5000  -2.7500 Du        
   1041 ****        26.2500   9.5000  -2.5000 Du        
   1042 ****        26.2500   9.5000  -2.2500 Du        
   1043 ****        26.2500   9.5000  -2.0000 Du        
   1044 ****        26.2500   9.5000  -1.7500 Du        
   1045 ****        26.2500   9.5000  -1.5000 Du        
   1046 ****        26.2500   9.5000  -1.2500 Du        
   1047 ****        26.2500   9.5000  -1.0000 Du        
   1048 ****        26.2500   9.5000  -0.7500 Du        
   1049 ****        26.2500   9.5000  -0.5000 Du        
   1050 ****        26.2500   9.7500  -4.7500 Du        
   1051 ****        26.2500   9.7500  -4.5000 Du        
   1052 ****        26.2500   9.7500  -4.2500 Du        
   1053 ****        26.2500   9.7500  -4.0000 Du        
   1054 ****        26.2500   9.7500  -3.7500 Du        
   1055 ****        26.2500   9.7500  -3.5000 Du        
   1056 ****        26.2500   9.7500  -3.2500 Du        
   1057 ****        26.2500   9.7500  -3.0000 Du        
   1058 ****        26.2500   9.7500  -2.7500 Du        
   1059 ****        26.2500   9.7500  -2.5000 Du        
   1060 ****        26.2500   9.7500  -2.2500 Du        
   1061 ****        26.2500   9.7500  -2.0000 Du        
   1062 ****        26.2500   9.7500  -1.7500 Du        
   1063 ****        26.2500   9.7500  -1.5000 Du        
   1064 ****        26.2500   9.7500  -1.2500 Du        
   1065 ****        26.2500   9.7500  -1.0000 Du        
   1066 ****        26.2500   9.7500  -0.7500 Du        
   1067 ****        26.2500   9.7500  -0.5000 Du        
   1068 ****        26.2500   9.7500  -0.2500 Du        
   1069 ****        26.2500   9.7500   0.0000 Du        
   1070 ****        26.2500  10.0000  -4.5000 Du        
   1071 ****        26.2500  10.0000  -4.2500 Du        
   1072 ****        26.2500  10.0000  -4.0000 Du        
   1073 ****        26.2500  10.0000  -3.7500 Du        
   1074 ****        26.2500  10.0000  -3.5000 Du        
   1075 ****        26.2500  10.0000  -3.2500 Du        
   1076 ****        26.2500  10.0000  -3.0000 Du        
   1077 ****        26.2500  10.0000  -2.7500 Du        
   1078 ****        26.2500  10.0000  -2.5000 Du        
   1079 ****        26.2500  10.0000  -2.2500 Du        
   1080 ****        26.2500  10.0000  -2.0000 Du        
   1081 ****        26.2500  10.0000  -1.7500 Du        
   1082 ****        26.2500  10.0000  -1.5000 Du        
   1083 ****        26.2500  10.0000  -1.2500 Du        
   1084 ****        26.2500  10.0000  -1.0000 Du        
   1085 ****        26.2500  10.0000  -0.7500 Du        
   1086 ****        26.2500  10.0000  -0.5000 Du        
   1087 ****        26.2500  10.0000  -0.2500 Du        
   1088 ****        26.2500  10.0000   0.0000 Du        
   1089 ****        26.2500  10.0000   0.2500 Du        
   1090 ****        26.2500  10.0000   0.5000 Du        
   1091 ****        26.2500  10.2500  -4.5000 Du        
   1092 ****        26.2500  10.2500  -4.2500 Du        
   1093 ****        26.2500  10.2500  -4.0000 Du        
   1094 ****        26.2500  10.2500  -3.7500 Du        
   1095 ****        26.2500  10.2500  -3.5000 Du        
   1096 ****        26.2500  10.2500  -3.2500 Du        
   1097 ****        26.2500  10.2500  -3.0000 Du        
   1098 ****        26.2500  10.2500  -2.7500 Du        
   1099 ****        26.2500  10.2500  -1.0000 Du        
   1100 ****        26.2500  10.2500  -0.7500 Du        
   1101 ****        26.2500  10.2500  -0.5000 Du        
   1102 ****        26.2500  10.2500  -0.2500 Du        
   1103 ****        26.2500  10.2500   0.0000 Du        
   1104 ****        26.2500  10.2500   0.2500 Du        
   1105 ****        26.2500  10.2500   0.5000 Du        
   1106 ****        26.2500  10.5000  -4.2500 Du        
   1107 ****        26.2500  10.5000  -4.0000 Du        
   1108 ****        26.2500  10.5000  -3.7500 Du        
   1109 ****        26.2500  10.5000  -3.5000 Du        
   1110 ****        26.2500  10.5000  -3.2500 Du        
   1111 ****        26.2500  10.5000  -0.5000 Du        
   1112 ****        26.2500  10.5000  -0.2500 Du        
   1113 ****        26.2500  10.5000   0.0000 Du        
   1114 ****        26.2500  10.5000   0.2500 Du        
   1115 ****        26.2500  10.5000   0.5000 Du        
   1116 ****        26.2500  10.7500   0.0000 Du        
   1117 ****        26.2500  10.7500   0.2500 Du        
   1118 ****        26.5000   7.2500  -4.0000 Du        
   1119 ****        26.5000   7.2500  -3.7500 Du        
   1120 ****        26.5000   7.2500  -3.5000 Du        
   1121 ****        26.5000   7.5000  -4.2500 Du        
   1122 ****        26.5000   7.5000  -4.0000 Du        
   1123 ****        26.5000   7.5000  -3.7500 Du        
   1124 ****        26.5000   7.5000  -3.5000 Du        
   1125 ****        26.5000   7.7500  -4.5000 Du        
   1126 ****        26.5000   7.7500  -4.2500 Du        
   1127 ****        26.5000   7.7500  -4.0000 Du        
   1128 ****        26.5000   7.7500  -3.7500 Du        
   1129 ****        26.5000   7.7500  -3.5000 Du        
   1130 ****        26.5000   7.7500  -3.2500 Du        
   1131 ****        26.5000   8.0000  -4.5000 Du        
   1132 ****        26.5000   8.0000  -4.2500 Du        
   1133 ****        26.5000   8.0000  -4.0000 Du        
   1134 ****        26.5000   8.0000  -3.7500 Du        
   1135 ****        26.5000   8.0000  -3.5000 Du        
   1136 ****        26.5000   8.0000  -3.2500 Du        
   1137 ****        26.5000   8.0000  -3.0000 Du        
   1138 ****        26.5000   8.2500  -4.5000 Du        
   1139 ****        26.5000   8.2500  -4.2500 Du        
   1140 ****        26.5000   8.2500  -4.0000 Du        
   1141 ****        26.5000   8.2500  -3.7500 Du        
   1142 ****        26.5000   8.2500  -3.5000 Du        
   1143 ****        26.5000   8.2500  -3.2500 Du        
   1144 ****        26.5000   8.2500  -3.0000 Du        
   1145 ****        26.5000   8.5000  -4.7500 Du        
   1146 ****        26.5000   8.5000  -4.5000 Du        
   1147 ****        26.5000   8.5000  -4.2500 Du        
   1148 ****        26.5000   8.5000  -4.0000 Du        
   1149 ****        26.5000   8.5000  -3.7500 Du        
   1150 ****        26.5000   8.5000  -3.5000 Du        
   1151 ****        26.5000   8.5000  -3.2500 Du        
   1152 ****        26.5000   8.5000  -3.0000 Du        
   1153 ****        26.5000   8.5000  -2.7500 Du        
   1154 ****        26.5000   8.7500  -5.0000 Du        
   1155 ****        26.5000   8.7500  -4.7500 Du        
   1156 ****        26.5000   8.7500  -4.5000 Du        
   1157 ****        26.5000   8.7500  -4.2500 Du        
   1158 ****        26.5000   8.7500  -4.0000 Du        
   1159 ****        26.5000   8.7500  -3.7500 Du        
   1160 ****        26.5000   8.7500  -3.5000 Du        
   1161 ****        26.5000   8.7500  -3.2500 Du        
   1162 ****        26.5000   8.7500  -3.0000 Du        
   1163 ****        26.5000   8.7500  -2.7500 Du        
   1164 ****        26.5000   8.7500  -2.5000 Du        
   1165 ****        26.5000   8.7500  -2.2500 Du        
   1166 ****        26.5000   9.0000  -5.0000 Du        
   1167 ****        26.5000   9.0000  -4.7500 Du        
   1168 ****        26.5000   9.0000  -4.5000 Du        
   1169 ****        26.5000   9.0000  -4.2500 Du        
   1170 ****        26.5000   9.0000  -4.0000 Du        
   1171 ****        26.5000   9.0000  -3.7500 Du        
   1172 ****        26.5000   9.0000  -3.5000 Du        
   1173 ****        26.5000   9.0000  -3.2500 Du        
   1174 ****        26.5000   9.0000  -3.0000 Du        
   1175 ****        26.5000   9.0000  -2.7500 Du        
   1176 ****        26.5000   9.0000  -2.5000 Du        
   1177 ****        26.5000   9.0000  -2.2500 Du        
   1178 ****        26.5000   9.0000  -2.0000 Du        
   1179 ****        26.5000   9.0000  -1.7500 Du        
   1180 ****        26.5000   9.2500  -5.2500 Du        
   1181 ****        26.5000   9.2500  -5.0000 Du        
   1182 ****        26.5000   9.2500  -4.7500 Du        
   1183 ****        26.5000   9.2500  -4.5000 Du        
   1184 ****        26.5000   9.2500  -4.2500 Du        
   1185 ****        26.5000   9.2500  -4.0000 Du        
   1186 ****        26.5000   9.2500  -3.7500 Du        
   1187 ****        26.5000   9.2500  -3.5000 Du        
   1188 ****        26.5000   9.2500  -3.2500 Du        
   1189 ****        26.5000   9.2500  -3.0000 Du        
   1190 ****        26.5000   9.2500  -2.7500 Du        
   1191 ****        26.5000   9.2500  -2.5000 Du        
   1192 ****        26.5000   9.2500  -2.2500 Du        
   1193 ****        26.5000   9.2500  -2.0000 Du        
   1194 ****        26.5000   9.2500  -1.7500 Du        
   1195 ****        26.5000   9.2500  -1.5000 Du        
   1196 ****        26.5000   9.2500  -1.2500 Du        
   1197 ****        26.5000   9.2500  -1.0000 Du        
   1198 ****        26.5000   9.5000  -5.0000 Du        
   1199 ****        26.5000   9.5000  -4.7500 Du        
   1200 ****        26.5000   9.5000  -4.5000 Du        
   1201 ****        26.5000   9.5000  -4.2500 Du        
   1202 ****        26.5000   9.5000  -4.0000 Du        
   1203 ****        26.5000   9.5000  -3.7500 Du        
   1204 ****        26.5000   9.5000  -3.5000 Du        
   1205 ****        26.5000   9.5000  -3.2500 Du        
   1206 ****        26.5000   9.5000  -3.0000 Du        
   1207 ****        26.5000   9.5000  -2.7500 Du        
   1208 ****        26.5000   9.5000  -2.5000 Du        
   1209 ****        26.5000   9.5000  -2.2500 Du        
   1210 ****        26.5000   9.5000  -2.0000 Du        
   1211 ****        26.5000   9.5000  -1.7500 Du        
   1212 ****        26.5000   9.5000  -1.5000 Du        
   1213 ****        26.5000   9.5000  -1.2500 Du        
   1214 ****        26.5000   9.5000  -1.0000 Du        
   1215 ****        26.5000   9.5000  -0.7500 Du        
   1216 ****        26.5000   9.5000  -0.5000 Du        
   1217 ****        26.5000   9.7500  -5.0000 Du        
   1218 ****        26.5000   9.7500  -4.7500 Du        
   1219 ****        26.5000   9.7500  -4.5000 Du        
   1220 ****        26.5000   9.7500  -4.2500 Du        
   1221 ****        26.5000   9.7500  -4.0000 Du        
   1222 ****        26.5000   9.7500  -3.7500 Du        
   1223 ****        26.5000   9.7500  -3.5000 Du        
   1224 ****        26.5000   9.7500  -3.2500 Du        
   1225 ****        26.5000   9.7500  -3.0000 Du        
   1226 ****        26.5000   9.7500  -2.7500 Du        
   1227 ****        26.5000   9.7500  -2.5000 Du        
   1228 ****        26.5000   9.7500  -2.2500 Du        
   1229 ****        26.5000   9.7500  -2.0000 Du        
   1230 ****        26.5000   9.7500  -1.7500 Du        
   1231 ****        26.5000   9.7500  -1.5000 Du        
   1232 ****        26.5000   9.7500  -1.2500 Du        
   1233 ****        26.5000   9.7500  -1.0000 Du        
   1234 ****        26.5000   9.7500  -0.7500 Du        
   1235 ****        26.5000   9.7500  -0.5000 Du        
   1236 ****        26.5000   9.7500  -0.2500 Du        
   1237 ****        26.5000   9.7500   0.0000 Du        
   1238 ****        26.5000  10.0000  -4.7500 Du        
   1239 ****        26.5000  10.0000  -4.5000 Du        
   1240 ****        26.5000  10.0000  -4.2500 Du        
   1241 ****        26.5000  10.0000  -4.0000 Du        
   1242 ****        26.5000  10.0000  -3.7500 Du        
   1243 ****        26.5000  10.0000  -3.5000 Du        
   1244 ****        26.5000  10.0000  -3.2500 Du        
   1245 ****        26.5000  10.0000  -3.0000 Du        
   1246 ****        26.5000  10.0000  -2.7500 Du        
   1247 ****        26.5000  10.0000  -2.5000 Du        
   1248 ****        26.5000  10.0000  -2.2500 Du        
   1249 ****        26.5000  10.0000  -2.0000 Du        
   1250 ****        26.5000  10.0000  -1.7500 Du        
   1251 ****        26.5000  10.0000  -1.5000 Du        
   1252 ****        26.5000  10.0000  -1.2500 Du        
   1253 ****        26.5000  10.0000  -1.0000 Du        
   1254 ****        26.5000  10.0000  -0.7500 Du        
   1255 ****        26.5000  10.0000  -0.5000 Du        
   1256 ****        26.5000  10.0000  -0.2500 Du        
   1257 ****        26.5000  10.0000   0.0000 Du        
   1258 ****        26.5000  10.0000   0.2500 Du        
   1259 ****        26.5000  10.0000   0.5000 Du        
   1260 ****        26.5000  10.2500  -4.5000 Du        
   1261 ****        26.5000  10.2500  -4.2500 Du        
   1262 ****        26.5000  10.2500  -4.0000 Du        
   1263 ****        26.5000  10.2500  -3.7500 Du        
   1264 ****        26.5000  10.2500  -3.5000 Du        
   1265 ****        26.5000  10.2500  -3.2500 Du        
   1266 ****        26.5000  10.2500  -3.0000 Du        
   1267 ****        26.5000  10.2500  -0.7500 Du        
   1268 ****        26.5000  10.2500  -0.5000 Du        
   1269 ****        26.5000  10.2500  -0.2500 Du        
   1270 ****        26.5000  10.2500   0.0000 Du        
   1271 ****        26.5000  10.2500   0.2500 Du        
   1272 ****        26.5000  10.2500   0.5000 Du        
   1273 ****        26.5000  10.5000  -4.2500 Du        
   1274 ****        26.5000  10.5000  -4.0000 Du        
   1275 ****        26.5000  10.5000  -3.7500 Du        
   1276 ****        26.5000  10.5000  -3.5000 Du        
   1277 ****        26.5000  10.5000  -0.2500 Du        
   1278 ****        26.5000  10.5000   0.0000 Du        
   1279 ****        26.5000  10.5000   0.2500 Du        
   1280 ****        26.5000  10.5000   0.5000 Du        
   1281 ****        26.5000  10.7500  -4.0000 Du        
   1282 ****        26.7500   7.2500  -4.0000 Du        
   1283 ****        26.7500   7.5000  -4.2500 Du        
   1284 ****        26.7500   7.5000  -4.0000 Du        
   1285 ****        26.7500   7.5000  -3.7500 Du        
   1286 ****        26.7500   7.7500  -4.5000 Du        
   1287 ****        26.7500   7.7500  -4.2500 Du        
   1288 ****        26.7500   7.7500  -4.0000 Du        
   1289 ****        26.7500   7.7500  -3.7500 Du        
   1290 ****        26.7500   7.7500  -3.5000 Du        
   1291 ****        26.7500   8.0000  -4.5000 Du        
   1292 ****        26.7500   8.0000  -4.2500 Du        
   1293 ****        26.7500   8.0000  -4.0000 Du        
   1294 ****        26.7500   8.0000  -3.7500 Du        
   1295 ****        26.7500   8.0000  -3.5000 Du        
   1296 ****        26.7500   8.2500  -4.7500 Du        
   1297 ****        26.7500   8.2500  -4.5000 Du        
   1298 ****        26.7500   8.2500  -4.2500 Du        
   1299 ****        26.7500   8.2500  -4.0000 Du        
   1300 ****        26.7500   8.2500  -3.7500 Du        
   1301 ****        26.7500   8.2500  -3.5000 Du        
   1302 ****        26.7500   8.2500  -3.2500 Du        
   1303 ****        26.7500   8.5000  -4.7500 Du        
   1304 ****        26.7500   8.5000  -4.5000 Du        
   1305 ****        26.7500   8.5000  -4.2500 Du        
   1306 ****        26.7500   8.5000  -4.0000 Du        
   1307 ****        26.7500   8.5000  -3.7500 Du        
   1308 ****        26.7500   8.5000  -3.5000 Du        
   1309 ****        26.7500   8.5000  -3.2500 Du        
   1310 ****        26.7500   8.5000  -3.0000 Du        
   1311 ****        26.7500   8.7500  -5.0000 Du        
   1312 ****        26.7500   8.7500  -4.7500 Du        
   1313 ****        26.7500   8.7500  -4.5000 Du        
   1314 ****        26.7500   8.7500  -4.2500 Du        
   1315 ****        26.7500   8.7500  -4.0000 Du        
   1316 ****        26.7500   8.7500  -3.7500 Du        
   1317 ****        26.7500   8.7500  -3.5000 Du        
   1318 ****        26.7500   8.7500  -3.2500 Du        
   1319 ****        26.7500   8.7500  -3.0000 Du        
   1320 ****        26.7500   8.7500  -2.7500 Du        
   1321 ****        26.7500   9.0000  -5.2500 Du        
   1322 ****        26.7500   9.0000  -5.0000 Du        
   1323 ****        26.7500   9.0000  -4.7500 Du        
   1324 ****        26.7500   9.0000  -4.5000 Du        
   1325 ****        26.7500   9.0000  -4.2500 Du        
   1326 ****        26.7500   9.0000  -4.0000 Du        
   1327 ****        26.7500   9.0000  -3.7500 Du        
   1328 ****        26.7500   9.0000  -3.5000 Du        
   1329 ****        26.7500   9.0000  -3.2500 Du        
   1330 ****        26.7500   9.0000  -3.0000 Du        
   1331 ****        26.7500   9.0000  -2.7500 Du        
   1332 ****        26.7500   9.0000  -2.5000 Du        
   1333 ****        26.7500   9.0000  -2.2500 Du        
   1334 ****        26.7500   9.2500  -5.2500 Du        
   1335 ****        26.7500   9.2500  -5.0000 Du        
   1336 ****        26.7500   9.2500  -4.7500 Du        
   1337 ****        26.7500   9.2500  -4.5000 Du        
   1338 ****        26.7500   9.2500  -4.2500 Du        
   1339 ****        26.7500   9.2500  -4.0000 Du        
   1340 ****        26.7500   9.2500  -3.7500 Du        
   1341 ****        26.7500   9.2500  -3.5000 Du        
   1342 ****        26.7500   9.2500  -3.2500 Du        
   1343 ****        26.7500   9.2500  -3.0000 Du        
   1344 ****        26.7500   9.2500  -2.7500 Du        
   1345 ****        26.7500   9.2500  -2.5000 Du        
   1346 ****        26.7500   9.2500  -2.2500 Du        
   1347 ****        26.7500   9.2500  -2.0000 Du        
   1348 ****        26.7500   9.2500  -1.7500 Du        
   1349 ****        26.7500   9.5000  -5.2500 Du        
   1350 ****        26.7500   9.5000  -5.0000 Du        
   1351 ****        26.7500   9.5000  -4.7500 Du        
   1352 ****        26.7500   9.5000  -4.5000 Du        
   1353 ****        26.7500   9.5000  -4.2500 Du        
   1354 ****        26.7500   9.5000  -4.0000 Du        
   1355 ****        26.7500   9.5000  -3.7500 Du        
   1356 ****        26.7500   9.5000  -3.5000 Du        
   1357 ****        26.7500   9.5000  -3.2500 Du        
   1358 ****        26.7500   9.5000  -3.0000 Du        
   1359 ****        26.7500   9.5000  -2.7500 Du        
   1360 ****        26.7500   9.5000  -2.5000 Du        
   1361 ****        26.7500   9.5000  -2.2500 Du        
   1362 ****        26.7500   9.5000  -2.0000 Du        
   1363 ****        26.7500   9.5000  -1.7500 Du        
   1364 ****        26.7500   9.5000  -1.5000 Du        
   1365 ****        26.7500   9.5000  -1.2500 Du        
   1366 ****        26.7500   9.5000  -1.0000 Du        
   1367 ****        26.7500   9.5000  -0.7500 Du        
   1368 ****        26.7500   9.5000  -0.5000 Du        
   1369 ****        26.7500   9.5000  -0.2500 Du        
   1370 ****        26.7500   9.7500  -5.2500 Du        
   1371 ****        26.7500   9.7500  -5.0000 Du        
   1372 ****        26.7500   9.7500  -4.7500 Du        
   1373 ****        26.7500   9.7500  -4.5000 Du        
   1374 ****        26.7500   9.7500  -4.2500 Du        
   1375 ****        26.7500   9.7500  -4.0000 Du        
   1376 ****        26.7500   9.7500  -3.7500 Du        
   1377 ****        26.7500   9.7500  -3.5000 Du        
   1378 ****        26.7500   9.7500  -3.2500 Du        
   1379 ****        26.7500   9.7500  -3.0000 Du        
   1380 ****        26.7500   9.7500  -2.7500 Du        
   1381 ****        26.7500   9.7500  -2.5000 Du        
   1382 ****        26.7500   9.7500  -2.2500 Du        
   1383 ****        26.7500   9.7500  -2.0000 Du        
   1384 ****        26.7500   9.7500  -1.7500 Du        
   1385 ****        26.7500   9.7500  -1.5000 Du        
   1386 ****        26.7500   9.7500  -1.2500 Du        
   1387 ****        26.7500   9.7500  -1.0000 Du        
   1388 ****        26.7500   9.7500  -0.7500 Du        
   1389 ****        26.7500   9.7500  -0.5000 Du        
   1390 ****        26.7500   9.7500  -0.2500 Du        
   1391 ****        26.7500   9.7500   0.0000 Du        
   1392 ****        26.7500   9.7500   0.2500 Du        
   1393 ****        26.7500  10.0000  -5.0000 Du        
   1394 ****        26.7500  10.0000  -4.7500 Du        
   1395 ****        26.7500  10.0000  -4.5000 Du        
   1396 ****        26.7500  10.0000  -4.2500 Du        
   1397 ****        26.7500  10.0000  -4.0000 Du        
   1398 ****        26.7500  10.0000  -3.7500 Du        
   1399 ****        26.7500  10.0000  -3.5000 Du        
   1400 ****        26.7500  10.0000  -3.2500 Du        
   1401 ****        26.7500  10.0000  -3.0000 Du        
   1402 ****        26.7500  10.0000  -2.7500 Du        
   1403 ****        26.7500  10.0000  -1.0000 Du        
   1404 ****        26.7500  10.0000  -0.7500 Du        
   1405 ****        26.7500  10.0000  -0.5000 Du        
   1406 ****        26.7500  10.0000  -0.2500 Du        
   1407 ****        26.7500  10.0000   0.0000 Du        
   1408 ****        26.7500  10.0000   0.2500 Du        
   1409 ****        26.7500  10.0000   0.5000 Du        
   1410 ****        26.7500  10.2500  -4.7500 Du        
   1411 ****        26.7500  10.2500  -4.5000 Du        
   1412 ****        26.7500  10.2500  -4.2500 Du        
   1413 ****        26.7500  10.2500  -4.0000 Du        
   1414 ****        26.7500  10.2500  -3.7500 Du        
   1415 ****        26.7500  10.2500  -3.5000 Du        
   1416 ****        26.7500  10.2500  -3.2500 Du        
   1417 ****        26.7500  10.2500  -0.5000 Du        
   1418 ****        26.7500  10.2500  -0.2500 Du        
   1419 ****        26.7500  10.2500   0.0000 Du        
   1420 ****        26.7500  10.2500   0.2500 Du        
   1421 ****        26.7500  10.2500   0.5000 Du        
   1422 ****        26.7500  10.2500   0.7500 Du        
   1423 ****        26.7500  10.5000  -4.5000 Du        
   1424 ****        26.7500  10.5000  -4.2500 Du        
   1425 ****        26.7500  10.5000  -4.0000 Du        
   1426 ****        26.7500  10.5000  -3.7500 Du        
   1427 ****        26.7500  10.5000   0.0000 Du        
   1428 ****        26.7500  10.5000   0.2500 Du        
   1429 ****        26.7500  10.5000   0.5000 Du        
   1430 ****        26.7500  10.7500  -4.2500 Du        
   1431 ****        26.7500  10.7500  -4.0000 Du        
   1432 ****        27.0000   7.7500  -4.2500 Du        
   1433 ****        27.0000   7.7500  -4.0000 Du        
   1434 ****        27.0000   8.0000  -4.5000 Du        
   1435 ****        27.0000   8.0000  -4.2500 Du        
   1436 ****        27.0000   8.0000  -4.0000 Du        
   1437 ****        27.0000   8.0000  -3.7500 Du        
   1438 ****        27.0000   8.2500  -4.7500 Du        
   1439 ****        27.0000   8.2500  -4.5000 Du        
   1440 ****        27.0000   8.2500  -4.2500 Du        
   1441 ****        27.0000   8.2500  -4.0000 Du        
   1442 ****        27.0000   8.2500  -3.7500 Du        
   1443 ****        27.0000   8.5000  -5.0000 Du        
   1444 ****        27.0000   8.5000  -4.7500 Du        
   1445 ****        27.0000   8.5000  -4.5000 Du        
   1446 ****        27.0000   8.5000  -4.2500 Du        
   1447 ****        27.0000   8.5000  -4.0000 Du        
   1448 ****        27.0000   8.5000  -3.7500 Du        
   1449 ****        27.0000   8.5000  -3.5000 Du        
   1450 ****        27.0000   8.7500  -5.0000 Du        
   1451 ****        27.0000   8.7500  -4.7500 Du        
   1452 ****        27.0000   8.7500  -4.5000 Du        
   1453 ****        27.0000   8.7500  -4.2500 Du        
   1454 ****        27.0000   8.7500  -4.0000 Du        
   1455 ****        27.0000   8.7500  -3.7500 Du        
   1456 ****        27.0000   8.7500  -3.5000 Du        
   1457 ****        27.0000   8.7500  -3.2500 Du        
   1458 ****        27.0000   9.0000  -5.2500 Du        
   1459 ****        27.0000   9.0000  -5.0000 Du        
   1460 ****        27.0000   9.0000  -4.7500 Du        
   1461 ****        27.0000   9.0000  -4.5000 Du        
   1462 ****        27.0000   9.0000  -4.2500 Du        
   1463 ****        27.0000   9.0000  -4.0000 Du        
   1464 ****        27.0000   9.0000  -3.7500 Du        
   1465 ****        27.0000   9.0000  -3.5000 Du        
   1466 ****        27.0000   9.0000  -3.2500 Du        
   1467 ****        27.0000   9.0000  -3.0000 Du        
   1468 ****        27.0000   9.0000  -2.7500 Du        
   1469 ****        27.0000   9.2500  -5.5000 Du        
   1470 ****        27.0000   9.2500  -5.2500 Du        
   1471 ****        27.0000   9.2500  -5.0000 Du        
   1472 ****        27.0000   9.2500  -4.7500 Du        
   1473 ****        27.0000   9.2500  -4.5000 Du        
   1474 ****        27.0000   9.2500  -4.2500 Du        
   1475 ****        27.0000   9.2500  -4.0000 Du        
   1476 ****        27.0000   9.2500  -3.7500 Du        
   1477 ****        27.0000   9.2500  -3.5000 Du        
   1478 ****        27.0000   9.2500  -3.2500 Du        
   1479 ****        27.0000   9.2500  -3.0000 Du        
   1480 ****        27.0000   9.2500  -2.7500 Du        
   1481 ****        27.0000   9.2500  -2.5000 Du        
   1482 ****        27.0000   9.5000  -5.7500 Du        
   1483 ****        27.0000   9.5000  -5.5000 Du        
   1484 ****        27.0000   9.5000  -5.2500 Du        
   1485 ****        27.0000   9.5000  -5.0000 Du        
   1486 ****        27.0000   9.5000  -4.7500 Du        
   1487 ****        27.0000   9.5000  -4.5000 Du        
   1488 ****        27.0000   9.5000  -4.2500 Du        
   1489 ****        27.0000   9.5000  -4.0000 Du        
   1490 ****        27.0000   9.5000  -3.7500 Du        
   1491 ****        27.0000   9.5000  -3.5000 Du        
   1492 ****        27.0000   9.5000  -3.2500 Du        
   1493 ****        27.0000   9.5000  -3.0000 Du        
   1494 ****        27.0000   9.5000  -2.7500 Du        
   1495 ****        27.0000   9.5000  -2.5000 Du        
   1496 ****        27.0000   9.5000  -2.2500 Du        
   1497 ****        27.0000   9.5000  -2.0000 Du        
   1498 ****        27.0000   9.5000  -1.7500 Du        
   1499 ****        27.0000   9.5000  -1.5000 Du        
   1500 ****        27.0000   9.5000  -1.2500 Du        
   1501 ****        27.0000   9.5000  -1.0000 Du        
   1502 ****        27.0000   9.5000  -0.7500 Du        
   1503 ****        27.0000   9.5000  -0.5000 Du        
   1504 ****        27.0000   9.7500  -5.5000 Du        
   1505 ****        27.0000   9.7500  -5.2500 Du        
   1506 ****        27.0000   9.7500  -5.0000 Du        
   1507 ****        27.0000   9.7500  -4.7500 Du        
   1508 ****        27.0000   9.7500  -4.5000 Du        
   1509 ****        27.0000   9.7500  -4.2500 Du        
   1510 ****        27.0000   9.7500  -4.0000 Du        
   1511 ****        27.0000   9.7500  -3.7500 Du        
   1512 ****        27.0000   9.7500  -3.5000 Du        
   1513 ****        27.0000   9.7500  -3.2500 Du        
   1514 ****        27.0000   9.7500  -3.0000 Du        
   1515 ****        27.0000   9.7500  -2.7500 Du        
   1516 ****        27.0000   9.7500  -2.5000 Du        
   1517 ****        27.0000   9.7500  -2.2500 Du        
   1518 ****        27.0000   9.7500  -2.0000 Du        
   1519 ****        27.0000   9.7500  -1.7500 Du        
   1520 ****        27.0000   9.7500  -1.5000 Du        
   1521 ****        27.0000   9.7500  -1.2500 Du        
   1522 ****        27.0000   9.7500  -1.0000 Du        
   1523 ****        27.0000   9.7500  -0.7500 Du        
   1524 ****        27.0000   9.7500  -0.5000 Du        
   1525 ****        27.0000   9.7500  -0.2500 Du        
   1526 ****        27.0000   9.7500   0.0000 Du        
   1527 ****        27.0000   9.7500   0.2500 Du        
   1528 ****        27.0000  10.0000  -5.2500 Du        
   1529 ****        27.0000  10.0000  -5.0000 Du        
   1530 ****        27.0000  10.0000  -4.7500 Du        
   1531 ****        27.0000  10.0000  -4.5000 Du        
   1532 ****        27.0000  10.0000  -4.2500 Du        
   1533 ****        27.0000  10.0000  -4.0000 Du        
   1534 ****        27.0000  10.0000  -3.7500 Du        
   1535 ****        27.0000  10.0000  -3.5000 Du        
   1536 ****        27.0000  10.0000  -3.2500 Du        
   1537 ****        27.0000  10.0000  -3.0000 Du        
   1538 ****        27.0000  10.0000  -0.7500 Du        
   1539 ****        27.0000  10.0000  -0.5000 Du        
   1540 ****        27.0000  10.0000  -0.2500 Du        
   1541 ****        27.0000  10.0000   0.0000 Du        
   1542 ****        27.0000  10.0000   0.2500 Du        
   1543 ****        27.0000  10.0000   0.5000 Du        
   1544 ****        27.0000  10.0000   0.7500 Du        
   1545 ****        27.0000  10.2500  -5.0000 Du        
   1546 ****        27.0000  10.2500  -4.7500 Du        
   1547 ****        27.0000  10.2500  -4.5000 Du        
   1548 ****        27.0000  10.2500  -4.2500 Du        
   1549 ****        27.0000  10.2500  -4.0000 Du        
   1550 ****        27.0000  10.2500  -3.7500 Du        
   1551 ****        27.0000  10.2500  -3.5000 Du        
   1552 ****        27.0000  10.2500  -3.2500 Du        
   1553 ****        27.0000  10.2500  -0.2500 Du        
   1554 ****        27.0000  10.2500   0.0000 Du        
   1555 ****        27.0000  10.2500   0.2500 Du        
   1556 ****        27.0000  10.2500   0.5000 Du        
   1557 ****        27.0000  10.2500   0.7500 Du        
   1558 ****        27.0000  10.5000  -4.7500 Du        
   1559 ****        27.0000  10.5000  -4.5000 Du        
   1560 ****        27.0000  10.5000  -4.2500 Du        
   1561 ****        27.0000  10.5000  -4.0000 Du        
   1562 ****        27.0000  10.5000  -3.7500 Du        
   1563 ****        27.0000  10.5000   0.0000 Du        
   1564 ****        27.0000  10.5000   0.2500 Du        
   1565 ****        27.0000  10.5000   0.5000 Du        
   1566 ****        27.0000  10.7500  -4.7500 Du        
   1567 ****        27.0000  10.7500  -4.5000 Du        
   1568 ****        27.0000  10.7500  -4.2500 Du        
   1569 ****        27.2500   8.2500  -4.7500 Du        
   1570 ****        27.2500   8.2500  -4.5000 Du        
   1571 ****        27.2500   8.2500  -4.2500 Du        
   1572 ****        27.2500   8.2500  -4.0000 Du        
   1573 ****        27.2500   8.5000  -5.0000 Du        
   1574 ****        27.2500   8.5000  -4.7500 Du        
   1575 ****        27.2500   8.5000  -4.5000 Du        
   1576 ****        27.2500   8.5000  -4.2500 Du        
   1577 ****        27.2500   8.5000  -4.0000 Du        
   1578 ****        27.2500   8.5000  -3.7500 Du        
   1579 ****        27.2500   8.7500  -5.2500 Du        
   1580 ****        27.2500   8.7500  -5.0000 Du        
   1581 ****        27.2500   8.7500  -4.7500 Du        
   1582 ****        27.2500   8.7500  -4.5000 Du        
   1583 ****        27.2500   8.7500  -4.2500 Du        
   1584 ****        27.2500   8.7500  -4.0000 Du        
   1585 ****        27.2500   8.7500  -3.7500 Du        
   1586 ****        27.2500   8.7500  -3.5000 Du        
   1587 ****        27.2500   9.0000  -5.5000 Du        
   1588 ****        27.2500   9.0000  -5.2500 Du        
   1589 ****        27.2500   9.0000  -5.0000 Du        
   1590 ****        27.2500   9.0000  -4.7500 Du        
   1591 ****        27.2500   9.0000  -4.5000 Du        
   1592 ****        27.2500   9.0000  -4.2500 Du        
   1593 ****        27.2500   9.0000  -4.0000 Du        
   1594 ****        27.2500   9.0000  -3.7500 Du        
   1595 ****        27.2500   9.0000  -3.5000 Du        
   1596 ****        27.2500   9.0000  -3.2500 Du        
   1597 ****        27.2500   9.2500  -5.7500 Du        
   1598 ****        27.2500   9.2500  -5.5000 Du        
   1599 ****        27.2500   9.2500  -5.2500 Du        
   1600 ****        27.2500   9.2500  -5.0000 Du        
   1601 ****        27.2500   9.2500  -4.7500 Du        
   1602 ****        27.2500   9.2500  -4.5000 Du        
   1603 ****        27.2500   9.2500  -4.2500 Du        
   1604 ****        27.2500   9.2500  -4.0000 Du        
   1605 ****        27.2500   9.2500  -3.7500 Du        
   1606 ****        27.2500   9.2500  -3.5000 Du        
   1607 ****        27.2500   9.2500  -3.2500 Du        
   1608 ****        27.2500   9.2500  -3.0000 Du        
   1609 ****        27.2500   9.5000  -5.7500 Du        
   1610 ****        27.2500   9.5000  -5.5000 Du        
   1611 ****        27.2500   9.5000  -5.2500 Du        
   1612 ****        27.2500   9.5000  -5.0000 Du        
   1613 ****        27.2500   9.5000  -4.7500 Du        
   1614 ****        27.2500   9.5000  -4.5000 Du        
   1615 ****        27.2500   9.5000  -4.2500 Du        
   1616 ****        27.2500   9.5000  -4.0000 Du        
   1617 ****        27.2500   9.5000  -3.7500 Du        
   1618 ****        27.2500   9.5000  -3.5000 Du        
   1619 ****        27.2500   9.5000  -3.2500 Du        
   1620 ****        27.2500   9.5000  -3.0000 Du        
   1621 ****        27.2500   9.5000  -2.7500 Du        
   1622 ****        27.2500   9.7500  -5.7500 Du        
   1623 ****        27.2500   9.7500  -5.5000 Du        
   1624 ****        27.2500   9.7500  -5.2500 Du        
   1625 ****        27.2500   9.7500  -5.0000 Du        
   1626 ****        27.2500   9.7500  -4.7500 Du        
   1627 ****        27.2500   9.7500  -4.5000 Du        
   1628 ****        27.2500   9.7500  -4.2500 Du        
   1629 ****        27.2500   9.7500  -4.0000 Du        
   1630 ****        27.2500   9.7500  -3.7500 Du        
   1631 ****        27.2500   9.7500  -3.5000 Du        
   1632 ****        27.2500   9.7500  -3.2500 Du        
   1633 ****        27.2500   9.7500  -3.0000 Du        
   1634 ****        27.2500   9.7500  -2.7500 Du        
   1635 ****        27.2500   9.7500  -1.0000 Du        
   1636 ****        27.2500   9.7500  -0.7500 Du        
   1637 ****        27.2500   9.7500  -0.5000 Du        
   1638 ****        27.2500   9.7500  -0.2500 Du        
   1639 ****        27.2500   9.7500   0.0000 Du        
   1640 ****        27.2500   9.7500   0.2500 Du        
   1641 ****        27.2500  10.0000  -5.7500 Du        
   1642 ****        27.2500  10.0000  -5.5000 Du        
   1643 ****        27.2500  10.0000  -5.2500 Du        
   1644 ****        27.2500  10.0000  -5.0000 Du        
   1645 ****        27.2500  10.0000  -4.7500 Du        
   1646 ****        27.2500  10.0000  -4.5000 Du        
   1647 ****        27.2500  10.0000  -4.2500 Du        
   1648 ****        27.2500  10.0000  -4.0000 Du        
   1649 ****        27.2500  10.0000  -3.7500 Du        
   1650 ****        27.2500  10.0000  -3.5000 Du        
   1651 ****        27.2500  10.0000  -3.2500 Du        
   1652 ****        27.2500  10.0000  -3.0000 Du        
   1653 ****        27.2500  10.0000  -0.5000 Du        
   1654 ****        27.2500  10.0000  -0.2500 Du        
   1655 ****        27.2500  10.0000   0.0000 Du        
   1656 ****        27.2500  10.0000   0.2500 Du        
   1657 ****        27.2500  10.0000   0.5000 Du        
   1658 ****        27.2500  10.0000   0.7500 Du        
   1659 ****        27.2500  10.2500  -5.5000 Du        
   1660 ****        27.2500  10.2500  -5.2500 Du        
   1661 ****        27.2500  10.2500  -5.0000 Du        
   1662 ****        27.2500  10.2500  -4.7500 Du        
   1663 ****        27.2500  10.2500  -4.5000 Du        
   1664 ****        27.2500  10.2500  -4.2500 Du        
   1665 ****        27.2500  10.2500  -4.0000 Du        
   1666 ****        27.2500  10.2500  -3.7500 Du        
   1667 ****        27.2500  10.2500  -3.5000 Du        
   1668 ****        27.2500  10.2500  -0.2500 Du        
   1669 ****        27.2500  10.2500   0.0000 Du        
   1670 ****        27.2500  10.2500   0.2500 Du        
   1671 ****        27.2500  10.2500   0.5000 Du        
   1672 ****        27.2500  10.2500   0.7500 Du        
   1673 ****        27.2500  10.5000  -5.2500 Du        
   1674 ****        27.2500  10.5000  -5.0000 Du        
   1675 ****        27.2500  10.5000  -4.7500 Du        
   1676 ****        27.2500  10.5000  -4.5000 Du        
   1677 ****        27.2500  10.5000  -4.2500 Du        
   1678 ****        27.2500  10.5000  -4.0000 Du        
   1679 ****        27.2500  10.5000  -3.7500 Du        
   1680 ****        27.2500  10.5000   0.2500 Du        
   1681 ****        27.2500  10.5000   0.5000 Du        
   1682 ****        27.2500  10.7500  -5.0000 Du        
   1683 ****        27.2500  10.7500  -4.7500 Du        
   1684 ****        27.2500  10.7500  -4.5000 Du        
   1685 ****        27.2500  10.7500  -4.2500 Du        
   1686 ****        27.5000   8.5000  -4.2500 Du        
   1687 ****        27.5000   8.7500  -5.2500 Du        
   1688 ****        27.5000   8.7500  -5.0000 Du        
   1689 ****        27.5000   8.7500  -4.7500 Du        
   1690 ****        27.5000   8.7500  -4.5000 Du        
   1691 ****        27.5000   8.7500  -4.2500 Du        
   1692 ****        27.5000   8.7500  -4.0000 Du        
   1693 ****        27.5000   8.7500  -3.7500 Du        
   1694 ****        27.5000   9.0000  -5.5000 Du        
   1695 ****        27.5000   9.0000  -5.2500 Du        
   1696 ****        27.5000   9.0000  -5.0000 Du        
   1697 ****        27.5000   9.0000  -4.7500 Du        
   1698 ****        27.5000   9.0000  -4.5000 Du        
   1699 ****        27.5000   9.0000  -4.2500 Du        
   1700 ****        27.5000   9.0000  -4.0000 Du        
   1701 ****        27.5000   9.0000  -3.7500 Du        
   1702 ****        27.5000   9.0000  -3.5000 Du        
   1703 ****        27.5000   9.2500  -5.7500 Du        
   1704 ****        27.5000   9.2500  -5.5000 Du        
   1705 ****        27.5000   9.2500  -5.2500 Du        
   1706 ****        27.5000   9.2500  -5.0000 Du        
   1707 ****        27.5000   9.2500  -4.7500 Du        
   1708 ****        27.5000   9.2500  -4.5000 Du        
   1709 ****        27.5000   9.2500  -4.2500 Du        
   1710 ****        27.5000   9.2500  -4.0000 Du        
   1711 ****        27.5000   9.2500  -3.7500 Du        
   1712 ****        27.5000   9.2500  -3.5000 Du        
   1713 ****        27.5000   9.2500  -3.2500 Du        
   1714 ****        27.5000   9.5000  -5.7500 Du        
   1715 ****        27.5000   9.5000  -5.5000 Du        
   1716 ****        27.5000   9.5000  -5.2500 Du        
   1717 ****        27.5000   9.5000  -5.0000 Du        
   1718 ****        27.5000   9.5000  -4.7500 Du        
   1719 ****        27.5000   9.5000  -4.5000 Du        
   1720 ****        27.5000   9.5000  -4.2500 Du        
   1721 ****        27.5000   9.5000  -4.0000 Du        
   1722 ****        27.5000   9.5000  -3.7500 Du        
   1723 ****        27.5000   9.5000  -3.5000 Du        
   1724 ****        27.5000   9.5000  -3.2500 Du        
   1725 ****        27.5000   9.5000  -3.0000 Du        
   1726 ****        27.5000   9.5000  -2.7500 Du        
   1727 ****        27.5000   9.7500  -5.7500 Du        
   1728 ****        27.5000   9.7500  -5.5000 Du        
   1729 ****        27.5000   9.7500  -5.2500 Du        
   1730 ****        27.5000   9.7500  -5.0000 Du        
   1731 ****        27.5000   9.7500  -4.7500 Du        
   1732 ****        27.5000   9.7500  -4.5000 Du        
   1733 ****        27.5000   9.7500  -4.2500 Du        
   1734 ****        27.5000   9.7500  -4.0000 Du        
   1735 ****        27.5000   9.7500  -3.7500 Du        
   1736 ****        27.5000   9.7500  -3.5000 Du        
   1737 ****        27.5000   9.7500  -3.2500 Du        
   1738 ****        27.5000   9.7500  -3.0000 Du        
   1739 ****        27.5000   9.7500  -2.7500 Du        
   1740 ****        27.5000  10.0000  -5.7500 Du        
   1741 ****        27.5000  10.0000  -5.5000 Du        
   1742 ****        27.5000  10.0000  -5.2500 Du        
   1743 ****        27.5000  10.0000  -5.0000 Du        
   1744 ****        27.5000  10.0000  -4.7500 Du        
   1745 ****        27.5000  10.0000  -4.5000 Du        
   1746 ****        27.5000  10.0000  -4.2500 Du        
   1747 ****        27.5000  10.0000  -4.0000 Du        
   1748 ****        27.5000  10.0000  -3.7500 Du        
   1749 ****        27.5000  10.0000  -3.5000 Du        
   1750 ****        27.5000  10.0000  -3.2500 Du        
   1751 ****        27.5000  10.0000  -3.0000 Du        
   1752 ****        27.5000  10.0000  -0.2500 Du        
   1753 ****        27.5000  10.0000   0.0000 Du        
   1754 ****        27.5000  10.0000   0.2500 Du        
   1755 ****        27.5000  10.0000   0.5000 Du        
   1756 ****        27.5000  10.0000   0.7500 Du        
   1757 ****        27.5000  10.2500  -5.7500 Du        
   1758 ****        27.5000  10.2500  -5.5000 Du        
   1759 ****        27.5000  10.2500  -5.2500 Du        
   1760 ****        27.5000  10.2500  -5.0000 Du        
   1761 ****        27.5000  10.2500  -4.7500 Du        
   1762 ****        27.5000  10.2500  -4.5000 Du        
   1763 ****        27.5000  10.2500  -4.2500 Du        
   1764 ****        27.5000  10.2500  -4.0000 Du        
   1765 ****        27.5000  10.2500  -3.7500 Du        
   1766 ****        27.5000  10.2500  -3.5000 Du        
   1767 ****        27.5000  10.2500   0.0000 Du        
   1768 ****        27.5000  10.2500   0.2500 Du        
   1769 ****        27.5000  10.2500   0.5000 Du        
   1770 ****        27.5000  10.2500   0.7500 Du        
   1771 ****        27.5000  10.5000  -5.5000 Du        
   1772 ****        27.5000  10.5000  -5.2500 Du        
   1773 ****        27.5000  10.5000  -5.0000 Du        
   1774 ****        27.5000  10.5000  -4.7500 Du        
   1775 ****        27.5000  10.5000  -4.5000 Du        
   1776 ****        27.5000  10.5000  -4.2500 Du        
   1777 ****        27.5000  10.5000  -4.0000 Du        
   1778 ****        27.5000  10.5000  -3.7500 Du        
   1779 ****        27.5000  10.5000   0.2500 Du        
   1780 ****        27.5000  10.5000   0.5000 Du        
   1781 ****        27.5000  10.7500  -5.2500 Du        
   1782 ****        27.5000  10.7500  -5.0000 Du        
   1783 ****        27.5000  10.7500  -4.7500 Du        
   1784 ****        27.5000  10.7500  -4.5000 Du        
   1785 ****        27.5000  10.7500  -4.2500 Du        
   1786 ****        27.5000  11.0000  -5.0000 Du        
   1787 ****        27.7500   8.7500  -5.2500 Du        
   1788 ****        27.7500   8.7500  -5.0000 Du        
   1789 ****        27.7500   8.7500  -4.7500 Du        
   1790 ****        27.7500   8.7500  -4.5000 Du        
   1791 ****        27.7500   8.7500  -4.2500 Du        
   1792 ****        27.7500   8.7500  -4.0000 Du        
   1793 ****        27.7500   9.0000  -5.5000 Du        
   1794 ****        27.7500   9.0000  -5.2500 Du        
   1795 ****        27.7500   9.0000  -5.0000 Du        
   1796 ****        27.7500   9.0000  -4.7500 Du        
   1797 ****        27.7500   9.0000  -4.5000 Du        
   1798 ****        27.7500   9.0000  -4.2500 Du        
   1799 ****        27.7500   9.0000  -4.0000 Du        
   1800 ****        27.7500   9.0000  -3.7500 Du        
   1801 ****        27.7500   9.2500  -5.5000 Du        
   1802 ****        27.7500   9.2500  -5.2500 Du        
   1803 ****        27.7500   9.2500  -5.0000 Du        
   1804 ****        27.7500   9.2500  -4.7500 Du        
   1805 ****        27.7500   9.2500  -4.5000 Du        
   1806 ****        27.7500   9.2500  -4.2500 Du        
   1807 ****        27.7500   9.2500  -4.0000 Du        
   1808 ****        27.7500   9.2500  -3.7500 Du        
   1809 ****        27.7500   9.2500  -3.5000 Du        
   1810 ****        27.7500   9.5000  -5.5000 Du        
   1811 ****        27.7500   9.5000  -5.2500 Du        
   1812 ****        27.7500   9.5000  -5.0000 Du        
   1813 ****        27.7500   9.5000  -4.7500 Du        
   1814 ****        27.7500   9.5000  -4.5000 Du        
   1815 ****        27.7500   9.5000  -4.2500 Du        
   1816 ****        27.7500   9.5000  -4.0000 Du        
   1817 ****        27.7500   9.5000  -3.7500 Du        
   1818 ****        27.7500   9.5000  -3.5000 Du        
   1819 ****        27.7500   9.5000  -3.2500 Du        
   1820 ****        27.7500   9.5000  -3.0000 Du        
   1821 ****        27.7500   9.7500  -5.7500 Du        
   1822 ****        27.7500   9.7500  -5.5000 Du        
   1823 ****        27.7500   9.7500  -5.2500 Du        
   1824 ****        27.7500   9.7500  -5.0000 Du        
   1825 ****        27.7500   9.7500  -4.7500 Du        
   1826 ****        27.7500   9.7500  -4.5000 Du        
   1827 ****        27.7500   9.7500  -4.2500 Du        
   1828 ****        27.7500   9.7500  -4.0000 Du        
   1829 ****        27.7500   9.7500  -3.7500 Du        
   1830 ****        27.7500   9.7500  -3.5000 Du        
   1831 ****        27.7500   9.7500  -3.2500 Du        
   1832 ****        27.7500   9.7500  -3.0000 Du        
   1833 ****        27.7500   9.7500  -2.7500 Du        
   1834 ****        27.7500  10.0000  -5.7500 Du        
   1835 ****        27.7500  10.0000  -5.5000 Du        
   1836 ****        27.7500  10.0000  -5.2500 Du        
   1837 ****        27.7500  10.0000  -5.0000 Du        
   1838 ****        27.7500  10.0000  -4.7500 Du        
   1839 ****        27.7500  10.0000  -4.5000 Du        
   1840 ****        27.7500  10.0000  -4.2500 Du        
   1841 ****        27.7500  10.0000  -4.0000 Du        
   1842 ****        27.7500  10.0000  -3.7500 Du        
   1843 ****        27.7500  10.0000  -3.5000 Du        
   1844 ****        27.7500  10.0000  -3.2500 Du        
   1845 ****        27.7500  10.0000  -3.0000 Du        
   1846 ****        27.7500  10.2500  -6.0000 Du        
   1847 ****        27.7500  10.2500  -5.7500 Du        
   1848 ****        27.7500  10.2500  -5.5000 Du        
   1849 ****        27.7500  10.2500  -5.2500 Du        
   1850 ****        27.7500  10.2500  -5.0000 Du        
   1851 ****        27.7500  10.2500  -4.7500 Du        
   1852 ****        27.7500  10.2500  -4.5000 Du        
   1853 ****        27.7500  10.2500  -4.2500 Du        
   1854 ****        27.7500  10.2500  -4.0000 Du        
   1855 ****        27.7500  10.2500  -3.7500 Du        
   1856 ****        27.7500  10.2500  -3.5000 Du        
   1857 ****        27.7500  10.2500   0.2500 Du        
   1858 ****        27.7500  10.2500   0.5000 Du        
   1859 ****        27.7500  10.2500   0.7500 Du        
   1860 ****        27.7500  10.5000  -5.7500 Du        
   1861 ****        27.7500  10.5000  -5.5000 Du        
   1862 ****        27.7500  10.5000  -5.2500 Du        
   1863 ****        27.7500  10.5000  -5.0000 Du        
   1864 ****        27.7500  10.5000  -4.7500 Du        
   1865 ****        27.7500  10.5000  -4.5000 Du        
   1866 ****        27.7500  10.5000  -4.2500 Du        
   1867 ****        27.7500  10.5000  -4.0000 Du        
   1868 ****        27.7500  10.7500  -5.7500 Du        
   1869 ****        27.7500  10.7500  -5.5000 Du        
   1870 ****        27.7500  10.7500  -5.2500 Du        
   1871 ****        27.7500  10.7500  -5.0000 Du        
   1872 ****        27.7500  10.7500  -4.7500 Du        
   1873 ****        27.7500  10.7500  -4.5000 Du        
   1874 ****        27.7500  10.7500  -4.2500 Du        
   1875 ****        27.7500  11.0000  -5.2500 Du        
   1876 ****        27.7500  11.0000  -5.0000 Du        
   1877 ****        27.7500  11.0000  -4.7500 Du        
   1878 ****        28.0000   9.0000  -5.2500 Du        
   1879 ****        28.0000   9.0000  -5.0000 Du        
   1880 ****        28.0000   9.0000  -4.7500 Du        
   1881 ****        28.0000   9.0000  -4.5000 Du        
   1882 ****        28.0000   9.0000  -4.2500 Du        
   1883 ****        28.0000   9.0000  -4.0000 Du        
   1884 ****        28.0000   9.2500  -5.2500 Du        
   1885 ****        28.0000   9.2500  -5.0000 Du        
   1886 ****        28.0000   9.2500  -4.7500 Du        
   1887 ****        28.0000   9.2500  -4.5000 Du        
   1888 ****        28.0000   9.2500  -4.2500 Du        
   1889 ****        28.0000   9.2500  -4.0000 Du        
   1890 ****        28.0000   9.2500  -3.7500 Du        
   1891 ****        28.0000   9.5000  -5.5000 Du        
   1892 ****        28.0000   9.5000  -5.2500 Du        
   1893 ****        28.0000   9.5000  -5.0000 Du        
   1894 ****        28.0000   9.5000  -4.7500 Du        
   1895 ****        28.0000   9.5000  -4.5000 Du        
   1896 ****        28.0000   9.5000  -4.2500 Du        
   1897 ****        28.0000   9.5000  -4.0000 Du        
   1898 ****        28.0000   9.5000  -3.7500 Du        
   1899 ****        28.0000   9.5000  -3.5000 Du        
   1900 ****        28.0000   9.5000  -3.2500 Du        
   1901 ****        28.0000   9.7500  -5.5000 Du        
   1902 ****        28.0000   9.7500  -5.2500 Du        
   1903 ****        28.0000   9.7500  -5.0000 Du        
   1904 ****        28.0000   9.7500  -4.7500 Du        
   1905 ****        28.0000   9.7500  -4.5000 Du        
   1906 ****        28.0000   9.7500  -4.2500 Du        
   1907 ****        28.0000   9.7500  -4.0000 Du        
   1908 ****        28.0000   9.7500  -3.7500 Du        
   1909 ****        28.0000   9.7500  -3.5000 Du        
   1910 ****        28.0000   9.7500  -3.2500 Du        
   1911 ****        28.0000   9.7500  -3.0000 Du        
   1912 ****        28.0000  10.0000  -5.7500 Du        
   1913 ****        28.0000  10.0000  -5.5000 Du        
   1914 ****        28.0000  10.0000  -5.2500 Du        
   1915 ****        28.0000  10.0000  -5.0000 Du        
   1916 ****        28.0000  10.0000  -4.7500 Du        
   1917 ****        28.0000  10.0000  -4.5000 Du        
   1918 ****        28.0000  10.0000  -4.2500 Du        
   1919 ****        28.0000  10.0000  -4.0000 Du        
   1920 ****        28.0000  10.0000  -3.7500 Du        
   1921 ****        28.0000  10.0000  -3.5000 Du        
   1922 ****        28.0000  10.0000  -3.2500 Du        
   1923 ****        28.0000  10.0000  -3.0000 Du        
   1924 ****        28.0000  10.2500  -5.7500 Du        
   1925 ****        28.0000  10.2500  -5.5000 Du        
   1926 ****        28.0000  10.2500  -5.2500 Du        
   1927 ****        28.0000  10.2500  -5.0000 Du        
   1928 ****        28.0000  10.2500  -4.7500 Du        
   1929 ****        28.0000  10.2500  -4.5000 Du        
   1930 ****        28.0000  10.2500  -4.2500 Du        
   1931 ****        28.0000  10.2500  -4.0000 Du        
   1932 ****        28.0000  10.2500  -3.7500 Du        
   1933 ****        28.0000  10.2500  -3.5000 Du        
   1934 ****        28.0000  10.5000  -5.7500 Du        
   1935 ****        28.0000  10.5000  -5.5000 Du        
   1936 ****        28.0000  10.5000  -5.2500 Du        
   1937 ****        28.0000  10.5000  -5.0000 Du        
   1938 ****        28.0000  10.5000  -4.7500 Du        
   1939 ****        28.0000  10.5000  -4.5000 Du        
   1940 ****        28.0000  10.5000  -4.2500 Du        
   1941 ****        28.0000  10.5000  -4.0000 Du        
   1942 ****        28.0000  10.7500  -5.7500 Du        
   1943 ****        28.0000  10.7500  -5.5000 Du        
   1944 ****        28.0000  10.7500  -5.2500 Du        
   1945 ****        28.0000  10.7500  -5.0000 Du        
   1946 ****        28.0000  10.7500  -4.7500 Du        
   1947 ****        28.0000  10.7500  -4.5000 Du        
   1948 ****        28.0000  11.0000  -5.5000 Du        
   1949 ****        28.0000  11.0000  -5.2500 Du        
   1950 ****        28.0000  11.0000  -5.0000 Du        
   1951 ****        28.0000  11.0000  -4.7500 Du        
   1952 ****        28.2500   9.0000  -4.7500 Du        
   1953 ****        28.2500   9.2500  -5.2500 Du        
   1954 ****        28.2500   9.2500  -5.0000 Du        
   1955 ****        28.2500   9.2500  -4.7500 Du        
   1956 ****        28.2500   9.2500  -4.5000 Du        
   1957 ****        28.2500   9.2500  -4.2500 Du        
   1958 ****        28.2500   9.2500  -4.0000 Du        
   1959 ****        28.2500   9.2500  -3.7500 Du        
   1960 ****        28.2500   9.5000  -5.2500 Du        
   1961 ****        28.2500   9.5000  -5.0000 Du        
   1962 ****        28.2500   9.5000  -4.7500 Du        
   1963 ****        28.2500   9.5000  -4.5000 Du        
   1964 ****        28.2500   9.5000  -4.2500 Du        
   1965 ****        28.2500   9.5000  -4.0000 Du        
   1966 ****        28.2500   9.5000  -3.7500 Du        
   1967 ****        28.2500   9.5000  -3.5000 Du        
   1968 ****        28.2500   9.7500  -5.5000 Du        
   1969 ****        28.2500   9.7500  -5.2500 Du        
   1970 ****        28.2500   9.7500  -5.0000 Du        
   1971 ****        28.2500   9.7500  -4.7500 Du        
   1972 ****        28.2500   9.7500  -4.5000 Du        
   1973 ****        28.2500   9.7500  -4.2500 Du        
   1974 ****        28.2500   9.7500  -4.0000 Du        
   1975 ****        28.2500   9.7500  -3.7500 Du        
   1976 ****        28.2500   9.7500  -3.5000 Du        
   1977 ****        28.2500   9.7500  -3.2500 Du        
   1978 ****        28.2500   9.7500  -3.0000 Du        
   1979 ****        28.2500  10.0000  -5.5000 Du        
   1980 ****        28.2500  10.0000  -5.2500 Du        
   1981 ****        28.2500  10.0000  -5.0000 Du        
   1982 ****        28.2500  10.0000  -4.7500 Du        
   1983 ****        28.2500  10.0000  -4.5000 Du        
   1984 ****        28.2500  10.0000  -4.2500 Du        
   1985 ****        28.2500  10.0000  -4.0000 Du        
   1986 ****        28.2500  10.0000  -3.7500 Du        
   1987 ****        28.2500  10.0000  -3.5000 Du        
   1988 ****        28.2500  10.0000  -3.2500 Du        
   1989 ****        28.2500  10.2500  -5.7500 Du        
   1990 ****        28.2500  10.2500  -5.5000 Du        
   1991 ****        28.2500  10.2500  -5.2500 Du        
   1992 ****        28.2500  10.2500  -5.0000 Du        
   1993 ****        28.2500  10.2500  -4.7500 Du        
   1994 ****        28.2500  10.2500  -4.5000 Du        
   1995 ****        28.2500  10.2500  -4.2500 Du        
   1996 ****        28.2500  10.2500  -4.0000 Du        
   1997 ****        28.2500  10.2500  -3.7500 Du        
   1998 ****        28.2500  10.5000  -5.7500 Du        
   1999 ****        28.2500  10.5000  -5.5000 Du        
   2000 ****        28.2500  10.5000  -5.2500 Du        
   2001 ****        28.2500  10.5000  -5.0000 Du        
   2002 ****        28.2500  10.5000  -4.7500 Du        
   2003 ****        28.2500  10.5000  -4.5000 Du        
   2004 ****        28.2500  10.5000  -4.2500 Du        
   2005 ****        28.2500  10.5000  -4.0000 Du        
   2006 ****        28.2500  10.7500  -5.7500 Du        
   2007 ****        28.2500  10.7500  -5.5000 Du        
   2008 ****        28.2500  10.7500  -5.2500 Du        
   2009 ****        28.2500  10.7500  -5.0000 Du        
   2010 ****        28.2500  10.7500  -4.7500 Du        
   2011 ****        28.2500  10.7500  -4.5000 Du        
   2012 ****        28.2500  11.0000  -5.5000 Du        
   2013 ****        28.2500  11.0000  -5.2500 Du        
   2014 ****        28.2500  11.0000  -5.0000 Du        
   2015 ****        28.5000   9.2500  -5.0000 Du        
   2016 ****        28.5000   9.2500  -4.7500 Du        
   2017 ****        28.5000   9.2500  -4.5000 Du        
   2018 ****        28.5000   9.2500  -4.2500 Du        
   2019 ****        28.5000   9.2500  -4.0000 Du        
   2020 ****        28.5000   9.2500  -3.7500 Du        
   2021 ****        28.5000   9.5000  -5.2500 Du        
   2022 ****        28.5000   9.5000  -5.0000 Du        
   2023 ****        28.5000   9.5000  -4.7500 Du        
   2024 ****        28.5000   9.5000  -4.5000 Du        
   2025 ****        28.5000   9.5000  -4.2500 Du        
   2026 ****        28.5000   9.5000  -4.0000 Du        
   2027 ****        28.5000   9.5000  -3.7500 Du        
   2028 ****        28.5000   9.5000  -3.5000 Du        
   2029 ****        28.5000   9.7500  -5.2500 Du        
   2030 ****        28.5000   9.7500  -5.0000 Du        
   2031 ****        28.5000   9.7500  -4.7500 Du        
   2032 ****        28.5000   9.7500  -4.5000 Du        
   2033 ****        28.5000   9.7500  -4.2500 Du        
   2034 ****        28.5000   9.7500  -4.0000 Du        
   2035 ****        28.5000   9.7500  -3.7500 Du        
   2036 ****        28.5000   9.7500  -3.5000 Du        
   2037 ****        28.5000   9.7500  -3.2500 Du        
   2038 ****        28.5000  10.0000  -5.5000 Du        
   2039 ****        28.5000  10.0000  -5.2500 Du        
   2040 ****        28.5000  10.0000  -5.0000 Du        
   2041 ****        28.5000  10.0000  -4.7500 Du        
   2042 ****        28.5000  10.0000  -4.5000 Du        
   2043 ****        28.5000  10.0000  -4.2500 Du        
   2044 ****        28.5000  10.0000  -4.0000 Du        
   2045 ****        28.5000  10.0000  -3.7500 Du        
   2046 ****        28.5000  10.0000  -3.5000 Du        
   2047 ****        28.5000  10.0000  -3.2500 Du        
   2048 ****        28.5000  10.2500  -5.5000 Du        
   2049 ****        28.5000  10.2500  -5.2500 Du        
   2050 ****        28.5000  10.2500  -5.0000 Du        
   2051 ****        28.5000  10.2500  -4.7500 Du        
   2052 ****        28.5000  10.2500  -4.5000 Du        
   2053 ****        28.5000  10.2500  -4.2500 Du        
   2054 ****        28.5000  10.2500  -4.0000 Du        
   2055 ****        28.5000  10.2500  -3.7500 Du        
   2056 ****        28.5000  10.5000  -5.7500 Du        
   2057 ****        28.5000  10.5000  -5.5000 Du        
   2058 ****        28.5000  10.5000  -5.2500 Du        
   2059 ****        28.5000  10.5000  -5.0000 Du        
   2060 ****        28.5000  10.5000  -4.7500 Du        
   2061 ****        28.5000  10.5000  -4.5000 Du        
   2062 ****        28.5000  10.5000  -4.2500 Du        
   2063 ****        28.5000  10.7500  -5.7500 Du        
   2064 ****        28.5000  10.7500  -5.5000 Du        
   2065 ****        28.5000  10.7500  -5.2500 Du        
   2066 ****        28.5000  10.7500  -5.0000 Du        
   2067 ****        28.5000  10.7500  -4.7500 Du        
   2068 ****        28.5000  11.0000  -5.5000 Du        
   2069 ****        28.5000  11.0000  -5.2500 Du        
   2070 ****        28.5000  11.0000  -5.0000 Du        
   2071 ****        28.7500   9.2500  -4.7500 Du        
   2072 ****        28.7500   9.2500  -4.5000 Du        
   2073 ****        28.7500   9.2500  -4.2500 Du        
   2074 ****        28.7500   9.2500  -4.0000 Du        
   2075 ****        28.7500   9.5000  -5.0000 Du        
   2076 ****        28.7500   9.5000  -4.7500 Du        
   2077 ****        28.7500   9.5000  -4.5000 Du        
   2078 ****        28.7500   9.5000  -4.2500 Du        
   2079 ****        28.7500   9.5000  -4.0000 Du        
   2080 ****        28.7500   9.5000  -3.7500 Du        
   2081 ****        28.7500   9.5000  -3.5000 Du        
   2082 ****        28.7500   9.7500  -5.2500 Du        
   2083 ****        28.7500   9.7500  -5.0000 Du        
   2084 ****        28.7500   9.7500  -4.7500 Du        
   2085 ****        28.7500   9.7500  -4.5000 Du        
   2086 ****        28.7500   9.7500  -4.2500 Du        
   2087 ****        28.7500   9.7500  -4.0000 Du        
   2088 ****        28.7500   9.7500  -3.7500 Du        
   2089 ****        28.7500   9.7500  -3.5000 Du        
   2090 ****        28.7500   9.7500  -3.2500 Du        
   2091 ****        28.7500  10.0000  -5.2500 Du        
   2092 ****        28.7500  10.0000  -5.0000 Du        
   2093 ****        28.7500  10.0000  -4.7500 Du        
   2094 ****        28.7500  10.0000  -4.5000 Du        
   2095 ****        28.7500  10.0000  -4.2500 Du        
   2096 ****        28.7500  10.0000  -4.0000 Du        
   2097 ****        28.7500  10.0000  -3.7500 Du        
   2098 ****        28.7500  10.0000  -3.5000 Du        
   2099 ****        28.7500  10.0000  -3.2500 Du        
   2100 ****        28.7500  10.2500  -5.5000 Du        
   2101 ****        28.7500  10.2500  -5.2500 Du        
   2102 ****        28.7500  10.2500  -5.0000 Du        
   2103 ****        28.7500  10.2500  -4.7500 Du        
   2104 ****        28.7500  10.2500  -4.5000 Du        
   2105 ****        28.7500  10.2500  -4.2500 Du        
   2106 ****        28.7500  10.2500  -4.0000 Du        
   2107 ****        28.7500  10.2500  -3.7500 Du        
   2108 ****        28.7500  10.5000  -5.5000 Du        
   2109 ****        28.7500  10.5000  -5.2500 Du        
   2110 ****        28.7500  10.5000  -5.0000 Du        
   2111 ****        28.7500  10.5000  -4.7500 Du        
   2112 ****        28.7500  10.5000  -4.5000 Du        
   2113 ****        28.7500  10.7500  -5.5000 Du        
   2114 ****        28.7500  10.7500  -5.2500 Du        
   2115 ****        28.7500  10.7500  -5.0000 Du        
   2116 ****        28.7500  10.7500  -4.7500 Du        
   2117 ****        28.7500  11.0000  -5.2500 Du        
   2118 ****        29.0000   9.5000  -5.0000 Du        
   2119 ****        29.0000   9.5000  -4.7500 Du        
   2120 ****        29.0000   9.5000  -4.5000 Du        
   2121 ****        29.0000   9.5000  -4.2500 Du        
   2122 ****        29.0000   9.5000  -4.0000 Du        
   2123 ****        29.0000   9.5000  -3.7500 Du        
   2124 ****        29.0000   9.7500  -5.2500 Du        
   2125 ****        29.0000   9.7500  -5.0000 Du        
   2126 ****        29.0000   9.7500  -4.7500 Du        
   2127 ****        29.0000   9.7500  -4.5000 Du        
   2128 ****        29.0000   9.7500  -4.2500 Du        
   2129 ****        29.0000   9.7500  -4.0000 Du        
   2130 ****        29.0000   9.7500  -3.7500 Du        
   2131 ****        29.0000   9.7500  -3.5000 Du        
   2132 ****        29.0000   9.7500  -3.2500 Du        
   2133 ****        29.0000  10.0000  -5.2500 Du        
   2134 ****        29.0000  10.0000  -5.0000 Du        
   2135 ****        29.0000  10.0000  -4.7500 Du        
   2136 ****        29.0000  10.0000  -4.5000 Du        
   2137 ****        29.0000  10.0000  -4.2500 Du        
   2138 ****        29.0000  10.0000  -4.0000 Du        
   2139 ****        29.0000  10.0000  -3.7500 Du        
   2140 ****        29.0000  10.0000  -3.5000 Du        
   2141 ****        29.0000  10.0000  -3.2500 Du        
   2142 ****        29.0000  10.2500  -5.5000 Du        
   2143 ****        29.0000  10.2500  -5.2500 Du        
   2144 ****        29.0000  10.2500  -5.0000 Du        
   2145 ****        29.0000  10.2500  -4.7500 Du        
   2146 ****        29.0000  10.2500  -4.5000 Du        
   2147 ****        29.0000  10.2500  -4.2500 Du        
   2148 ****        29.0000  10.2500  -4.0000 Du        
   2149 ****        29.0000  10.2500  -3.7500 Du        
   2150 ****        29.0000  10.5000  -5.5000 Du        
   2151 ****        29.0000  10.5000  -5.2500 Du        
   2152 ****        29.0000  10.5000  -5.0000 Du        
   2153 ****        29.0000  10.5000  -4.7500 Du        
   2154 ****        29.0000  10.5000  -4.5000 Du        
   2155 ****        29.0000  10.7500  -5.5000 Du        
   2156 ****        29.0000  10.7500  -5.2500 Du        
   2157 ****        29.0000  10.7500  -5.0000 Du        
   2158 ****        29.2500   9.5000  -5.0000 Du        
   2159 ****        29.2500   9.5000  -4.7500 Du        
   2160 ****        29.2500   9.5000  -4.5000 Du        
   2161 ****        29.2500   9.5000  -4.2500 Du        
   2162 ****        29.2500   9.5000  -4.0000 Du        
   2163 ****        29.2500   9.5000  -3.7500 Du        
   2164 ****        29.2500   9.7500  -5.0000 Du        
   2165 ****        29.2500   9.7500  -4.7500 Du        
   2166 ****        29.2500   9.7500  -4.5000 Du        
   2167 ****        29.2500   9.7500  -4.2500 Du        
   2168 ****        29.2500   9.7500  -4.0000 Du        
   2169 ****        29.2500   9.7500  -3.7500 Du        
   2170 ****        29.2500   9.7500  -3.5000 Du        
   2171 ****        29.2500   9.7500  -3.2500 Du        
   2172 ****        29.2500  10.0000  -5.2500 Du        
   2173 ****        29.2500  10.0000  -5.0000 Du        
   2174 ****        29.2500  10.0000  -4.7500 Du        
   2175 ****        29.2500  10.0000  -4.5000 Du        
   2176 ****        29.2500  10.0000  -4.2500 Du        
   2177 ****        29.2500  10.0000  -4.0000 Du        
   2178 ****        29.2500  10.0000  -3.7500 Du        
   2179 ****        29.2500  10.0000  -3.5000 Du        
   2180 ****        29.2500  10.0000  -3.2500 Du        
   2181 ****        29.2500  10.2500  -5.5000 Du        
   2182 ****        29.2500  10.2500  -5.2500 Du        
   2183 ****        29.2500  10.2500  -5.0000 Du        
   2184 ****        29.2500  10.2500  -4.7500 Du        
   2185 ****        29.2500  10.2500  -4.5000 Du        
   2186 ****        29.2500  10.2500  -4.2500 Du        
   2187 ****        29.2500  10.2500  -4.0000 Du        
   2188 ****        29.2500  10.5000  -5.5000 Du        
   2189 ****        29.2500  10.5000  -5.2500 Du        
   2190 ****        29.2500  10.5000  -5.0000 Du        
   2191 ****        29.2500  10.5000  -4.7500 Du        
   2192 ****        29.2500  10.5000  -4.5000 Du        
   2193 ****        29.2500  10.7500  -5.5000 Du        
   2194 ****        29.2500  10.7500  -5.2500 Du        
   2195 ****        29.2500  10.7500  -5.0000 Du        
   2196 ****        29.5000   9.5000  -4.7500 Du        
   2197 ****        29.5000   9.5000  -4.5000 Du        
   2198 ****        29.5000   9.5000  -4.2500 Du        
   2199 ****        29.5000   9.7500  -5.0000 Du        
   2200 ****        29.5000   9.7500  -4.7500 Du        
   2201 ****        29.5000   9.7500  -4.5000 Du        
   2202 ****        29.5000   9.7500  -4.2500 Du        
   2203 ****        29.5000   9.7500  -4.0000 Du        
   2204 ****        29.5000   9.7500  -3.7500 Du        
   2205 ****        29.5000   9.7500  -3.5000 Du        
   2206 ****        29.5000  10.0000  -5.2500 Du        
   2207 ****        29.5000  10.0000  -5.0000 Du        
   2208 ****        29.5000  10.0000  -4.7500 Du        
   2209 ****        29.5000  10.0000  -4.5000 Du        
   2210 ****        29.5000  10.0000  -4.2500 Du        
   2211 ****        29.5000  10.0000  -4.0000 Du        
   2212 ****        29.5000  10.0000  -3.7500 Du        
   2213 ****        29.5000  10.0000  -3.5000 Du        
   2214 ****        29.5000  10.0000  -3.2500 Du        
   2215 ****        29.5000  10.0000  -3.0000 Du        
   2216 ****        29.5000  10.2500  -5.2500 Du        
   2217 ****        29.5000  10.2500  -5.0000 Du        
   2218 ****        29.5000  10.2500  -4.7500 Du        
   2219 ****        29.5000  10.2500  -4.5000 Du        
   2220 ****        29.5000  10.2500  -4.2500 Du        
   2221 ****        29.5000  10.2500  -4.0000 Du        
   2222 ****        29.5000  10.5000  -5.5000 Du        
   2223 ****        29.5000  10.5000  -5.2500 Du        
   2224 ****        29.5000  10.5000  -5.0000 Du        
   2225 ****        29.5000  10.5000  -4.7500 Du        
   2226 ****        29.5000  10.5000  -4.5000 Du        
   2227 ****        29.5000  10.7500  -5.5000 Du        
   2228 ****        29.5000  10.7500  -5.2500 Du        
   2229 ****        29.5000  10.7500  -5.0000 Du        
   2230 ****        29.7500   9.5000  -4.7500 Du        
   2231 ****        29.7500   9.7500  -5.0000 Du        
   2232 ****        29.7500   9.7500  -4.7500 Du        
   2233 ****        29.7500   9.7500  -4.5000 Du        
   2234 ****        29.7500   9.7500  -4.2500 Du        
   2235 ****        29.7500   9.7500  -4.0000 Du        
   2236 ****        29.7500   9.7500  -3.7500 Du        
   2237 ****        29.7500  10.0000  -5.2500 Du        
   2238 ****        29.7500  10.0000  -5.0000 Du        
   2239 ****        29.7500  10.0000  -4.7500 Du        
   2240 ****        29.7500  10.0000  -4.5000 Du        
   2241 ****        29.7500  10.0000  -4.2500 Du        
   2242 ****        29.7500  10.0000  -4.0000 Du        
   2243 ****        29.7500  10.0000  -3.7500 Du        
   2244 ****        29.7500  10.0000  -3.5000 Du        
   2245 ****        29.7500  10.0000  -3.2500 Du        
   2246 ****        29.7500  10.0000  -3.0000 Du        
   2247 ****        29.7500  10.0000  -2.7500 Du        
   2248 ****        29.7500  10.0000  -2.5000 Du        
   2249 ****        29.7500  10.0000  -2.2500 Du        
   2250 ****        29.7500  10.2500  -5.2500 Du        
   2251 ****        29.7500  10.2500  -5.0000 Du        
   2252 ****        29.7500  10.2500  -4.7500 Du        
   2253 ****        29.7500  10.2500  -4.5000 Du        
   2254 ****        29.7500  10.2500  -4.2500 Du        
   2255 ****        29.7500  10.2500  -4.0000 Du        
   2256 ****        29.7500  10.2500  -3.7500 Du        
   2257 ****        29.7500  10.5000  -5.5000 Du        
   2258 ****        29.7500  10.5000  -5.2500 Du        
   2259 ****        29.7500  10.5000  -5.0000 Du        
   2260 ****        29.7500  10.5000  -4.7500 Du        
   2261 ****        29.7500  10.5000  -4.5000 Du        
   2262 ****        29.7500  10.7500  -5.5000 Du        
   2263 ****        29.7500  10.7500  -5.2500 Du        
   2264 ****        29.7500  10.7500  -5.0000 Du        
   2265 ****        30.0000   9.5000  -4.7500 Du        
   2266 ****        30.0000   9.7500  -5.2500 Du        
   2267 ****        30.0000   9.7500  -5.0000 Du        
   2268 ****        30.0000   9.7500  -4.7500 Du        
   2269 ****        30.0000   9.7500  -4.5000 Du        
   2270 ****        30.0000   9.7500  -4.2500 Du        
   2271 ****        30.0000   9.7500  -4.0000 Du        
   2272 ****        30.0000  10.0000  -5.2500 Du        
   2273 ****        30.0000  10.0000  -5.0000 Du        
   2274 ****        30.0000  10.0000  -4.7500 Du        
   2275 ****        30.0000  10.0000  -4.5000 Du        
   2276 ****        30.0000  10.0000  -4.2500 Du        
   2277 ****        30.0000  10.0000  -4.0000 Du        
   2278 ****        30.0000  10.0000  -3.7500 Du        
   2279 ****        30.0000  10.0000  -3.5000 Du        
   2280 ****        30.0000  10.0000  -3.2500 Du        
   2281 ****        30.0000  10.0000  -3.0000 Du        
   2282 ****        30.0000  10.0000  -2.7500 Du        
   2283 ****        30.0000  10.0000  -2.5000 Du        
   2284 ****        30.0000  10.0000  -2.2500 Du        
   2285 ****        30.0000  10.0000  -2.0000 Du        
   2286 ****        30.0000  10.2500  -5.5000 Du        
   2287 ****        30.0000  10.2500  -5.2500 Du        
   2288 ****        30.0000  10.2500  -5.0000 Du        
   2289 ****        30.0000  10.2500  -4.7500 Du        
   2290 ****        30.0000  10.2500  -4.5000 Du        
   2291 ****        30.0000  10.2500  -4.2500 Du        
   2292 ****        30.0000  10.2500  -4.0000 Du        
   2293 ****        30.0000  10.2500  -3.7500 Du        
   2294 ****        30.0000  10.2500  -2.7500 Du        
   2295 ****        30.0000  10.2500  -2.5000 Du        
   2296 ****        30.0000  10.2500  -2.2500 Du        
   2297 ****        30.0000  10.5000  -5.5000 Du        
   2298 ****        30.0000  10.5000  -5.2500 Du        
   2299 ****        30.0000  10.5000  -5.0000 Du        
   2300 ****        30.0000  10.5000  -4.7500 Du        
   2301 ****        30.0000  10.5000  -4.5000 Du        
   2302 ****        30.0000  10.5000  -4.2500 Du        
   2303 ****        30.0000  10.7500  -5.5000 Du        
   2304 ****        30.0000  10.7500  -5.2500 Du        
   2305 ****        30.0000  10.7500  -5.0000 Du        
   2306 ****        30.0000  10.7500  -4.7500 Du        
   2307 ****        30.2500   9.7500  -5.2500 Du        
   2308 ****        30.2500   9.7500  -5.0000 Du        
   2309 ****        30.2500   9.7500  -4.7500 Du        
   2310 ****        30.2500   9.7500  -4.5000 Du        
   2311 ****        30.2500   9.7500  -4.2500 Du        
   2312 ****        30.2500  10.0000  -5.2500 Du        
   2313 ****        30.2500  10.0000  -5.0000 Du        
   2314 ****        30.2500  10.0000  -4.7500 Du        
   2315 ****        30.2500  10.0000  -4.5000 Du        
   2316 ****        30.2500  10.0000  -4.2500 Du        
   2317 ****        30.2500  10.0000  -4.0000 Du        
   2318 ****        30.2500  10.0000  -3.7500 Du        
   2319 ****        30.2500  10.0000  -3.5000 Du        
   2320 ****        30.2500  10.0000  -3.2500 Du        
   2321 ****        30.2500  10.0000  -3.0000 Du        
   2322 ****        30.2500  10.0000  -2.7500 Du        
   2323 ****        30.2500  10.0000  -2.5000 Du        
   2324 ****        30.2500  10.0000  -2.2500 Du        
   2325 ****        30.2500  10.0000  -2.0000 Du        
   2326 ****        30.2500  10.2500  -5.5000 Du        
   2327 ****        30.2500  10.2500  -5.2500 Du        
   2328 ****        30.2500  10.2500  -5.0000 Du        
   2329 ****        30.2500  10.2500  -4.7500 Du        
   2330 ****        30.2500  10.2500  -4.5000 Du        
   2331 ****        30.2500  10.2500  -4.2500 Du        
   2332 ****        30.2500  10.2500  -4.0000 Du        
   2333 ****        30.2500  10.2500  -3.7500 Du        
   2334 ****        30.2500  10.2500  -3.5000 Du        
   2335 ****        30.2500  10.2500  -3.2500 Du        
   2336 ****        30.2500  10.2500  -3.0000 Du        
   2337 ****        30.2500  10.2500  -2.7500 Du        
   2338 ****        30.2500  10.2500  -2.5000 Du        
   2339 ****        30.2500  10.2500  -2.2500 Du        
   2340 ****        30.2500  10.2500  -2.0000 Du        
   2341 ****        30.2500  10.5000  -5.5000 Du        
   2342 ****        30.2500  10.5000  -5.2500 Du        
   2343 ****        30.2500  10.5000  -5.0000 Du        
   2344 ****        30.2500  10.5000  -4.7500 Du        
   2345 ****        30.2500  10.5000  -4.5000 Du        
   2346 ****        30.2500  10.5000  -4.2500 Du        
   2347 ****        30.2500  10.7500  -5.2500 Du        
   2348 ****        30.2500  10.7500  -5.0000 Du        
   2349 ****        30.2500  10.7500  -4.7500 Du        
   2350 ****        30.5000   9.7500  -5.2500 Du        
   2351 ****        30.5000   9.7500  -5.0000 Du        
   2352 ****        30.5000   9.7500  -4.7500 Du        
   2353 ****        30.5000   9.7500  -4.5000 Du        
   2354 ****        30.5000  10.0000  -5.2500 Du        
   2355 ****        30.5000  10.0000  -5.0000 Du        
   2356 ****        30.5000  10.0000  -4.7500 Du        
   2357 ****        30.5000  10.0000  -4.5000 Du        
   2358 ****        30.5000  10.0000  -4.2500 Du        
   2359 ****        30.5000  10.0000  -4.0000 Du        
   2360 ****        30.5000  10.0000  -3.7500 Du        
   2361 ****        30.5000  10.0000  -3.5000 Du        
   2362 ****        30.5000  10.0000  -3.2500 Du        
   2363 ****        30.5000  10.0000  -3.0000 Du        
   2364 ****        30.5000  10.0000  -2.7500 Du        
   2365 ****        30.5000  10.0000  -2.5000 Du        
   2366 ****        30.5000  10.0000  -2.2500 Du        
   2367 ****        30.5000  10.0000  -2.0000 Du        
   2368 ****        30.5000  10.2500  -5.5000 Du        
   2369 ****        30.5000  10.2500  -5.2500 Du        
   2370 ****        30.5000  10.2500  -5.0000 Du        
   2371 ****        30.5000  10.2500  -4.7500 Du        
   2372 ****        30.5000  10.2500  -4.5000 Du        
   2373 ****        30.5000  10.2500  -4.2500 Du        
   2374 ****        30.5000  10.2500  -4.0000 Du        
   2375 ****        30.5000  10.2500  -3.7500 Du        
   2376 ****        30.5000  10.2500  -3.5000 Du        
   2377 ****        30.5000  10.2500  -3.2500 Du        
   2378 ****        30.5000  10.2500  -3.0000 Du        
   2379 ****        30.5000  10.2500  -2.7500 Du        
   2380 ****        30.5000  10.2500  -2.5000 Du        
   2381 ****        30.5000  10.2500  -2.2500 Du        
   2382 ****        30.5000  10.2500  -2.0000 Du        
   2383 ****        30.5000  10.5000  -5.5000 Du        
   2384 ****        30.5000  10.5000  -5.2500 Du        
   2385 ****        30.5000  10.5000  -5.0000 Du        
   2386 ****        30.5000  10.5000  -4.7500 Du        
   2387 ****        30.5000  10.5000  -4.5000 Du        
   2388 ****        30.5000  10.5000  -4.2500 Du        
   2389 ****        30.5000  10.5000  -4.0000 Du        
   2390 ****        30.5000  10.5000  -3.7500 Du        
   2391 ****        30.5000  10.7500  -5.2500 Du        
   2392 ****        30.5000  10.7500  -5.0000 Du        
   2393 ****        30.5000  10.7500  -4.7500 Du        
   2394 ****        30.5000  10.7500  -4.5000 Du        
   2395 ****        30.7500   9.7500  -5.2500 Du        
   2396 ****        30.7500   9.7500  -5.0000 Du        
   2397 ****        30.7500   9.7500  -4.7500 Du        
   2398 ****        30.7500  10.0000  -5.2500 Du        
   2399 ****        30.7500  10.0000  -5.0000 Du        
   2400 ****        30.7500  10.0000  -4.7500 Du        
   2401 ****        30.7500  10.0000  -4.5000 Du        
   2402 ****        30.7500  10.0000  -4.2500 Du        
   2403 ****        30.7500  10.0000  -4.0000 Du        
   2404 ****        30.7500  10.0000  -3.7500 Du        
   2405 ****        30.7500  10.0000  -3.5000 Du        
   2406 ****        30.7500  10.0000  -3.2500 Du        
   2407 ****        30.7500  10.0000  -3.0000 Du        
   2408 ****        30.7500  10.0000  -2.7500 Du        
   2409 ****        30.7500  10.0000  -2.5000 Du        
   2410 ****        30.7500  10.0000  -2.2500 Du        
   2411 ****        30.7500  10.0000  -2.0000 Du        
   2412 ****        30.7500  10.0000  -1.7500 Du        
   2413 ****        30.7500  10.2500  -5.5000 Du        
   2414 ****        30.7500  10.2500  -5.2500 Du        
   2415 ****        30.7500  10.2500  -5.0000 Du        
   2416 ****        30.7500  10.2500  -4.7500 Du        
   2417 ****        30.7500  10.2500  -4.5000 Du        
   2418 ****        30.7500  10.2500  -4.2500 Du        
   2419 ****        30.7500  10.2500  -4.0000 Du        
   2420 ****        30.7500  10.2500  -3.7500 Du        
   2421 ****        30.7500  10.2500  -3.5000 Du        
   2422 ****        30.7500  10.2500  -3.2500 Du        
   2423 ****        30.7500  10.2500  -3.0000 Du        
   2424 ****        30.7500  10.2500  -2.7500 Du        
   2425 ****        30.7500  10.2500  -2.5000 Du        
   2426 ****        30.7500  10.2500  -2.2500 Du        
   2427 ****        30.7500  10.2500  -2.0000 Du        
   2428 ****        30.7500  10.5000  -5.2500 Du        
   2429 ****        30.7500  10.5000  -5.0000 Du        
   2430 ****        30.7500  10.5000  -4.7500 Du        
   2431 ****        30.7500  10.5000  -4.5000 Du        
   2432 ****        30.7500  10.5000  -4.2500 Du        
   2433 ****        30.7500  10.5000  -4.0000 Du        
   2434 ****        30.7500  10.5000  -3.7500 Du        
   2435 ****        30.7500  10.5000  -3.5000 Du        
   2436 ****        30.7500  10.5000  -3.2500 Du        
   2437 ****        30.7500  10.5000  -3.0000 Du        
   2438 ****        30.7500  10.5000  -2.7500 Du        
   2439 ****        30.7500  10.5000  -2.5000 Du        
   2440 ****        30.7500  10.5000  -2.2500 Du        
   2441 ****        30.7500  10.7500  -5.2500 Du        
   2442 ****        30.7500  10.7500  -5.0000 Du        
   2443 ****        30.7500  10.7500  -4.7500 Du        
   2444 ****        30.7500  10.7500  -4.5000 Du        
   2445 ****        30.7500  10.7500  -4.2500 Du        
   2446 ****        31.0000   9.7500  -5.2500 Du        
   2447 ****        31.0000   9.7500  -5.0000 Du        
   2448 ****        31.0000   9.7500  -4.7500 Du        
   2449 ****        31.0000   9.7500  -2.0000 Du        
   2450 ****        31.0000   9.7500  -1.7500 Du        
   2451 ****        31.0000  10.0000  -5.2500 Du        
   2452 ****        31.0000  10.0000  -5.0000 Du        
   2453 ****        31.0000  10.0000  -4.7500 Du        
   2454 ****        31.0000  10.0000  -4.5000 Du        
   2455 ****        31.0000  10.0000  -4.2500 Du        
   2456 ****        31.0000  10.0000  -4.0000 Du        
   2457 ****        31.0000  10.0000  -3.7500 Du        
   2458 ****        31.0000  10.0000  -3.5000 Du        
   2459 ****        31.0000  10.0000  -3.2500 Du        
   2460 ****        31.0000  10.0000  -3.0000 Du        
   2461 ****        31.0000  10.0000  -2.7500 Du        
   2462 ****        31.0000  10.0000  -2.5000 Du        
   2463 ****        31.0000  10.0000  -2.2500 Du        
   2464 ****        31.0000  10.0000  -2.0000 Du        
   2465 ****        31.0000  10.0000  -1.7500 Du        
   2466 ****        31.0000  10.2500  -5.5000 Du        
   2467 ****        31.0000  10.2500  -5.2500 Du        
   2468 ****        31.0000  10.2500  -5.0000 Du        
   2469 ****        31.0000  10.2500  -4.7500 Du        
   2470 ****        31.0000  10.2500  -4.5000 Du        
   2471 ****        31.0000  10.2500  -4.2500 Du        
   2472 ****        31.0000  10.2500  -4.0000 Du        
   2473 ****        31.0000  10.2500  -3.7500 Du        
   2474 ****        31.0000  10.2500  -3.5000 Du        
   2475 ****        31.0000  10.2500  -3.2500 Du        
   2476 ****        31.0000  10.2500  -3.0000 Du        
   2477 ****        31.0000  10.2500  -2.7500 Du        
   2478 ****        31.0000  10.2500  -2.5000 Du        
   2479 ****        31.0000  10.2500  -2.2500 Du        
   2480 ****        31.0000  10.2500  -2.0000 Du        
   2481 ****        31.0000  10.5000  -5.2500 Du        
   2482 ****        31.0000  10.5000  -5.0000 Du        
   2483 ****        31.0000  10.5000  -4.7500 Du        
   2484 ****        31.0000  10.5000  -4.5000 Du        
   2485 ****        31.0000  10.5000  -4.2500 Du        
   2486 ****        31.0000  10.5000  -4.0000 Du        
   2487 ****        31.0000  10.5000  -3.7500 Du        
   2488 ****        31.0000  10.5000  -3.5000 Du        
   2489 ****        31.0000  10.5000  -3.2500 Du        
   2490 ****        31.0000  10.5000  -3.0000 Du        
   2491 ****        31.0000  10.5000  -2.7500 Du        
   2492 ****        31.0000  10.5000  -2.5000 Du        
   2493 ****        31.0000  10.5000  -2.2500 Du        
   2494 ****        31.0000  10.7500  -5.2500 Du        
   2495 ****        31.0000  10.7500  -5.0000 Du        
   2496 ****        31.0000  10.7500  -4.7500 Du        
   2497 ****        31.0000  10.7500  -4.5000 Du        
   2498 ****        31.0000  10.7500  -4.2500 Du        
   2499 ****        31.0000  10.7500  -4.0000 Du        
   2500 ****        31.0000  10.7500  -3.7500 Du        
   2501 ****        31.0000  11.0000  -4.7500 Du        
   2502 ****        31.2500   9.7500  -5.0000 Du        
   2503 ****        31.2500   9.7500  -2.0000 Du        
   2504 ****        31.2500   9.7500  -1.7500 Du        
   2505 ****        31.2500  10.0000  -5.2500 Du        
   2506 ****        31.2500  10.0000  -5.0000 Du        
   2507 ****        31.2500  10.0000  -4.7500 Du        
   2508 ****        31.2500  10.0000  -4.5000 Du        
   2509 ****        31.2500  10.0000  -4.2500 Du        
   2510 ****        31.2500  10.0000  -4.0000 Du        
   2511 ****        31.2500  10.0000  -3.7500 Du        
   2512 ****        31.2500  10.0000  -3.5000 Du        
   2513 ****        31.2500  10.0000  -3.2500 Du        
   2514 ****        31.2500  10.0000  -3.0000 Du        
   2515 ****        31.2500  10.0000  -2.7500 Du        
   2516 ****        31.2500  10.0000  -2.5000 Du        
   2517 ****        31.2500  10.0000  -2.2500 Du        
   2518 ****        31.2500  10.0000  -2.0000 Du        
   2519 ****        31.2500  10.0000  -1.7500 Du        
   2520 ****        31.2500  10.2500  -5.5000 Du        
   2521 ****        31.2500  10.2500  -5.2500 Du        
   2522 ****        31.2500  10.2500  -5.0000 Du        
   2523 ****        31.2500  10.2500  -4.7500 Du        
   2524 ****        31.2500  10.2500  -4.5000 Du        
   2525 ****        31.2500  10.2500  -4.2500 Du        
   2526 ****        31.2500  10.2500  -4.0000 Du        
   2527 ****        31.2500  10.2500  -3.7500 Du        
   2528 ****        31.2500  10.2500  -3.5000 Du        
   2529 ****        31.2500  10.2500  -3.2500 Du        
   2530 ****        31.2500  10.2500  -3.0000 Du        
   2531 ****        31.2500  10.2500  -2.7500 Du        
   2532 ****        31.2500  10.2500  -2.5000 Du        
   2533 ****        31.2500  10.2500  -2.2500 Du        
   2534 ****        31.2500  10.2500  -2.0000 Du        
   2535 ****        31.2500  10.5000  -5.2500 Du        
   2536 ****        31.2500  10.5000  -5.0000 Du        
   2537 ****        31.2500  10.5000  -4.7500 Du        
   2538 ****        31.2500  10.5000  -4.5000 Du        
   2539 ****        31.2500  10.5000  -4.2500 Du        
   2540 ****        31.2500  10.5000  -4.0000 Du        
   2541 ****        31.2500  10.5000  -3.7500 Du        
   2542 ****        31.2500  10.5000  -3.5000 Du        
   2543 ****        31.2500  10.5000  -3.2500 Du        
   2544 ****        31.2500  10.5000  -3.0000 Du        
   2545 ****        31.2500  10.5000  -2.7500 Du        
   2546 ****        31.2500  10.5000  -2.5000 Du        
   2547 ****        31.2500  10.5000  -2.2500 Du        
   2548 ****        31.2500  10.7500  -5.0000 Du        
   2549 ****        31.2500  10.7500  -4.7500 Du        
   2550 ****        31.2500  10.7500  -4.5000 Du        
   2551 ****        31.2500  10.7500  -4.2500 Du        
   2552 ****        31.2500  10.7500  -4.0000 Du        
   2553 ****        31.2500  10.7500  -3.7500 Du        
   2554 ****        31.2500  10.7500  -3.5000 Du        
   2555 ****        31.2500  10.7500  -3.2500 Du        
   2556 ****        31.2500  10.7500  -3.0000 Du        
   2557 ****        31.2500  10.7500  -2.7500 Du        
   2558 ****        31.2500  11.0000  -4.7500 Du        
   2559 ****        31.2500  11.0000  -4.5000 Du        
   2560 ****        31.2500  11.0000  -4.2500 Du        
   2561 ****        31.5000   7.7500   3.7500 Du        
   2562 ****        31.5000   8.0000   3.7500 Du        
   2563 ****        31.5000   9.7500  -2.0000 Du        
   2564 ****        31.5000   9.7500  -1.7500 Du        
   2565 ****        31.5000   9.7500  -1.5000 Du        
   2566 ****        31.5000  10.0000  -5.2500 Du        
   2567 ****        31.5000  10.0000  -5.0000 Du        
   2568 ****        31.5000  10.0000  -4.7500 Du        
   2569 ****        31.5000  10.0000  -4.5000 Du        
   2570 ****        31.5000  10.0000  -4.2500 Du        
   2571 ****        31.5000  10.0000  -4.0000 Du        
   2572 ****        31.5000  10.0000  -3.7500 Du        
   2573 ****        31.5000  10.0000  -3.5000 Du        
   2574 ****        31.5000  10.0000  -3.2500 Du        
   2575 ****        31.5000  10.0000  -3.0000 Du        
   2576 ****        31.5000  10.0000  -2.7500 Du        
   2577 ****        31.5000  10.0000  -2.5000 Du        
   2578 ****        31.5000  10.0000  -2.2500 Du        
   2579 ****        31.5000  10.0000  -2.0000 Du        
   2580 ****        31.5000  10.0000  -1.7500 Du        
   2581 ****        31.5000  10.2500  -5.5000 Du        
   2582 ****        31.5000  10.2500  -5.2500 Du        
   2583 ****        31.5000  10.2500  -5.0000 Du        
   2584 ****        31.5000  10.2500  -4.7500 Du        
   2585 ****        31.5000  10.2500  -4.5000 Du        
   2586 ****        31.5000  10.2500  -4.2500 Du        
   2587 ****        31.5000  10.2500  -4.0000 Du        
   2588 ****        31.5000  10.2500  -3.7500 Du        
   2589 ****        31.5000  10.2500  -3.5000 Du        
   2590 ****        31.5000  10.2500  -3.2500 Du        
   2591 ****        31.5000  10.2500  -3.0000 Du        
   2592 ****        31.5000  10.2500  -2.7500 Du        
   2593 ****        31.5000  10.2500  -2.5000 Du        
   2594 ****        31.5000  10.2500  -2.2500 Du        
   2595 ****        31.5000  10.2500  -2.0000 Du        
   2596 ****        31.5000  10.5000  -5.2500 Du        
   2597 ****        31.5000  10.5000  -5.0000 Du        
   2598 ****        31.5000  10.5000  -4.7500 Du        
   2599 ****        31.5000  10.5000  -4.5000 Du        
   2600 ****        31.5000  10.5000  -4.2500 Du        
   2601 ****        31.5000  10.5000  -4.0000 Du        
   2602 ****        31.5000  10.5000  -3.7500 Du        
   2603 ****        31.5000  10.5000  -3.5000 Du        
   2604 ****        31.5000  10.5000  -3.2500 Du        
   2605 ****        31.5000  10.5000  -3.0000 Du        
   2606 ****        31.5000  10.5000  -2.7500 Du        
   2607 ****        31.5000  10.5000  -2.5000 Du        
   2608 ****        31.5000  10.5000  -2.2500 Du        
   2609 ****        31.5000  10.7500  -5.0000 Du        
   2610 ****        31.5000  10.7500  -4.7500 Du        
   2611 ****        31.5000  10.7500  -4.5000 Du        
   2612 ****        31.5000  10.7500  -4.2500 Du        
   2613 ****        31.5000  10.7500  -4.0000 Du        
   2614 ****        31.5000  10.7500  -3.7500 Du        
   2615 ****        31.5000  10.7500  -3.5000 Du        
   2616 ****        31.5000  10.7500  -3.2500 Du        
   2617 ****        31.5000  10.7500  -3.0000 Du        
   2618 ****        31.5000  10.7500  -2.7500 Du        
   2619 ****        31.5000  11.0000  -4.7500 Du        
   2620 ****        31.5000  11.0000  -4.5000 Du        
   2621 ****        31.7500   8.0000   3.7500 Du        
   2622 ****        31.7500   8.2500   3.7500 Du        
   2623 ****        31.7500   9.7500  -2.2500 Du        
   2624 ****        31.7500   9.7500  -2.0000 Du        
   2625 ****        31.7500   9.7500  -1.7500 Du        
   2626 ****        31.7500   9.7500  -1.5000 Du        
   2627 ****        31.7500  10.0000  -5.2500 Du        
   2628 ****        31.7500  10.0000  -5.0000 Du        
   2629 ****        31.7500  10.0000  -4.7500 Du        
   2630 ****        31.7500  10.0000  -4.5000 Du        
   2631 ****        31.7500  10.0000  -4.2500 Du        
   2632 ****        31.7500  10.0000  -4.0000 Du        
   2633 ****        31.7500  10.0000  -3.7500 Du        
   2634 ****        31.7500  10.0000  -3.5000 Du        
   2635 ****        31.7500  10.0000  -3.2500 Du        
   2636 ****        31.7500  10.0000  -3.0000 Du        
   2637 ****        31.7500  10.0000  -2.7500 Du        
   2638 ****        31.7500  10.0000  -2.5000 Du        
   2639 ****        31.7500  10.0000  -2.2500 Du        
   2640 ****        31.7500  10.0000  -2.0000 Du        
   2641 ****        31.7500  10.0000  -1.7500 Du        
   2642 ****        31.7500  10.0000  -1.5000 Du        
   2643 ****        31.7500  10.2500  -5.5000 Du        
   2644 ****        31.7500  10.2500  -5.2500 Du        
   2645 ****        31.7500  10.2500  -5.0000 Du        
   2646 ****        31.7500  10.2500  -4.7500 Du        
   2647 ****        31.7500  10.2500  -4.5000 Du        
   2648 ****        31.7500  10.2500  -4.2500 Du        
   2649 ****        31.7500  10.2500  -4.0000 Du        
   2650 ****        31.7500  10.2500  -3.7500 Du        
   2651 ****        31.7500  10.2500  -3.5000 Du        
   2652 ****        31.7500  10.2500  -3.2500 Du        
   2653 ****        31.7500  10.2500  -3.0000 Du        
   2654 ****        31.7500  10.2500  -2.7500 Du        
   2655 ****        31.7500  10.2500  -2.5000 Du        
   2656 ****        31.7500  10.2500  -2.2500 Du        
   2657 ****        31.7500  10.2500  -2.0000 Du        
   2658 ****        31.7500  10.2500  -1.7500 Du        
   2659 ****        31.7500  10.5000  -5.2500 Du        
   2660 ****        31.7500  10.5000  -5.0000 Du        
   2661 ****        31.7500  10.5000  -4.7500 Du        
   2662 ****        31.7500  10.5000  -4.5000 Du        
   2663 ****        31.7500  10.5000  -4.2500 Du        
   2664 ****        31.7500  10.5000  -4.0000 Du        
   2665 ****        31.7500  10.5000  -3.7500 Du        
   2666 ****        31.7500  10.5000  -3.5000 Du        
   2667 ****        31.7500  10.5000  -3.2500 Du        
   2668 ****        31.7500  10.5000  -3.0000 Du        
   2669 ****        31.7500  10.5000  -2.7500 Du        
   2670 ****        31.7500  10.5000  -2.5000 Du        
   2671 ****        31.7500  10.5000  -2.2500 Du        
   2672 ****        31.7500  10.7500  -5.0000 Du        
   2673 ****        31.7500  10.7500  -4.7500 Du        
   2674 ****        31.7500  10.7500  -4.5000 Du        
   2675 ****        31.7500  10.7500  -4.2500 Du        
   2676 ****        31.7500  10.7500  -4.0000 Du        
   2677 ****        31.7500  10.7500  -3.7500 Du        
   2678 ****        31.7500  10.7500  -3.5000 Du        
   2679 ****        31.7500  10.7500  -3.2500 Du        
   2680 ****        31.7500  10.7500  -3.0000 Du        
   2681 ****        32.0000   9.5000  -1.7500 Du        
   2682 ****        32.0000   9.7500  -2.5000 Du        
   2683 ****        32.0000   9.7500  -2.2500 Du        
   2684 ****        32.0000   9.7500  -2.0000 Du        
   2685 ****        32.0000   9.7500  -1.7500 Du        
   2686 ****        32.0000   9.7500  -1.5000 Du        
   2687 ****        32.0000  10.0000  -5.2500 Du        
   2688 ****        32.0000  10.0000  -5.0000 Du        
   2689 ****        32.0000  10.0000  -4.7500 Du        
   2690 ****        32.0000  10.0000  -4.5000 Du        
   2691 ****        32.0000  10.0000  -4.2500 Du        
   2692 ****        32.0000  10.0000  -4.0000 Du        
   2693 ****        32.0000  10.0000  -3.7500 Du        
   2694 ****        32.0000  10.0000  -3.5000 Du        
   2695 ****        32.0000  10.0000  -3.2500 Du        
   2696 ****        32.0000  10.0000  -3.0000 Du        
   2697 ****        32.0000  10.0000  -2.7500 Du        
   2698 ****        32.0000  10.0000  -2.5000 Du        
   2699 ****        32.0000  10.0000  -2.2500 Du        
   2700 ****        32.0000  10.0000  -2.0000 Du        
   2701 ****        32.0000  10.0000  -1.7500 Du        
   2702 ****        32.0000  10.0000  -1.5000 Du        
   2703 ****        32.0000  10.2500  -5.5000 Du        
   2704 ****        32.0000  10.2500  -5.2500 Du        
   2705 ****        32.0000  10.2500  -5.0000 Du        
   2706 ****        32.0000  10.2500  -4.7500 Du        
   2707 ****        32.0000  10.2500  -4.5000 Du        
   2708 ****        32.0000  10.2500  -4.2500 Du        
   2709 ****        32.0000  10.2500  -4.0000 Du        
   2710 ****        32.0000  10.2500  -3.7500 Du        
   2711 ****        32.0000  10.2500  -3.5000 Du        
   2712 ****        32.0000  10.2500  -3.2500 Du        
   2713 ****        32.0000  10.2500  -3.0000 Du        
   2714 ****        32.0000  10.2500  -2.7500 Du        
   2715 ****        32.0000  10.2500  -2.5000 Du        
   2716 ****        32.0000  10.2500  -2.2500 Du        
   2717 ****        32.0000  10.2500  -2.0000 Du        
   2718 ****        32.0000  10.2500  -1.7500 Du        
   2719 ****        32.0000  10.5000  -5.2500 Du        
   2720 ****        32.0000  10.5000  -5.0000 Du        
   2721 ****        32.0000  10.5000  -4.7500 Du        
   2722 ****        32.0000  10.5000  -4.5000 Du        
   2723 ****        32.0000  10.5000  -4.2500 Du        
   2724 ****        32.0000  10.5000  -4.0000 Du        
   2725 ****        32.0000  10.5000  -3.7500 Du        
   2726 ****        32.0000  10.5000  -3.5000 Du        
   2727 ****        32.0000  10.5000  -3.2500 Du        
   2728 ****        32.0000  10.5000  -3.0000 Du        
   2729 ****        32.0000  10.5000  -2.7500 Du        
   2730 ****        32.0000  10.5000  -2.5000 Du        
   2731 ****        32.0000  10.5000  -2.2500 Du        
   2732 ****        32.0000  10.7500  -5.0000 Du        
   2733 ****        32.0000  10.7500  -4.7500 Du        
   2734 ****        32.0000  10.7500  -4.5000 Du        
   2735 ****        32.0000  10.7500  -4.2500 Du        
   2736 ****        32.0000  10.7500  -4.0000 Du        
   2737 ****        32.0000  10.7500  -3.7500 Du        
   2738 ****        32.2500   9.5000  -2.0000 Du        
   2739 ****        32.2500   9.5000  -1.7500 Du        
   2740 ****        32.2500   9.7500  -2.7500 Du        
   2741 ****        32.2500   9.7500  -2.5000 Du        
   2742 ****        32.2500   9.7500  -2.2500 Du        
   2743 ****        32.2500   9.7500  -2.0000 Du        
   2744 ****        32.2500   9.7500  -1.7500 Du        
   2745 ****        32.2500   9.7500  -1.5000 Du        
   2746 ****        32.2500  10.0000  -5.2500 Du        
   2747 ****        32.2500  10.0000  -5.0000 Du        
   2748 ****        32.2500  10.0000  -4.7500 Du        
   2749 ****        32.2500  10.0000  -4.5000 Du        
   2750 ****        32.2500  10.0000  -4.2500 Du        
   2751 ****        32.2500  10.0000  -4.0000 Du        
   2752 ****        32.2500  10.0000  -3.7500 Du        
   2753 ****        32.2500  10.0000  -3.5000 Du        
   2754 ****        32.2500  10.0000  -3.2500 Du        
   2755 ****        32.2500  10.0000  -3.0000 Du        
   2756 ****        32.2500  10.0000  -2.7500 Du        
   2757 ****        32.2500  10.0000  -2.5000 Du        
   2758 ****        32.2500  10.0000  -2.2500 Du        
   2759 ****        32.2500  10.0000  -2.0000 Du        
   2760 ****        32.2500  10.0000  -1.7500 Du        
   2761 ****        32.2500  10.0000  -1.5000 Du        
   2762 ****        32.2500  10.2500  -5.5000 Du        
   2763 ****        32.2500  10.2500  -5.2500 Du        
   2764 ****        32.2500  10.2500  -5.0000 Du        
   2765 ****        32.2500  10.2500  -4.7500 Du        
   2766 ****        32.2500  10.2500  -4.5000 Du        
   2767 ****        32.2500  10.2500  -4.2500 Du        
   2768 ****        32.2500  10.2500  -4.0000 Du        
   2769 ****        32.2500  10.2500  -3.7500 Du        
   2770 ****        32.2500  10.2500  -3.5000 Du        
   2771 ****        32.2500  10.2500  -3.2500 Du        
   2772 ****        32.2500  10.2500  -3.0000 Du        
   2773 ****        32.2500  10.2500  -2.7500 Du        
   2774 ****        32.2500  10.2500  -2.5000 Du        
   2775 ****        32.2500  10.2500  -2.2500 Du        
   2776 ****        32.2500  10.2500  -2.0000 Du        
   2777 ****        32.2500  10.2500  -1.7500 Du        
   2778 ****        32.2500  10.5000  -5.2500 Du        
   2779 ****        32.2500  10.5000  -5.0000 Du        
   2780 ****        32.2500  10.5000  -4.7500 Du        
   2781 ****        32.2500  10.5000  -4.5000 Du        
   2782 ****        32.2500  10.5000  -4.2500 Du        
   2783 ****        32.2500  10.5000  -4.0000 Du        
   2784 ****        32.2500  10.5000  -3.7500 Du        
   2785 ****        32.2500  10.5000  -3.5000 Du        
   2786 ****        32.2500  10.5000  -3.2500 Du        
   2787 ****        32.2500  10.5000  -3.0000 Du        
   2788 ****        32.2500  10.5000  -2.7500 Du        
   2789 ****        32.2500  10.5000  -2.5000 Du        
   2790 ****        32.2500  10.5000  -2.2500 Du        
   2791 ****        32.2500  10.7500  -5.0000 Du        
   2792 ****        32.2500  10.7500  -4.7500 Du        
   2793 ****        32.2500  10.7500  -4.5000 Du        
   2794 ****        32.2500  10.7500  -4.2500 Du        
   2795 ****        32.5000   9.5000  -2.2500 Du        
   2796 ****        32.5000   9.5000  -2.0000 Du        
   2797 ****        32.5000   9.7500  -3.0000 Du        
   2798 ****        32.5000   9.7500  -2.7500 Du        
   2799 ****        32.5000   9.7500  -2.5000 Du        
   2800 ****        32.5000   9.7500  -2.2500 Du        
   2801 ****        32.5000   9.7500  -2.0000 Du        
   2802 ****        32.5000   9.7500  -1.7500 Du        
   2803 ****        32.5000  10.0000  -4.7500 Du        
   2804 ****        32.5000  10.0000  -4.5000 Du        
   2805 ****        32.5000  10.0000  -4.2500 Du        
   2806 ****        32.5000  10.0000  -4.0000 Du        
   2807 ****        32.5000  10.0000  -3.7500 Du        
   2808 ****        32.5000  10.0000  -3.5000 Du        
   2809 ****        32.5000  10.0000  -3.2500 Du        
   2810 ****        32.5000  10.0000  -3.0000 Du        
   2811 ****        32.5000  10.0000  -2.7500 Du        
   2812 ****        32.5000  10.0000  -2.5000 Du        
   2813 ****        32.5000  10.0000  -2.2500 Du        
   2814 ****        32.5000  10.0000  -2.0000 Du        
   2815 ****        32.5000  10.0000  -1.7500 Du        
   2816 ****        32.5000  10.2500  -5.2500 Du        
   2817 ****        32.5000  10.2500  -5.0000 Du        
   2818 ****        32.5000  10.2500  -4.7500 Du        
   2819 ****        32.5000  10.2500  -4.5000 Du        
   2820 ****        32.5000  10.2500  -4.2500 Du        
   2821 ****        32.5000  10.2500  -4.0000 Du        
   2822 ****        32.5000  10.2500  -3.7500 Du        
   2823 ****        32.5000  10.2500  -3.5000 Du        
   2824 ****        32.5000  10.2500  -3.2500 Du        
   2825 ****        32.5000  10.2500  -3.0000 Du        
   2826 ****        32.5000  10.2500  -2.7500 Du        
   2827 ****        32.5000  10.2500  -2.5000 Du        
   2828 ****        32.5000  10.2500  -2.2500 Du        
   2829 ****        32.5000  10.2500  -2.0000 Du        
   2830 ****        32.5000  10.2500  -1.7500 Du        
   2831 ****        32.5000  10.5000  -5.0000 Du        
   2832 ****        32.5000  10.5000  -4.7500 Du        
   2833 ****        32.5000  10.5000  -4.5000 Du        
   2834 ****        32.5000  10.5000  -4.2500 Du        
   2835 ****        32.5000  10.5000  -4.0000 Du        
   2836 ****        32.5000  10.5000  -3.7500 Du        
   2837 ****        32.5000  10.5000  -3.5000 Du        
   2838 ****        32.5000  10.5000  -3.2500 Du        
   2839 ****        32.5000  10.5000  -3.0000 Du        
   2840 ****        32.5000  10.5000  -2.7500 Du        
   2841 ****        32.5000  10.5000  -2.5000 Du        
   2842 ****        32.7500   9.5000  -2.5000 Du        
   2843 ****        32.7500   9.5000  -2.2500 Du        
   2844 ****        32.7500   9.5000  -2.0000 Du        
   2845 ****        32.7500   9.7500  -3.2500 Du        
   2846 ****        32.7500   9.7500  -3.0000 Du        
   2847 ****        32.7500   9.7500  -2.7500 Du        
   2848 ****        32.7500   9.7500  -2.5000 Du        
   2849 ****        32.7500   9.7500  -2.2500 Du        
   2850 ****        32.7500   9.7500  -2.0000 Du        
   2851 ****        32.7500   9.7500  -1.7500 Du        
   2852 ****        32.7500  10.0000  -4.0000 Du        
   2853 ****        32.7500  10.0000  -3.7500 Du        
   2854 ****        32.7500  10.0000  -3.5000 Du        
   2855 ****        32.7500  10.0000  -3.2500 Du        
   2856 ****        32.7500  10.0000  -3.0000 Du        
   2857 ****        32.7500  10.0000  -2.7500 Du        
   2858 ****        32.7500  10.0000  -2.5000 Du        
   2859 ****        32.7500  10.0000  -2.2500 Du        
   2860 ****        32.7500  10.0000  -2.0000 Du        
   2861 ****        32.7500  10.0000  -1.7500 Du        
   2862 ****        32.7500  10.2500  -4.2500 Du        
   2863 ****        32.7500  10.2500  -4.0000 Du        
   2864 ****        32.7500  10.2500  -3.7500 Du        
   2865 ****        32.7500  10.2500  -3.5000 Du        
   2866 ****        32.7500  10.2500  -3.2500 Du        
   2867 ****        32.7500  10.2500  -3.0000 Du        
   2868 ****        32.7500  10.2500  -2.7500 Du        
   2869 ****        32.7500  10.2500  -2.5000 Du        
   2870 ****        32.7500  10.2500  -2.2500 Du        
   2871 ****        32.7500  10.2500  -2.0000 Du        
   2872 ****        32.7500  10.2500  -1.7500 Du        
   2873 ****        32.7500  10.5000  -4.2500 Du        
   2874 ****        32.7500  10.5000  -4.0000 Du        
   2875 ****        32.7500  10.5000  -3.7500 Du        
   2876 ****        32.7500  10.5000  -3.5000 Du        
   2877 ****        32.7500  10.5000  -3.2500 Du        
   2878 ****        33.0000   9.5000  -2.7500 Du        
   2879 ****        33.0000   9.5000  -2.5000 Du        
   2880 ****        33.0000   9.5000  -2.2500 Du        
   2881 ****        33.0000   9.5000  -2.0000 Du        
   2882 ****        33.0000   9.7500  -3.5000 Du        
   2883 ****        33.0000   9.7500  -3.2500 Du        
   2884 ****        33.0000   9.7500  -3.0000 Du        
   2885 ****        33.0000   9.7500  -2.7500 Du        
   2886 ****        33.0000   9.7500  -2.5000 Du        
   2887 ****        33.0000   9.7500  -2.2500 Du        
   2888 ****        33.0000   9.7500  -2.0000 Du        
   2889 ****        33.0000  10.0000  -3.7500 Du        
   2890 ****        33.0000  10.0000  -3.5000 Du        
   2891 ****        33.0000  10.0000  -3.2500 Du        
   2892 ****        33.0000  10.0000  -3.0000 Du        
   2893 ****        33.0000  10.0000  -2.7500 Du        
   2894 ****        33.0000  10.0000  -2.5000 Du        
   2895 ****        33.0000  10.0000  -2.2500 Du        
   2896 ****        33.0000  10.0000  -2.0000 Du        
   2897 ****        33.0000  10.2500  -3.7500 Du        
   2898 ****        33.0000  10.2500  -3.5000 Du        
   2899 ****        33.0000  10.2500  -3.2500 Du        
   2900 ****        33.0000  10.2500  -3.0000 Du        
   2901 ****        33.0000  10.2500  -2.7500 Du        
   2902 ****        33.0000  10.2500  -2.5000 Du        
   2903 ****        33.0000  10.2500  -2.2500 Du        
   2904 ****        33.0000  10.2500  -2.0000 Du        
   2905 ****        33.2500   9.5000  -2.7500 Du        
   2906 ****        33.2500   9.5000  -2.5000 Du        
   2907 ****        33.2500   9.5000  -2.2500 Du        
   2908 ****        33.2500   9.7500  -3.2500 Du        
   2909 ****        33.2500   9.7500  -3.0000 Du        
   2910 ****        33.2500   9.7500  -2.7500 Du        
   2911 ****        33.2500   9.7500  -2.5000 Du        
   2912 ****        33.2500   9.7500  -2.2500 Du        
   2913 ****        33.2500  10.0000  -3.5000 Du        
   2914 ****        33.2500  10.0000  -3.2500 Du        
   2915 ****        33.2500  10.0000  -3.0000 Du        
   2916 ****        33.2500  10.0000  -2.7500 Du        
   2917 ****        33.2500  10.0000  -2.5000 Du        
   2918 ****        33.2500  10.0000  -2.2500 Du        
   2919 ****        33.2500  10.2500  -3.2500 Du        
   2920 ****        33.2500  10.2500  -3.0000 Du        
