#       Name:                CT1002167954
#       Creating user name   hitesit
#       Creation time:       Sun Apr 16 22:50:13 2023


#       File generated by GOLD software.
#

@<TRIPOS>MOLECULE
CT1002167954|ligand_prepared|mol2|1|dock7
    29    30     1
SMALL
NO_CHARGES


@<TRIPOS>ATOM
      1 C1          27.1624   8.7678  -3.8982 C.3            1 RES1               0.0000
      2 C2          28.5213   9.4968  -3.8741 C.ar           1 RES1               0.0000
      3 C3          27.4761   7.2751  -3.8563 C.2            1 RES1               0.0000
      4 C4          26.3850   9.2743  -2.6883 C.2            1 RES1               0.0000
      5 C5          26.3202   9.0574  -5.1625 C.3            1 RES1               0.0000
      6 C6          29.1165   9.8467  -2.6658 C.ar           1 RES1               0.0000
      7 C7          29.1919   9.8231  -5.0499 C.ar           1 RES1               0.0000
      8 N8          27.2414   6.6127  -2.6875 N.am           1 RES1               0.0000
      9 O9          27.9592   6.6963  -4.8216 O.2            1 RES1               0.0000
     10 N10         26.0996   8.3815  -1.6887 N.am           1 RES1               0.0000
     11 O11         26.0317  10.4424  -2.5838 O.2            1 RES1               0.0000
     12 C12         24.9510   8.3961  -5.1520 C.3            1 RES1               0.0000
     13 C13         30.3391  10.4966  -2.6338 C.ar           1 RES1               0.0000
     14 C14         30.4145  10.4732  -5.0157 C.ar           1 RES1               0.0000
     15 C15         26.5191   7.0809  -1.6194 C.2            1 RES1               0.0000
     16 C16         30.9891  10.8099  -3.8085 C.ar           1 RES1               0.0000
     17 O17         26.2679   6.3555  -0.6614 O.2            1 RES1               0.0000
     18 H18         26.1878  10.1422  -5.2576 H              1 RES1               0.0000
     19 H19         26.8739   8.7087  -6.0430 H              1 RES1               0.0000
     20 H20         28.6187   9.6105  -1.7312 H              1 RES1               0.0000
     21 H21         28.7583   9.5690  -6.0111 H              1 RES1               0.0000
     22 H22         27.6397   5.6833  -2.5994 H              1 RES1               0.0000
     23 H23         25.5205   8.7174  -0.9257 H              1 RES1               0.0000
     24 H24         24.4020   8.6315  -6.0613 H              1 RES1               0.0000
     25 H25         25.0456   7.3144  -5.0836 H              1 RES1               0.0000
     26 H26         24.3635   8.7393  -4.3029 H              1 RES1               0.0000
     27 H27         30.7865  10.7605  -1.6812 H              1 RES1               0.0000
     28 H28         30.9222  10.7184  -5.9427 H              1 RES1               0.0000
     29 H29         31.9471  11.3186  -3.7832 H              1 RES1               0.0000
@<TRIPOS>BOND
    1    1    2 1     
    2    1    3 1     
    3    1    4 1     
    4    1    5 1     
    5    2    6 ar    
    6    2    7 ar    
    7    3    8 1     
    8    3    9 2     
    9    4   10 1     
   10    4   11 2     
   11    5   12 1     
   12    5   18 1     
   13    5   19 1     
   14    6   13 ar    
   15    6   20 1     
   16    7   14 ar    
   17    7   21 1     
   18    8   15 1     
   19    8   22 1     
   20   10   15 1     
   21   10   23 1     
   22   12   24 1     
   23   12   25 1     
   24   12   26 1     
   25   13   16 ar    
   26   13   27 1     
   27   14   16 ar    
   28   14   28 1     
   29   15   17 2     
   30   16   29 1     
@<TRIPOS>SUBSTRUCTURE
      1 RES1           1
@<TRIPOS>SET
DONOR_HYDROGENS      STATIC     ATOMS    <user>   **** ""
2 22 23
ATOM$RED        STATIC     ATOMS    COLORGROUP SYSTEM
2 22 23
@<TRIPOS>COMMENT
> <Gold.Version>
2022.3.0

> <Gold.Id.Protein>
unknown|3nx8_clean|pdb

> <Gold.Protein.RotatedTorsions>
[ 1752 1744 1743 1741 ] final  -39.32 input   60.01 | X-H torsion
[ 2770 2763 2761 2758 ] final -109.27 input   60.01 | X-H torsion
[ 5056 5047 5046 5044 ] final   91.90 input   59.99 | X-H torsion

> <Gold.Protein.ActiveResidues>
 LEU49   GLY50   THR51   GLY52   ARG56   VAL57   MET58   LEU59   VAL60   HIS68  
 TYR69   ALA70   MET71   LYS72   LEU95   VAL104  LYS105  MET118  VAL119  MET120 
 GLU121  TYR122  VAL123  PRO124  GLY125  GLY126  GLU127  GLU170  ASN171  LEU173 
 ILE174  GLN181  VAL182  THR183  ASP184  PHE327  TYR330 

> <Gold.Protein.RotatedAtoms>
   34.2754   11.1090  -10.7153 H   0  0  0  0  0  0  0  0  0  0  0  0  # atno 1752 bound_to 1744
   28.7858    8.4937    0.1736 H   0  0  0  0  0  0  0  0  0  0  0  0  # atno 2770 bound_to 2763
   23.2261   10.1424   -8.5461 H   0  0  0  0  0  0  0  0  0  0  0  0  # atno 5056 bound_to 5047
   35.6462   11.6618  -11.3962 LP  0  0  0  0  0  0  0  0  0  0  0  0  # atno 5370 bound_to 1744
   34.4356   12.6965  -11.0353 LP  0  0  0  0  0  0  0  0  0  0  0  0  # atno 5371 bound_to 1744
   30.4004    8.6846    0.0967 LP  0  0  0  0  0  0  0  0  0  0  0  0  # atno 5378 bound_to 2763
   29.7067    8.1175    1.4619 LP  0  0  0  0  0  0  0  0  0  0  0  0  # atno 5379 bound_to 2763

> <Gold.Score>
     Fitness  S(hb_ext) S(vdw_ext)  S(hb_int)    S(int)      intcor
     34.80       0.38      26.00       0.00      -1.33      -0.76

> <Gold.Goldscore.Fitness>
34.7992

> <Gold.Goldscore.Internal.Vdw>
-1.7089

> <Gold.Goldscore.Internal.Torsion>
-0.3817

> <Gold.Goldscore.External.Vdw>
26.0022

> <Gold.Goldscore.Internal.HBond>
0.0000

> <Gold.Goldscore.External.HBond>
0.3783

> <Gold.Goldscore.Internal.Correction>
-0.7585

> <Gold.Goldscore.Hbonds>
donor molecule, donor type, donor heavy atom, donor atom, acceptor molecule, acceptor atom, score
      L1  H    10    23       P1  2777  0.06

> <Gold.Goldscore.Internal.Vdw.Weighted>
-1.7089

> <Gold.Goldscore.Internal.Torsion.Weighted>
-0.3817

> <Gold.Goldscore.External.Vdw.Weighted>
35.7530

> <Gold.Goldscore.Internal.HBond.Weighted>
0.0000

> <Gold.Goldscore.External.HBond.Weighted>
0.3783

> <Gold.Goldscore.Internal.Correction.Weighted>
-0.7585

> <Gold.Rescore>
     Score     S(PLP)   S(hbond)     S(cho)   S(metal)  DE(clash)   DE(tors)     intcor
     15.68     -17.32       0.22       0.00       0.00       0.00       1.15       ----

> <Gold.PLP.Fitness>
15.6758

> <Gold.PLP.PLP>
-17.3209

> <Gold.PLP.part.hbond>
-1.0000

> <Gold.PLP.part.metal>
0.0000

> <Gold.PLP.part.buried>
12.6711

> <Gold.PLP.part.nonpolar>
-35.8548

> <Gold.PLP.part.repulsive>
6.2588

> <Gold.PLP.ligand.clash>
0.0000

> <Gold.PLP.ligand.torsion>
1.1455

> <Gold.PLP.Chemscore.Hbond>
0.2153

> <Gold.PLP.Chemscore.CHOScore>
0.0000

> <Gold.PLP.Chemscore.Metal>
0.0000

> <Gold.PLP.Chemscore.Internal.Correction>
   9.000000E+99

