#       Name:                CT1002167954
#       Creating user name   hitesit
#       Creation time:       Sun Apr 16 22:50:12 2023


#       File generated by GOLD software.
#

@<TRIPOS>MOLECULE
CT1002167954|ligand_prepared|mol2|1|dock6
    29    30     1
SMALL
NO_CHARGES


@<TRIPOS>ATOM
      1 C1          27.0417   9.0896  -3.9446 C.3            1 RES1               0.0000
      2 C2          28.4844   9.6234  -3.8339 C.ar           1 RES1               0.0000
      3 C3          27.1570   7.5811  -4.1434 C.2            1 RES1               0.0000
      4 C4          26.3366   9.4950  -2.6550 C.2            1 RES1               0.0000
      5 C5          26.2456   9.6819  -5.1308 C.3            1 RES1               0.0000
      6 C6          29.2152   9.9329  -4.9771 C.ar           1 RES1               0.0000
      7 C7          29.0960   9.8138  -2.5976 C.ar           1 RES1               0.0000
      8 N8          26.8367   6.7784  -3.0884 N.am           1 RES1               0.0000
      9 O9          27.5608   7.1045  -5.1970 O.2            1 RES1               0.0000
     10 N10         25.9359   8.5000  -1.8022 N.am           1 RES1               0.0000
     11 O11         26.1393  10.6677  -2.3618 O.2            1 RES1               0.0000
     12 C12         24.8037   9.2044  -5.2009 C.3            1 RES1               0.0000
     13 C13         30.5094  10.4179  -4.8877 C.ar           1 RES1               0.0000
     14 C14         30.3905  10.2988  -2.5105 C.ar           1 RES1               0.0000
     15 C15         26.1814   7.1616  -1.9459 C.2            1 RES1               0.0000
     16 C16         31.0977  10.6016  -3.6545 C.ar           1 RES1               0.0000
     17 O17         25.8366   6.3327  -1.1085 O.2            1 RES1               0.0000
     18 H18         26.2518  10.7758  -5.0491 H              1 RES1               0.0000
     19 H19         26.7525   9.4126  -6.0658 H              1 RES1               0.0000
     20 H20         28.7697   9.7925  -5.9563 H              1 RES1               0.0000
     21 H21         28.5590   9.5812  -1.6843 H              1 RES1               0.0000
     22 H22         27.1098   5.8031  -3.1551 H              1 RES1               0.0000
     23 H23         25.4053   8.7834  -0.9845 H              1 RES1               0.0000
     24 H24         24.2907   9.6498  -6.0508 H              1 RES1               0.0000
     25 H25         24.7603   8.1226  -5.3079 H              1 RES1               0.0000
     26 H26         24.2626   9.4776  -4.2973 H              1 RES1               0.0000
     27 H27         31.0622  10.6535  -5.7911 H              1 RES1               0.0000
     28 H28         30.8498  10.4412  -1.5379 H              1 RES1               0.0000
     29 H29         32.1115  10.9820  -3.5847 H              1 RES1               0.0000
@<TRIPOS>BOND
    1    1    2 1     
    2    1    3 1     
    3    1    4 1     
    4    1    5 1     
    5    2    6 ar    
    6    2    7 ar    
    7    3    8 1     
    8    3    9 2     
    9    4   10 1     
   10    4   11 2     
   11    5   12 1     
   12    5   18 1     
   13    5   19 1     
   14    6   13 ar    
   15    6   20 1     
   16    7   14 ar    
   17    7   21 1     
   18    8   15 1     
   19    8   22 1     
   20   10   15 1     
   21   10   23 1     
   22   12   24 1     
   23   12   25 1     
   24   12   26 1     
   25   13   16 ar    
   26   13   27 1     
   27   14   16 ar    
   28   14   28 1     
   29   15   17 2     
   30   16   29 1     
@<TRIPOS>SUBSTRUCTURE
      1 RES1           1
@<TRIPOS>SET
DONOR_HYDROGENS      STATIC     ATOMS    <user>   **** ""
2 22 23
ATOM$RED        STATIC     ATOMS    COLORGROUP SYSTEM
2 22 23
@<TRIPOS>COMMENT
> <Gold.Version>
2022.3.0

> <Gold.Id.Protein>
unknown|3nx8_clean|pdb

> <Gold.Protein.RotatedTorsions>
[ 1752 1744 1743 1741 ] final   67.28 input   60.01 | X-H torsion
[ 2770 2763 2761 2758 ] final  -80.64 input   60.01 | X-H torsion
[ 5056 5047 5046 5044 ] final   98.51 input   59.99 | X-H torsion

> <Gold.Protein.ActiveResidues>
 LEU49   GLY50   THR51   GLY52   ARG56   VAL57   MET58   LEU59   VAL60   HIS68  
 TYR69   ALA70   MET71   LYS72   LEU95   VAL104  LYS105  MET118  VAL119  MET120 
 GLU121  TYR122  VAL123  PRO124  GLY125  GLY126  GLU127  GLU170  ASN171  LEU173 
 ILE174  GLN181  VAL182  THR183  ASP184  PHE327  TYR330 

> <Gold.Protein.RotatedAtoms>
   34.2657   12.5931  -10.9428 H   0  0  0  0  0  0  0  0  0  0  0  0  # atno 1752 bound_to 1744
   28.6983    8.3301    0.5980 H   0  0  0  0  0  0  0  0  0  0  0  0  # atno 2770 bound_to 2763
   23.1238   10.1409   -8.5113 H   0  0  0  0  0  0  0  0  0  0  0  0  # atno 5056 bound_to 5047
   34.4468   10.9848  -10.7729 LP  0  0  0  0  0  0  0  0  0  0  0  0  # atno 5370 bound_to 1744
   35.6448   11.8793  -11.4296 LP  0  0  0  0  0  0  0  0  0  0  0  0  # atno 5371 bound_to 1744
   30.0497    8.7586   -0.2015 LP  0  0  0  0  0  0  0  0  0  0  0  0  # atno 5378 bound_to 2763
   30.1455    8.2082    1.3329 LP  0  0  0  0  0  0  0  0  0  0  0  0  # atno 5379 bound_to 2763

> <Gold.Score>
     Fitness  S(hb_ext) S(vdw_ext)  S(hb_int)    S(int)      intcor
     34.21       0.46      25.89       0.00      -1.85      -0.76

> <Gold.Goldscore.Fitness>
34.2082

> <Gold.Goldscore.Internal.Vdw>
-2.2343

> <Gold.Goldscore.Internal.Torsion>
-0.3766

> <Gold.Goldscore.External.Vdw>
25.8927

> <Gold.Goldscore.Internal.HBond>
0.0000

> <Gold.Goldscore.External.HBond>
0.4581

> <Gold.Goldscore.Internal.Correction>
-0.7585

> <Gold.Goldscore.Hbonds>
donor molecule, donor type, donor heavy atom, donor atom, acceptor molecule, acceptor atom, score
      L1  H    10    23       P1  2777  0.08

> <Gold.Goldscore.Internal.Vdw.Weighted>
-2.2343

> <Gold.Goldscore.Internal.Torsion.Weighted>
-0.3766

> <Gold.Goldscore.External.Vdw.Weighted>
35.6024

> <Gold.Goldscore.Internal.HBond.Weighted>
0.0000

> <Gold.Goldscore.External.HBond.Weighted>
0.4581

> <Gold.Goldscore.Internal.Correction.Weighted>
-0.7585

> <Gold.Rescore>
     Score     S(PLP)   S(hbond)     S(cho)   S(metal)  DE(clash)   DE(tors)     intcor
     15.57     -16.83       0.23       0.00       0.00       0.00       0.98       ----

> <Gold.PLP.Fitness>
15.5672

> <Gold.PLP.PLP>
-16.8338

> <Gold.PLP.part.hbond>
-0.9513

> <Gold.PLP.part.metal>
0.0000

> <Gold.PLP.part.buried>
12.4400

> <Gold.PLP.part.nonpolar>
-35.1678

> <Gold.PLP.part.repulsive>
6.1025

> <Gold.PLP.ligand.clash>
0.0000

> <Gold.PLP.ligand.torsion>
0.9831

> <Gold.PLP.Chemscore.Hbond>
0.2332

> <Gold.PLP.Chemscore.CHOScore>
0.0000

> <Gold.PLP.Chemscore.Metal>
0.0000

> <Gold.Chemscore.Hbonds>
donor molecule, donor type, donor heavy atom, donor atom, acceptor molecule, acceptor atom, score
      L1  H     8    22       P1  2555  0.05

> <Gold.PLP.Chemscore.Internal.Correction>
   9.000000E+99

