#       Name:                CT1002167954
#       Creating user name   hitesit
#       Creation time:       Sun Apr 16 22:50:08 2023


#       File generated by GOLD software.
#

@<TRIPOS>MOLECULE
CT1002167954|ligand_prepared|mol2|1|dock2
    29    30     1
SMALL
NO_CHARGES


@<TRIPOS>ATOM
      1 C1          26.0156   9.8500  -2.6536 C.3            1 RES1               0.0000
      2 C2          27.5056   9.9529  -3.0386 C.ar           1 RES1               0.0000
      3 C3          25.9756   9.6793  -1.1378 C.2            1 RES1               0.0000
      4 C4          25.3565  11.1309  -3.1531 C.2            1 RES1               0.0000
      5 C5          25.2840   8.6519  -3.3023 C.3            1 RES1               0.0000
      6 C6          27.9033   9.8429  -4.3676 C.ar           1 RES1               0.0000
      7 C7          28.4919  10.1601  -2.0778 C.ar           1 RES1               0.0000
      8 N8          25.5751  10.7486  -0.3920 N.am           1 RES1               0.0000
      9 O9          26.3278   8.6353  -0.6028 O.2            1 RES1               0.0000
     10 N10         24.8562  12.0014  -2.2205 N.am           1 RES1               0.0000
     11 O11         25.2807  11.4021  -4.3451 O.2            1 RES1               0.0000
     12 C12         26.0737   7.3532  -3.2559 C.3            1 RES1               0.0000
     13 C13         29.2383   9.9394  -4.7238 C.ar           1 RES1               0.0000
     14 C14         29.8264  10.2561  -2.4362 C.ar           1 RES1               0.0000
     15 C15         24.9630  11.8828  -0.8615 C.2            1 RES1               0.0000
     16 C16         30.2005  10.1465  -3.7586 C.ar           1 RES1               0.0000
     17 O17         24.5354  12.7349  -0.0880 O.2            1 RES1               0.0000
     18 H18         24.3270   8.5018  -2.7875 H              1 RES1               0.0000
     19 H19         25.0668   8.8958  -4.3495 H              1 RES1               0.0000
     20 H20         27.1605   9.6774  -5.1408 H              1 RES1               0.0000
     21 H21         28.2208  10.2483  -1.0312 H              1 RES1               0.0000
     22 H22         25.7467  10.7004   0.6073 H              1 RES1               0.0000
     23 H23         24.3579  12.8129  -2.5719 H              1 RES1               0.0000
     24 H24         25.5153   6.5454  -3.7242 H              1 RES1               0.0000
     25 H25         27.0210   7.4588  -3.7805 H              1 RES1               0.0000
     26 H26         26.2856   7.0672  -2.2277 H              1 RES1               0.0000
     27 H27         29.5277   9.8511  -5.7658 H              1 RES1               0.0000
     28 H28         30.5804  10.4185  -1.6731 H              1 RES1               0.0000
     29 H29         31.2462  10.2225  -4.0379 H              1 RES1               0.0000
@<TRIPOS>BOND
    1    1    2 1     
    2    1    3 1     
    3    1    4 1     
    4    1    5 1     
    5    2    6 ar    
    6    2    7 ar    
    7    3    8 1     
    8    3    9 2     
    9    4   10 1     
   10    4   11 2     
   11    5   12 1     
   12    5   18 1     
   13    5   19 1     
   14    6   13 ar    
   15    6   20 1     
   16    7   14 ar    
   17    7   21 1     
   18    8   15 1     
   19    8   22 1     
   20   10   15 1     
   21   10   23 1     
   22   12   24 1     
   23   12   25 1     
   24   12   26 1     
   25   13   16 ar    
   26   13   27 1     
   27   14   16 ar    
   28   14   28 1     
   29   15   17 2     
   30   16   29 1     
@<TRIPOS>SUBSTRUCTURE
      1 RES1           1
@<TRIPOS>SET
DONOR_HYDROGENS      STATIC     ATOMS    <user>   **** ""
2 22 23
ATOM$RED        STATIC     ATOMS    COLORGROUP SYSTEM
2 22 23
@<TRIPOS>COMMENT
> <Gold.Version>
2022.3.0

> <Gold.Id.Protein>
unknown|3nx8_clean|pdb

> <Gold.Protein.RotatedTorsions>
[ 1752 1744 1743 1741 ] final   77.97 input   60.01 | X-H torsion
[ 2770 2763 2761 2758 ] final  -98.53 input   60.01 | X-H torsion
[ 5056 5047 5046 5044 ] final  143.81 input   59.99 | X-H torsion

> <Gold.Protein.ActiveResidues>
 LEU49   GLY50   THR51   GLY52   ARG56   VAL57   MET58   LEU59   VAL60   HIS68  
 TYR69   ALA70   MET71   LYS72   LEU95   VAL104  LYS105  MET118  VAL119  MET120 
 GLU121  TYR122  VAL123  PRO124  GLY125  GLY126  GLU127  GLU170  ASN171  LEU173 
 ILE174  GLN181  VAL182  THR183  ASP184  PHE327  TYR330 

> <Gold.Protein.RotatedAtoms>
   34.4021   12.6748  -11.0144 H   0  0  0  0  0  0  0  0  0  0  0  0  # atno 1752 bound_to 1744
   28.7264    8.4320    0.3265 H   0  0  0  0  0  0  0  0  0  0  0  0  # atno 2770 bound_to 2763
   22.4114   10.0681   -8.5955 H   0  0  0  0  0  0  0  0  0  0  0  0  # atno 5056 bound_to 5047
   34.3045   11.0763  -10.7258 LP  0  0  0  0  0  0  0  0  0  0  0  0  # atno 5370 bound_to 1744
   35.6498   11.7056  -11.4046 LP  0  0  0  0  0  0  0  0  0  0  0  0  # atno 5371 bound_to 1744
   30.2872    8.7209   -0.0337 LP  0  0  0  0  0  0  0  0  0  0  0  0  # atno 5378 bound_to 2763
   29.8796    8.1433    1.4383 LP  0  0  0  0  0  0  0  0  0  0  0  0  # atno 5379 bound_to 2763

> <Gold.Score>
     Fitness  S(hb_ext) S(vdw_ext)  S(hb_int)    S(int)      intcor
     41.65       0.23      32.36       0.00      -3.07      -0.79

> <Gold.Goldscore.Fitness>
41.6470

> <Gold.Goldscore.Internal.Vdw>
-3.1072

> <Gold.Goldscore.Internal.Torsion>
-0.7542

> <Gold.Goldscore.External.Vdw>
32.3569

> <Gold.Goldscore.Internal.HBond>
0.0000

> <Gold.Goldscore.External.HBond>
0.2305

> <Gold.Goldscore.Internal.Correction>
-0.7872

> <Gold.Goldscore.Hbonds>
donor molecule, donor type, donor heavy atom, donor atom, acceptor molecule, acceptor atom, score
      P1  H  2763  2770       L1     9  0.12

> <Gold.Goldscore.Internal.Vdw.Weighted>
-3.1072

> <Gold.Goldscore.Internal.Torsion.Weighted>
-0.7542

> <Gold.Goldscore.External.Vdw.Weighted>
44.4907

> <Gold.Goldscore.Internal.HBond.Weighted>
0.0000

> <Gold.Goldscore.External.HBond.Weighted>
0.2305

> <Gold.Goldscore.Internal.Correction.Weighted>
-0.7872

> <Gold.Rescore>
     Score     S(PLP)   S(hbond)     S(cho)   S(metal)  DE(clash)   DE(tors)     intcor
     20.36     -19.20       1.00       0.00       0.00       0.86       0.49       ----

> <Gold.PLP.Fitness>
20.3560

> <Gold.PLP.PLP>
-19.2026

> <Gold.PLP.part.hbond>
-3.3516

> <Gold.PLP.part.metal>
0.0000

> <Gold.PLP.part.buried>
10.7871

> <Gold.PLP.part.nonpolar>
-31.3286

> <Gold.PLP.part.repulsive>
3.5061

> <Gold.PLP.ligand.clash>
0.8599

> <Gold.PLP.ligand.torsion>
0.4933

> <Gold.PLP.Chemscore.Hbond>
1.0000

> <Gold.PLP.Chemscore.CHOScore>
0.0000

> <Gold.PLP.Chemscore.Metal>
0.0000

> <Gold.PLP.Chemscore.Internal.Correction>
   9.000000E+99

