#       Name:                CT1002167954
#       Creating user name   hitesit
#       Creation time:       Sun Apr 16 22:50:16 2023


#       File generated by GOLD software.
#

@<TRIPOS>MOLECULE
CT1002167954|ligand_prepared|mol2|1|dock10
    29    30     1
SMALL
NO_CHARGES


@<TRIPOS>ATOM
      1 C1          26.6915   9.5072  -3.5191 C.3            1 RES1               0.0000
      2 C2          26.9480   9.8291  -2.0328 C.ar           1 RES1               0.0000
      3 C3          26.6507  10.8476  -4.2470 C.2            1 RES1               0.0000
      4 C4          27.8299   8.5940  -3.9605 C.2            1 RES1               0.0000
      5 C5          25.3582   8.7673  -3.7771 C.3            1 RES1               0.0000
      6 C6          28.2365   9.7799  -1.5092 C.ar           1 RES1               0.0000
      7 C7          25.9086  10.1789  -1.1750 C.ar           1 RES1               0.0000
      8 N8          27.7219  11.1776  -5.0239 N.am           1 RES1               0.0000
      9 O9          25.7106  11.6207  -4.1100 O.2            1 RES1               0.0000
     10 N10         28.7085   9.0703  -4.8980 N.am           1 RES1               0.0000
     11 O11         27.9838   7.4725  -3.4926 O.2            1 RES1               0.0000
     12 C12         25.1203   7.5895  -2.8453 C.3            1 RES1               0.0000
     13 C13         28.4776  10.0727  -0.1771 C.ar           1 RES1               0.0000
     14 C14         26.1519  10.4710   0.1569 C.ar           1 RES1               0.0000
     15 C15         28.7240  10.3321  -5.4271 C.2            1 RES1               0.0000
     16 C16         27.4357  10.4188   0.6567 C.ar           1 RES1               0.0000
     17 O17         29.5796  10.7037  -6.2253 O.2            1 RES1               0.0000
     18 H18         24.5316   9.4796  -3.6641 H              1 RES1               0.0000
     19 H19         25.3498   8.4055  -4.8127 H              1 RES1               0.0000
     20 H20         29.0687   9.5071  -2.1496 H              1 RES1               0.0000
     21 H21         24.8903  10.2254  -1.5460 H              1 RES1               0.0000
     22 H22         27.7835  12.1422  -5.3337 H              1 RES1               0.0000
     23 H23         29.4164   8.4244  -5.2326 H              1 RES1               0.0000
     24 H24         24.1717   7.1061  -3.0690 H              1 RES1               0.0000
     25 H25         25.9108   6.8492  -2.9497 H              1 RES1               0.0000
     26 H26         25.0974   7.9169  -1.8079 H              1 RES1               0.0000
     27 H27         29.4896  10.0288   0.2116 H              1 RES1               0.0000
     28 H28         25.3287  10.7424   0.8096 H              1 RES1               0.0000
     29 H29         27.6249  10.6484   1.7001 H              1 RES1               0.0000
@<TRIPOS>BOND
    1    1    2 1     
    2    1    3 1     
    3    1    4 1     
    4    1    5 1     
    5    2    6 ar    
    6    2    7 ar    
    7    3    8 1     
    8    3    9 2     
    9    4   10 1     
   10    4   11 2     
   11    5   12 1     
   12    5   18 1     
   13    5   19 1     
   14    6   13 ar    
   15    6   20 1     
   16    7   14 ar    
   17    7   21 1     
   18    8   15 1     
   19    8   22 1     
   20   10   15 1     
   21   10   23 1     
   22   12   24 1     
   23   12   25 1     
   24   12   26 1     
   25   13   16 ar    
   26   13   27 1     
   27   14   16 ar    
   28   14   28 1     
   29   15   17 2     
   30   16   29 1     
@<TRIPOS>SUBSTRUCTURE
      1 RES1           1
@<TRIPOS>SET
DONOR_HYDROGENS      STATIC     ATOMS    <user>   **** ""
2 22 23
ATOM$RED        STATIC     ATOMS    COLORGROUP SYSTEM
2 22 23
@<TRIPOS>COMMENT
> <Gold.Version>
2022.3.0

> <Gold.Id.Protein>
unknown|3nx8_clean|pdb

> <Gold.Protein.RotatedTorsions>
[ 1752 1744 1743 1741 ] final  151.92 input   60.01 | X-H torsion
[ 2770 2763 2761 2758 ] final   64.64 input   60.01 | X-H torsion
[ 5056 5047 5046 5044 ] final  -90.07 input   59.99 | X-H torsion

> <Gold.Protein.ActiveResidues>
 LEU49   GLY50   THR51   GLY52   ARG56   VAL57   MET58   LEU59   VAL60   HIS68  
 TYR69   ALA70   MET71   LYS72   LEU95   VAL104  LYS105  MET118  VAL119  MET120 
 GLU121  TYR122  VAL123  PRO124  GLY125  GLY126  GLU127  GLU170  ASN171  LEU173 
 ILE174  GLN181  VAL182  THR183  ASP184  PHE327  TYR330 

> <Gold.Protein.RotatedAtoms>
   35.4207   12.4039  -11.4117 H   0  0  0  0  0  0  0  0  0  0  0  0  # atno 1752 bound_to 1744
   30.4258    8.3333    1.0591 H   0  0  0  0  0  0  0  0  0  0  0  0  # atno 2770 bound_to 2763
   22.5099    9.7639  -10.2340 H   0  0  0  0  0  0  0  0  0  0  0  0  # atno 5056 bound_to 5047
   33.9573   12.1558  -10.7445 LP  0  0  0  0  0  0  0  0  0  0  0  0  # atno 5370 bound_to 1744
   34.9714   10.8988  -10.9859 LP  0  0  0  0  0  0  0  0  0  0  0  0  # atno 5371 bound_to 1744
   28.8053    8.2057    0.9752 LP  0  0  0  0  0  0  0  0  0  0  0  0  # atno 5378 bound_to 2763
   29.6511    8.7579   -0.3079 LP  0  0  0  0  0  0  0  0  0  0  0  0  # atno 5379 bound_to 2763

> <Gold.Score>
     Fitness  S(hb_ext) S(vdw_ext)  S(hb_int)    S(int)      intcor
     39.40       0.04      31.16       0.00      -3.48      -0.76

> <Gold.Goldscore.Fitness>
39.4011

> <Gold.Goldscore.Internal.Vdw>
-3.6321

> <Gold.Goldscore.Internal.Torsion>
-0.6077

> <Gold.Goldscore.External.Vdw>
31.1584

> <Gold.Goldscore.Internal.HBond>
0.0000

> <Gold.Goldscore.External.HBond>
0.0397

> <Gold.Goldscore.Internal.Correction>
-0.7585

> <Gold.Goldscore.Hbonds>
donor molecule, donor type, donor heavy atom, donor atom, acceptor molecule, acceptor atom, score
      L1  H     8    22       P1   624  0.02

> <Gold.Goldscore.Internal.Vdw.Weighted>
-3.6321

> <Gold.Goldscore.Internal.Torsion.Weighted>
-0.6077

> <Gold.Goldscore.External.Vdw.Weighted>
42.8428

> <Gold.Goldscore.Internal.HBond.Weighted>
0.0000

> <Gold.Goldscore.External.HBond.Weighted>
0.0397

> <Gold.Goldscore.Internal.Correction.Weighted>
-0.7585

> <Gold.Rescore>
     Score     S(PLP)   S(hbond)     S(cho)   S(metal)  DE(clash)   DE(tors)     intcor
     17.51     -19.63       0.00       0.00       0.00       0.01       1.05       ----

> <Gold.PLP.Fitness>
17.5116

> <Gold.PLP.PLP>
-19.6277

> <Gold.PLP.part.hbond>
-1.6693

> <Gold.PLP.part.metal>
0.0000

> <Gold.PLP.part.buried>
15.0790

> <Gold.PLP.part.nonpolar>
-37.9211

> <Gold.PLP.part.repulsive>
3.9741

> <Gold.PLP.ligand.clash>
0.0074

> <Gold.PLP.ligand.torsion>
1.0544

> <Gold.PLP.Chemscore.Hbond>
0.0000

> <Gold.PLP.Chemscore.CHOScore>
0.0000

> <Gold.PLP.Chemscore.Metal>
0.0000

> <Gold.PLP.Chemscore.Internal.Correction>
   9.000000E+99

