#       Name:                CT1002167954
#       Creating user name   hitesit
#       Creation time:       Sun Apr 16 22:50:07 2023


#       File generated by GOLD software.
#

@<TRIPOS>MOLECULE
CT1002167954|ligand_prepared|mol2|1|dock1
    29    30     1
SMALL
NO_CHARGES


@<TRIPOS>ATOM
      1 C1          26.7257   9.5984  -3.4514 C.3            1 RES1               0.0000
      2 C2          28.2600   9.7559  -3.4490 C.ar           1 RES1               0.0000
      3 C3          26.3340   9.1966  -2.0325 C.2            1 RES1               0.0000
      4 C4          26.1596  10.9425  -3.8961 C.2            1 RES1               0.0000
      5 C5          26.2103   8.5162  -4.4284 C.3            1 RES1               0.0000
      6 C6          28.9351  10.1002  -2.2818 C.ar           1 RES1               0.0000
      7 C7          29.0127   9.5580  -4.6035 C.ar           1 RES1               0.0000
      8 N8          25.7317  10.1392  -1.2524 N.am           1 RES1               0.0000
      9 O9          26.5855   8.0818  -1.5916 O.2            1 RES1               0.0000
     10 N10         25.4230  11.6602  -2.9904 N.am           1 RES1               0.0000
     11 O11         26.3587  11.3941  -5.0171 O.2            1 RES1               0.0000
     12 C12         24.7375   8.1816  -4.2514 C.3            1 RES1               0.0000
     13 C13         30.3131  10.2386  -2.2684 C.ar           1 RES1               0.0000
     14 C14         30.3907   9.6972  -4.5879 C.ar           1 RES1               0.0000
     15 C15         25.2093  11.3336  -1.6790 C.2            1 RES1               0.0000
     16 C16         31.0419  10.0368  -3.4211 C.ar           1 RES1               0.0000
     17 O17         24.5816  12.0575  -0.9114 O.2            1 RES1               0.0000
     18 H18         26.3726   8.8625  -5.4566 H              1 RES1               0.0000
     19 H19         26.7996   7.6020  -4.2856 H              1 RES1               0.0000
     20 H20         28.3782  10.2653  -1.3655 H              1 RES1               0.0000
     21 H21         28.5216   9.2912  -5.5331 H              1 RES1               0.0000
     22 H22         25.6635   9.9373  -0.2599 H              1 RES1               0.0000
     23 H23         24.9943  12.5173  -3.3250 H              1 RES1               0.0000
     24 H24         24.4276   7.4174  -4.9610 H              1 RES1               0.0000
     25 H25         24.5444   7.8100  -3.2472 H              1 RES1               0.0000
     26 H26         24.1199   9.0630  -4.4112 H              1 RES1               0.0000
     27 H27         30.8207  10.5074  -1.3478 H              1 RES1               0.0000
     28 H28         30.9601   9.5380  -5.4977 H              1 RES1               0.0000
     29 H29         32.1214  10.1449  -3.4103 H              1 RES1               0.0000
@<TRIPOS>BOND
    1    1    2 1     
    2    1    3 1     
    3    1    4 1     
    4    1    5 1     
    5    2    6 ar    
    6    2    7 ar    
    7    3    8 1     
    8    3    9 2     
    9    4   10 1     
   10    4   11 2     
   11    5   12 1     
   12    5   18 1     
   13    5   19 1     
   14    6   13 ar    
   15    6   20 1     
   16    7   14 ar    
   17    7   21 1     
   18    8   15 1     
   19    8   22 1     
   20   10   15 1     
   21   10   23 1     
   22   12   24 1     
   23   12   25 1     
   24   12   26 1     
   25   13   16 ar    
   26   13   27 1     
   27   14   16 ar    
   28   14   28 1     
   29   15   17 2     
   30   16   29 1     
@<TRIPOS>SUBSTRUCTURE
      1 RES1           1
@<TRIPOS>SET
DONOR_HYDROGENS      STATIC     ATOMS    <user>   **** ""
2 22 23
ATOM$RED        STATIC     ATOMS    COLORGROUP SYSTEM
2 22 23
@<TRIPOS>COMMENT
> <Gold.Version>
2022.3.0

> <Gold.Id.Protein>
unknown|3nx8_clean|pdb

> <Gold.Protein.RotatedTorsions>
[ 1752 1744 1743 1741 ] final   23.61 input   60.01 | X-H torsion
[ 2770 2763 2761 2758 ] final -164.53 input   60.01 | X-H torsion
[ 5056 5047 5046 5044 ] final -174.04 input   59.99 | X-H torsion

> <Gold.Protein.ActiveResidues>
 LEU49   GLY50   THR51   GLY52   ARG56   VAL57   MET58   LEU59   VAL60   HIS68  
 TYR69   ALA70   MET71   LYS72   LEU95   VAL104  LYS105  MET118  VAL119  MET120 
 GLU121  TYR122  VAL123  PRO124  GLY125  GLY126  GLU127  GLU170  ASN171  LEU173 
 ILE174  GLN181  VAL182  THR183  ASP184  PHE327  TYR330 

> <Gold.Protein.RotatedAtoms>
   33.9351   12.0253  -10.7115 H   0  0  0  0  0  0  0  0  0  0  0  0  # atno 1752 bound_to 1744
   29.4756    8.7338   -0.2968 H   0  0  0  0  0  0  0  0  0  0  0  0  # atno 2770 bound_to 2763
   21.9926    9.9375   -9.1064 H   0  0  0  0  0  0  0  0  0  0  0  0  # atno 5056 bound_to 5047
   35.0918   10.9295  -11.0426 LP  0  0  0  0  0  0  0  0  0  0  0  0  # atno 5370 bound_to 1744
   35.3326   12.5063  -11.3927 LP  0  0  0  0  0  0  0  0  0  0  0  0  # atno 5371 bound_to 1744
   30.5082    8.3966    0.9153 LP  0  0  0  0  0  0  0  0  0  0  0  0  # atno 5378 bound_to 2763
   28.9045    8.1639    1.1168 LP  0  0  0  0  0  0  0  0  0  0  0  0  # atno 5379 bound_to 2763

> <Gold.Score>
     Fitness  S(hb_ext) S(vdw_ext)  S(hb_int)    S(int)      intcor
     41.96       0.08      31.00       0.00      -0.74      -0.79

> <Gold.Goldscore.Fitness>
41.9585

> <Gold.Goldscore.Internal.Vdw>
-0.9781

> <Gold.Goldscore.Internal.Torsion>
-0.5470

> <Gold.Goldscore.External.Vdw>
30.9956

> <Gold.Goldscore.Internal.HBond>
0.0000

> <Gold.Goldscore.External.HBond>
0.0754

> <Gold.Goldscore.Internal.Correction>
-0.7893

> <Gold.Goldscore.Hbonds>
donor molecule, donor type, donor heavy atom, donor atom, acceptor molecule, acceptor atom, score
      L1  H    10    23       P1   534  0.04

> <Gold.Goldscore.Internal.Vdw.Weighted>
-0.9781

> <Gold.Goldscore.Internal.Torsion.Weighted>
-0.5470

> <Gold.Goldscore.External.Vdw.Weighted>
42.6190

> <Gold.Goldscore.Internal.HBond.Weighted>
0.0000

> <Gold.Goldscore.External.HBond.Weighted>
0.0754

> <Gold.Goldscore.Internal.Correction.Weighted>
-0.7893

> <Gold.Rescore>
     Score     S(PLP)   S(hbond)     S(cho)   S(metal)  DE(clash)   DE(tors)     intcor
     19.45     -20.57       0.46       0.00       0.00       1.59       0.46       ----

> <Gold.PLP.Fitness>
19.4476

> <Gold.PLP.PLP>
-20.5741

> <Gold.PLP.part.hbond>
-4.0601

> <Gold.PLP.part.metal>
0.0000

> <Gold.PLP.part.buried>
15.8638

> <Gold.PLP.part.nonpolar>
-35.2120

> <Gold.PLP.part.repulsive>
1.0253

> <Gold.PLP.ligand.clash>
1.5943

> <Gold.PLP.ligand.torsion>
0.4572

> <Gold.PLP.Chemscore.Hbond>
0.4607

> <Gold.PLP.Chemscore.CHOScore>
0.0000

> <Gold.PLP.Chemscore.Metal>
0.0000

> <Gold.Chemscore.Hbonds>
donor molecule, donor type, donor heavy atom, donor atom, acceptor molecule, acceptor atom, score
      L1  H    10    23       P1   534  0.46
      P1  H   552   556       L1    17  0.18

> <Gold.PLP.Chemscore.Internal.Correction>
   9.000000E+99

