#       Name:                CT1002167954
#       Creating user name   hitesit
#       Creation time:       Sun Apr 16 22:50:09 2023


#       File generated by GOLD software.
#

@<TRIPOS>MOLECULE
CT1002167954|ligand_prepared|mol2|1|dock3
    29    30     1
SMALL
NO_CHARGES


@<TRIPOS>ATOM
      1 C1          26.9874   9.4143  -3.5548 C.3            1 RES1               0.0000
      2 C2          27.0670   9.6489  -2.0325 C.ar           1 RES1               0.0000
      3 C3          26.9360   7.9022  -3.7531 C.2            1 RES1               0.0000
      4 C4          25.7396  10.1475  -4.0347 C.2            1 RES1               0.0000
      5 C5          28.1994   9.9714  -4.3371 C.3            1 RES1               0.0000
      6 C6          28.2950   9.8532  -1.4103 C.ar           1 RES1               0.0000
      7 C7          25.9231   9.6664  -1.2390 C.ar           1 RES1               0.0000
      8 N8          25.7412   7.3526  -4.1142 N.am           1 RES1               0.0000
      9 O9          27.9190   7.1983  -3.5572 O.2            1 RES1               0.0000
     10 N10         24.7058   9.3979  -4.5317 N.am           1 RES1               0.0000
     11 O11         25.6359  11.3663  -3.9716 O.2            1 RES1               0.0000
     12 C12         27.9670  10.0738  -5.8363 C.3            1 RES1               0.0000
     13 C13         28.3762  10.0702  -0.0448 C.ar           1 RES1               0.0000
     14 C14         26.0066   9.8833   0.1265 C.ar           1 RES1               0.0000
     15 C15         24.6378   8.0317  -4.5647 C.2            1 RES1               0.0000
     16 C16         27.2322  10.0858   0.7244 C.ar           1 RES1               0.0000
     17 O17         23.6510   7.4287  -4.9767 O.2            1 RES1               0.0000
     18 H18         28.4426  10.9681  -3.9486 H              1 RES1               0.0000
     19 H19         29.0646   9.3213  -4.1576 H              1 RES1               0.0000
     20 H20         29.2062   9.8419  -1.9990 H              1 RES1               0.0000
     21 H21         24.9482   9.5084  -1.6876 H              1 RES1               0.0000
     22 H22         25.6607   6.3433  -4.0425 H              1 RES1               0.0000
     23 H23         23.9134   9.9054  -4.9125 H              1 RES1               0.0000
     24 H24         28.8479  10.4700  -6.3370 H              1 RES1               0.0000
     25 H25         27.7473   9.0961  -6.2603 H              1 RES1               0.0000
     26 H26         27.1289  10.7331  -6.0526 H              1 RES1               0.0000
     27 H27         29.3433  10.2276   0.4212 H              1 RES1               0.0000
     28 H28         25.1037   9.8941   0.7280 H              1 RES1               0.0000
     29 H29         27.2961  10.2561   1.7940 H              1 RES1               0.0000
@<TRIPOS>BOND
    1    1    2 1     
    2    1    3 1     
    3    1    4 1     
    4    1    5 1     
    5    2    6 ar    
    6    2    7 ar    
    7    3    8 1     
    8    3    9 2     
    9    4   10 1     
   10    4   11 2     
   11    5   12 1     
   12    5   18 1     
   13    5   19 1     
   14    6   13 ar    
   15    6   20 1     
   16    7   14 ar    
   17    7   21 1     
   18    8   15 1     
   19    8   22 1     
   20   10   15 1     
   21   10   23 1     
   22   12   24 1     
   23   12   25 1     
   24   12   26 1     
   25   13   16 ar    
   26   13   27 1     
   27   14   16 ar    
   28   14   28 1     
   29   15   17 2     
   30   16   29 1     
@<TRIPOS>SUBSTRUCTURE
      1 RES1           1
@<TRIPOS>SET
DONOR_HYDROGENS      STATIC     ATOMS    <user>   **** ""
2 22 23
ATOM$RED        STATIC     ATOMS    COLORGROUP SYSTEM
2 22 23
@<TRIPOS>COMMENT
> <Gold.Version>
2022.3.0

> <Gold.Id.Protein>
unknown|3nx8_clean|pdb

> <Gold.Protein.RotatedTorsions>
[ 1752 1744 1743 1741 ] final   37.69 input   60.01 | X-H torsion
[ 2770 2763 2761 2758 ] final  -10.98 input   60.01 | X-H torsion
[ 5056 5047 5046 5044 ] final -103.58 input   59.99 | X-H torsion

> <Gold.Protein.ActiveResidues>
 LEU49   GLY50   THR51   GLY52   ARG56   VAL57   MET58   LEU59   VAL60   HIS68  
 TYR69   ALA70   MET71   LYS72   LEU95   VAL104  LYS105  MET118  VAL119  MET120 
 GLU121  TYR122  VAL123  PRO124  GLY125  GLY126  GLU127  GLU170  ASN171  LEU173 
 ILE174  GLN181  VAL182  THR183  ASP184  PHE327  TYR330 

> <Gold.Protein.RotatedAtoms>
   33.9943   12.2391  -10.7704 H   0  0  0  0  0  0  0  0  0  0  0  0  # atno 1752 bound_to 1744
   29.3571    8.0996    1.4089 H   0  0  0  0  0  0  0  0  0  0  0  0  # atno 2770 bound_to 2763
   22.3203    9.7701  -10.1221 H   0  0  0  0  0  0  0  0  0  0  0  0  # atno 5056 bound_to 5047
   34.8853   10.8889  -10.9472 LP  0  0  0  0  0  0  0  0  0  0  0  0  # atno 5370 bound_to 1744
   35.4796   12.3316  -11.4289 LP  0  0  0  0  0  0  0  0  0  0  0  0  # atno 5371 bound_to 1744
   28.9884    8.6130   -0.0910 LP  0  0  0  0  0  0  0  0  0  0  0  0  # atno 5378 bound_to 2763
   30.5436    8.5858    0.4063 LP  0  0  0  0  0  0  0  0  0  0  0  0  # atno 5379 bound_to 2763

> <Gold.Score>
     Fitness  S(hb_ext) S(vdw_ext)  S(hb_int)    S(int)      intcor
     41.38       1.64      29.38       0.00      -0.65      -0.79

> <Gold.Goldscore.Fitness>
41.3847

> <Gold.Goldscore.Internal.Vdw>
-0.7256

> <Gold.Goldscore.Internal.Torsion>
-0.7132

> <Gold.Goldscore.External.Vdw>
29.3808

> <Gold.Goldscore.Internal.HBond>
0.0000

> <Gold.Goldscore.External.HBond>
1.6377

> <Gold.Goldscore.Internal.Correction>
-0.7872

> <Gold.Goldscore.Hbonds>
donor molecule, donor type, donor heavy atom, donor atom, acceptor molecule, acceptor atom, score
      L1  H     8    22       P1  2555  0.82

> <Gold.Goldscore.Internal.Vdw.Weighted>
-0.7256

> <Gold.Goldscore.Internal.Torsion.Weighted>
-0.7132

> <Gold.Goldscore.External.Vdw.Weighted>
40.3985

> <Gold.Goldscore.Internal.HBond.Weighted>
0.0000

> <Gold.Goldscore.External.HBond.Weighted>
1.6377

> <Gold.Goldscore.Internal.Correction.Weighted>
-0.7872

> <Gold.Rescore>
     Score     S(PLP)   S(hbond)     S(cho)   S(metal)  DE(clash)   DE(tors)     intcor
     22.23     -19.57       1.41       0.00       0.00       0.00       0.79       ----

> <Gold.PLP.Fitness>
22.2312

> <Gold.PLP.PLP>
-19.5730

> <Gold.PLP.part.hbond>
-3.0000

> <Gold.PLP.part.metal>
0.0000

> <Gold.PLP.part.buried>
15.3229

> <Gold.PLP.part.nonpolar>
-36.2840

> <Gold.PLP.part.repulsive>
3.0422

> <Gold.PLP.ligand.clash>
0.0000

> <Gold.PLP.ligand.torsion>
0.7889

> <Gold.PLP.Chemscore.Hbond>
1.4120

> <Gold.PLP.Chemscore.CHOScore>
0.0000

> <Gold.PLP.Chemscore.Metal>
0.0000

> <Gold.Chemscore.Hbonds>
donor molecule, donor type, donor heavy atom, donor atom, acceptor molecule, acceptor atom, score
      L1  H     8    22       P1  2555  1.00
      L1  H    10    23       P1   541  0.14

> <Gold.PLP.Chemscore.Internal.Correction>
   9.000000E+99

