#       Name:                CT1002167954
#       Creating user name   hitesit
#       Creation time:       Sun Apr 16 22:50:10 2023


#       File generated by GOLD software.
#

@<TRIPOS>MOLECULE
CT1002167954|ligand_prepared|mol2|1|dock4
    29    30     1
SMALL
NO_CHARGES


@<TRIPOS>ATOM
      1 C1          26.9129   9.2636  -3.6065 C.3            1 RES1               0.0000
      2 C2          26.9534   9.5371  -2.0892 C.ar           1 RES1               0.0000
      3 C3          26.9977   7.7490  -3.7713 C.2            1 RES1               0.0000
      4 C4          25.6111   9.8728  -4.1153 C.2            1 RES1               0.0000
      5 C5          28.0802   9.9089  -4.3891 C.3            1 RES1               0.0000
      6 C6          25.8001   9.4263  -1.3182 C.ar           1 RES1               0.0000
      7 C7          28.1349   9.8978  -1.4470 C.ar           1 RES1               0.0000
      8 N8          25.8606   7.0880  -4.1317 N.am           1 RES1               0.0000
      9 O9          28.0367   7.1393  -3.5498 O.2            1 RES1               0.0000
     10 N10         24.6535   9.0240  -4.6055 N.am           1 RES1               0.0000
     11 O11         25.3993  11.0787  -4.0806 O.2            1 RES1               0.0000
     12 C12         27.8824   9.9079  -5.8968 C.3            1 RES1               0.0000
     13 C13         25.8276   9.6645   0.0459 C.ar           1 RES1               0.0000
     14 C14         28.1601  10.1359  -0.0827 C.ar           1 RES1               0.0000
     15 C15         24.7069   7.6568  -4.6084 C.2            1 RES1               0.0000
     16 C16         27.0075  10.0190   0.6646 C.ar           1 RES1               0.0000
     17 O17         23.7822   6.9600  -5.0165 O.2            1 RES1               0.0000
     18 H18         28.2028  10.9449  -4.0498 H              1 RES1               0.0000
     19 H19         29.0049   9.3675  -4.1540 H              1 RES1               0.0000
     20 H20         24.8618   9.1507  -1.7880 H              1 RES1               0.0000
     21 H21         29.0537   9.9968  -2.0151 H              1 RES1               0.0000
     22 H22         25.8687   6.0773  -4.0381 H              1 RES1               0.0000
     23 H23         23.8240   9.4510  -5.0055 H              1 RES1               0.0000
     24 H24         28.7297  10.3718  -6.3973 H              1 RES1               0.0000
     25 H25         27.7821   8.8915  -6.2720 H              1 RES1               0.0000
     26 H26         26.9847  10.4596  -6.1683 H              1 RES1               0.0000
     27 H27         24.9174   9.5726   0.6294 H              1 RES1               0.0000
     28 H28         29.0908  10.4153   0.3999 H              1 RES1               0.0000
     29 H29         27.0288  10.2053   1.7333 H              1 RES1               0.0000
@<TRIPOS>BOND
    1    1    2 1     
    2    1    3 1     
    3    1    4 1     
    4    1    5 1     
    5    2    6 ar    
    6    2    7 ar    
    7    3    8 1     
    8    3    9 2     
    9    4   10 1     
   10    4   11 2     
   11    5   12 1     
   12    5   18 1     
   13    5   19 1     
   14    6   13 ar    
   15    6   20 1     
   16    7   14 ar    
   17    7   21 1     
   18    8   15 1     
   19    8   22 1     
   20   10   15 1     
   21   10   23 1     
   22   12   24 1     
   23   12   25 1     
   24   12   26 1     
   25   13   16 ar    
   26   13   27 1     
   27   14   16 ar    
   28   14   28 1     
   29   15   17 2     
   30   16   29 1     
@<TRIPOS>SUBSTRUCTURE
      1 RES1           1
@<TRIPOS>SET
DONOR_HYDROGENS      STATIC     ATOMS    <user>   **** ""
2 22 23
ATOM$RED        STATIC     ATOMS    COLORGROUP SYSTEM
2 22 23
@<TRIPOS>COMMENT
> <Gold.Version>
2022.3.0

> <Gold.Id.Protein>
unknown|3nx8_clean|pdb

> <Gold.Protein.RotatedTorsions>
[ 1752 1744 1743 1741 ] final  -68.34 input   60.01 | X-H torsion
[ 2770 2763 2761 2758 ] final   37.06 input   60.01 | X-H torsion
[ 5056 5047 5046 5044 ] final   79.67 input   59.99 | X-H torsion

> <Gold.Protein.ActiveResidues>
 LEU49   GLY50   THR51   GLY52   ARG56   VAL57   MET58   LEU59   VAL60   HIS68  
 TYR69   ALA70   MET71   LYS72   LEU95   VAL104  LYS105  MET118  VAL119  MET120 
 GLU121  TYR122  VAL123  PRO124  GLY125  GLY126  GLU127  GLU170  ASN171  LEU173 
 ILE174  GLN181  VAL182  THR183  ASP184  PHE327  TYR330 

> <Gold.Protein.RotatedAtoms>
   34.6762   10.9106  -10.8573 H   0  0  0  0  0  0  0  0  0  0  0  0  # atno 1752 bound_to 1744
   30.1107    8.1977    1.3449 H   0  0  0  0  0  0  0  0  0  0  0  0  # atno 2770 bound_to 2763
   23.4022   10.1386   -8.6397 H   0  0  0  0  0  0  0  0  0  0  0  0  # atno 5056 bound_to 5047
   35.5842   12.1278  -11.4422 LP  0  0  0  0  0  0  0  0  0  0  0  0  # atno 5370 bound_to 1744
   34.0941   12.4302  -10.8464 LP  0  0  0  0  0  0  0  0  0  0  0  0  # atno 5371 bound_to 1744
   28.6905    8.3445    0.5635 LP  0  0  0  0  0  0  0  0  0  0  0  0  # atno 5378 bound_to 2763
   30.0830    8.7555   -0.1839 LP  0  0  0  0  0  0  0  0  0  0  0  0  # atno 5379 bound_to 2763

> <Gold.Score>
     Fitness  S(hb_ext) S(vdw_ext)  S(hb_int)    S(int)      intcor
     42.12       1.61      29.60       0.00      -0.19      -0.79

> <Gold.Goldscore.Fitness>
42.1229

> <Gold.Goldscore.Internal.Vdw>
-0.3521

> <Gold.Goldscore.Internal.Torsion>
-0.6207

> <Gold.Goldscore.External.Vdw>
29.6020

> <Gold.Goldscore.Internal.HBond>
0.0000

> <Gold.Goldscore.External.HBond>
1.6058

> <Gold.Goldscore.Internal.Correction>
-0.7872

> <Gold.Goldscore.Hbonds>
donor molecule, donor type, donor heavy atom, donor atom, acceptor molecule, acceptor atom, score
      L1  H     8    22       P1  2555  0.80

> <Gold.Goldscore.Internal.Vdw.Weighted>
-0.3521

> <Gold.Goldscore.Internal.Torsion.Weighted>
-0.6207

> <Gold.Goldscore.External.Vdw.Weighted>
40.7027

> <Gold.Goldscore.Internal.HBond.Weighted>
0.0000

> <Gold.Goldscore.External.HBond.Weighted>
1.6058

> <Gold.Goldscore.Internal.Correction.Weighted>
-0.7872

> <Gold.Rescore>
     Score     S(PLP)   S(hbond)     S(cho)   S(metal)  DE(clash)   DE(tors)     intcor
     24.65     -22.95       1.10       0.00       0.00       0.00       0.80       ----

> <Gold.PLP.Fitness>
24.6502

> <Gold.PLP.PLP>
-22.9510

> <Gold.PLP.part.hbond>
-3.0933

> <Gold.PLP.part.metal>
0.0000

> <Gold.PLP.part.buried>
13.7522

> <Gold.PLP.part.nonpolar>
-35.4045

> <Gold.PLP.part.repulsive>
2.5149

> <Gold.PLP.ligand.clash>
0.0000

> <Gold.PLP.ligand.torsion>
0.8016

> <Gold.PLP.Chemscore.Hbond>
1.1009

> <Gold.PLP.Chemscore.CHOScore>
0.0000

> <Gold.PLP.Chemscore.Metal>
0.0000

> <Gold.Chemscore.Hbonds>
donor molecule, donor type, donor heavy atom, donor atom, acceptor molecule, acceptor atom, score
      L1  H     8    22       P1  2555  1.00
      L1  H    10    23       P1   541  0.35

> <Gold.PLP.Chemscore.Internal.Correction>
   9.000000E+99

