#       Name:                CT1002167954
#       Creating user name   hitesit
#       Creation time:       Sun Apr 16 22:50:15 2023


#       File generated by GOLD software.
#

@<TRIPOS>MOLECULE
CT1002167954|ligand_prepared|mol2|1|dock9
    29    30     1
SMALL
NO_CHARGES


@<TRIPOS>ATOM
      1 C1          28.1406   9.9783  -4.1560 C.3            1 RES1               0.0000
      2 C2          29.6551  10.0391  -3.8703 C.ar           1 RES1               0.0000
      3 C3          27.8877  10.9212  -5.3287 C.2            1 RES1               0.0000
      4 C4          27.8207   8.5173  -4.4522 C.2            1 RES1               0.0000
      5 C5          27.2617  10.4281  -2.9657 C.3            1 RES1               0.0000
      6 C6          30.5581  10.3195  -4.8915 C.ar           1 RES1               0.0000
      7 C7          30.1630   9.8201  -2.5926 C.ar           1 RES1               0.0000
      8 N8          27.6287  10.3615  -6.5451 N.am           1 RES1               0.0000
      9 O9          27.9536  12.1372  -5.1967 O.2            1 RES1               0.0000
     10 N10         27.4020   8.1953  -5.7167 N.am           1 RES1               0.0000
     11 O11         27.9433   7.6396  -3.6068 O.2            1 RES1               0.0000
     12 C12         25.7849  10.5512  -3.3062 C.3            1 RES1               0.0000
     13 C13         31.9194  10.3816  -4.6437 C.ar           1 RES1               0.0000
     14 C14         31.5247   9.8825  -2.3470 C.ar           1 RES1               0.0000
     15 C15         27.3210   9.0464  -6.7850 C.2            1 RES1               0.0000
     16 C16         32.4035  10.1636  -3.3714 C.ar           1 RES1               0.0000
     17 O17         26.9880   8.6709  -7.9054 O.2            1 RES1               0.0000
     18 H18         27.3767   9.7049  -2.1489 H              1 RES1               0.0000
     19 H19         27.6235  11.3995  -2.6069 H              1 RES1               0.0000
     20 H20         30.1958  10.4914  -5.8995 H              1 RES1               0.0000
     21 H21         29.4904   9.5963  -1.7716 H              1 RES1               0.0000
     22 H22         27.6674  10.9776  -7.3508 H              1 RES1               0.0000
     23 H23         27.1250   7.2319  -5.8763 H              1 RES1               0.0000
     24 H24         25.2138  10.8695  -2.4365 H              1 RES1               0.0000
     25 H25         25.6312  11.2812  -4.0982 H              1 RES1               0.0000
     26 H26         25.3858   9.5967  -3.6429 H              1 RES1               0.0000
     27 H27         32.6070  10.6018  -5.4536 H              1 RES1               0.0000
     28 H28         31.9014   9.7097  -1.3443 H              1 RES1               0.0000
     29 H29         33.4699  10.2127  -3.1775 H              1 RES1               0.0000
@<TRIPOS>BOND
    1    1    2 1     
    2    1    3 1     
    3    1    4 1     
    4    1    5 1     
    5    2    6 ar    
    6    2    7 ar    
    7    3    8 1     
    8    3    9 2     
    9    4   10 1     
   10    4   11 2     
   11    5   12 1     
   12    5   18 1     
   13    5   19 1     
   14    6   13 ar    
   15    6   20 1     
   16    7   14 ar    
   17    7   21 1     
   18    8   15 1     
   19    8   22 1     
   20   10   15 1     
   21   10   23 1     
   22   12   24 1     
   23   12   25 1     
   24   12   26 1     
   25   13   16 ar    
   26   13   27 1     
   27   14   16 ar    
   28   14   28 1     
   29   15   17 2     
   30   16   29 1     
@<TRIPOS>SUBSTRUCTURE
      1 RES1           1
@<TRIPOS>SET
DONOR_HYDROGENS      STATIC     ATOMS    <user>   **** ""
2 22 23
ATOM$RED        STATIC     ATOMS    COLORGROUP SYSTEM
2 22 23
@<TRIPOS>COMMENT
> <Gold.Version>
2022.3.0

> <Gold.Id.Protein>
unknown|3nx8_clean|pdb

> <Gold.Protein.RotatedTorsions>
[ 1752 1744 1743 1741 ] final   40.89 input   60.01 | X-H torsion
[ 2770 2763 2761 2758 ] final  106.80 input   60.01 | X-H torsion
[ 5056 5047 5046 5044 ] final   71.30 input   59.99 | X-H torsion

> <Gold.Protein.ActiveResidues>
 LEU49   GLY50   THR51   GLY52   ARG56   VAL57   MET58   LEU59   VAL60   HIS68  
 TYR69   ALA70   MET71   LYS72   LEU95   VAL104  LYS105  MET118  VAL119  MET120 
 GLU121  TYR122  VAL123  PRO124  GLY125  GLY126  GLU127  GLU170  ASN171  LEU173 
 ILE174  GLN181  VAL182  THR183  ASP184  PHE327  TYR330 

> <Gold.Protein.RotatedAtoms>
   34.0146   12.2847  -10.7863 H   0  0  0  0  0  0  0  0  0  0  0  0  # atno 1752 bound_to 1744
   30.5453    8.5710    0.4401 H   0  0  0  0  0  0  0  0  0  0  0  0  # atno 2770 bound_to 2763
   23.5096   10.1311   -8.7239 H   0  0  0  0  0  0  0  0  0  0  0  0  # atno 5056 bound_to 5047
   34.8370   10.8875  -10.9261 LP  0  0  0  0  0  0  0  0  0  0  0  0  # atno 5370 bound_to 1744
   35.5074   12.2872  -11.4340 LP  0  0  0  0  0  0  0  0  0  0  0  0  # atno 5371 bound_to 1744
   29.3206    8.1006    1.4034 LP  0  0  0  0  0  0  0  0  0  0  0  0  # atno 5378 bound_to 2763
   29.0155    8.6237   -0.1131 LP  0  0  0  0  0  0  0  0  0  0  0  0  # atno 5379 bound_to 2763

> <Gold.Score>
     Fitness  S(hb_ext) S(vdw_ext)  S(hb_int)    S(int)      intcor
     35.80       0.21      26.47       0.00      -0.80      -0.76

> <Gold.Goldscore.Fitness>
35.8009

> <Gold.Goldscore.Internal.Vdw>
-1.0921

> <Gold.Goldscore.Internal.Torsion>
-0.4701

> <Gold.Goldscore.External.Vdw>
26.4676

> <Gold.Goldscore.Internal.HBond>
0.0000

> <Gold.Goldscore.External.HBond>
0.2116

> <Gold.Goldscore.Internal.Correction>
-0.7585

> <Gold.Goldscore.Hbonds>
donor molecule, donor type, donor heavy atom, donor atom, acceptor molecule, acceptor atom, score
      L1  H     8    22       P1   515  0.11

> <Gold.Goldscore.Internal.Vdw.Weighted>
-1.0921

> <Gold.Goldscore.Internal.Torsion.Weighted>
-0.4701

> <Gold.Goldscore.External.Vdw.Weighted>
36.3929

> <Gold.Goldscore.Internal.HBond.Weighted>
0.0000

> <Gold.Goldscore.External.HBond.Weighted>
0.2116

> <Gold.Goldscore.Internal.Correction.Weighted>
-0.7585

> <Gold.Rescore>
     Score     S(PLP)   S(hbond)     S(cho)   S(metal)  DE(clash)   DE(tors)     intcor
     11.33     -12.31       0.30       0.00       0.00       0.00       0.95       ----

> <Gold.PLP.Fitness>
11.3264

> <Gold.PLP.PLP>
-12.3107

> <Gold.PLP.part.hbond>
-2.3722

> <Gold.PLP.part.metal>
0.0000

> <Gold.PLP.part.buried>
23.1311

> <Gold.PLP.part.nonpolar>
-41.4895

> <Gold.PLP.part.repulsive>
10.1825

> <Gold.PLP.ligand.clash>
0.0000

> <Gold.PLP.ligand.torsion>
0.9482

> <Gold.PLP.Chemscore.Hbond>
0.3040

> <Gold.PLP.Chemscore.CHOScore>
0.0000

> <Gold.PLP.Chemscore.Metal>
0.0000

> <Gold.Chemscore.Hbonds>
donor molecule, donor type, donor heavy atom, donor atom, acceptor molecule, acceptor atom, score
      L1  H     8    22       P1   515  0.33
      L1  H    10    23       P1  1806  0.09

> <Gold.PLP.Chemscore.Internal.Correction>
   9.000000E+99

