#       Name:                CT1002167954
#       Creating user name   hitesit
#       Creation time:       Sun Apr 16 22:50:11 2023


#       File generated by GOLD software.
#

@<TRIPOS>MOLECULE
CT1002167954|ligand_prepared|mol2|1|dock5
    29    30     1
SMALL
NO_CHARGES


@<TRIPOS>ATOM
      1 C1          26.5258   9.0549  -3.2938 C.3            1 RES1               0.0000
      2 C2          27.7198   9.5466  -4.1372 C.ar           1 RES1               0.0000
      3 C3          25.2988   9.7975  -3.8144 C.2            1 RES1               0.0000
      4 C4          26.4644   7.5431  -3.4821 C.2            1 RES1               0.0000
      5 C5          26.6689   9.3424  -1.7810 C.3            1 RES1               0.0000
      6 C6          29.0133   9.5066  -3.6253 C.ar           1 RES1               0.0000
      7 C7          27.5442  10.0396  -5.4275 C.ar           1 RES1               0.0000
      8 N8          24.4073   9.0937  -4.5693 N.am           1 RES1               0.0000
      9 O9          25.1359  10.9923  -3.5990 O.2            1 RES1               0.0000
     10 N10         25.3742   7.0202  -4.1270 N.am           1 RES1               0.0000
     11 O11         27.3581   6.8016  -3.0926 O.2            1 RES1               0.0000
     12 C12         25.3509   9.3102  -1.0235 C.3            1 RES1               0.0000
     13 C13         30.0925   9.9409  -4.3770 C.ar           1 RES1               0.0000
     14 C14         28.6248  10.4736  -6.1774 C.ar           1 RES1               0.0000
     15 C15         24.3577   7.7297  -4.7063 C.2            1 RES1               0.0000
     16 C16         29.8991  10.4242  -5.6536 C.ar           1 RES1               0.0000
     17 O17         23.4392   7.1902  -5.3166 O.2            1 RES1               0.0000
     18 H18         27.3463   8.5992  -1.3429 H              1 RES1               0.0000
     19 H19         27.1266  10.3309  -1.6513 H              1 RES1               0.0000
     20 H20         29.1846   9.1318  -2.6217 H              1 RES1               0.0000
     21 H21         26.5505  10.0887  -5.8597 H              1 RES1               0.0000
     22 H22         23.7135   9.6312  -5.0791 H              1 RES1               0.0000
     23 H23         25.3149   6.0083  -4.1801 H              1 RES1               0.0000
     24 H24         25.5079   9.5182   0.0328 H              1 RES1               0.0000
     25 H25         24.6616  10.0546  -1.4166 H              1 RES1               0.0000
     26 H26         24.8800   8.3331  -1.1101 H              1 RES1               0.0000
     27 H27         31.0932   9.9012  -3.9596 H              1 RES1               0.0000
     28 H28         28.4678  10.8538  -7.1814 H              1 RES1               0.0000
     29 H29         30.7447  10.7639  -6.2424 H              1 RES1               0.0000
@<TRIPOS>BOND
    1    1    2 1     
    2    1    3 1     
    3    1    4 1     
    4    1    5 1     
    5    2    6 ar    
    6    2    7 ar    
    7    3    8 1     
    8    3    9 2     
    9    4   10 1     
   10    4   11 2     
   11    5   12 1     
   12    5   18 1     
   13    5   19 1     
   14    6   13 ar    
   15    6   20 1     
   16    7   14 ar    
   17    7   21 1     
   18    8   15 1     
   19    8   22 1     
   20   10   15 1     
   21   10   23 1     
   22   12   24 1     
   23   12   25 1     
   24   12   26 1     
   25   13   16 ar    
   26   13   27 1     
   27   14   16 ar    
   28   14   28 1     
   29   15   17 2     
   30   16   29 1     
@<TRIPOS>SUBSTRUCTURE
      1 RES1           1
@<TRIPOS>SET
DONOR_HYDROGENS      STATIC     ATOMS    <user>   **** ""
2 22 23
ATOM$RED        STATIC     ATOMS    COLORGROUP SYSTEM
2 22 23
@<TRIPOS>COMMENT
> <Gold.Version>
2022.3.0

> <Gold.Id.Protein>
unknown|3nx8_clean|pdb

> <Gold.Protein.RotatedTorsions>
[ 1752 1744 1743 1741 ] final  131.97 input   60.01 | X-H torsion
[ 2770 2763 2761 2758 ] final   -8.02 input   60.01 | X-H torsion
[ 5056 5047 5046 5044 ] final   98.17 input   59.99 | X-H torsion

> <Gold.Protein.ActiveResidues>
 LEU49   GLY50   THR51   GLY52   ARG56   VAL57   MET58   LEU59   VAL60   HIS68  
 TYR69   ALA70   MET71   LYS72   LEU95   VAL104  LYS105  MET118  VAL119  MET120 
 GLU121  TYR122  VAL123  PRO124  GLY125  GLY126  GLU127  GLU170  ASN171  LEU173 
 ILE174  GLN181  VAL182  THR183  ASP184  PHE327  TYR330 

> <Gold.Protein.RotatedAtoms>
   35.1842   12.6148  -11.3426 H   0  0  0  0  0  0  0  0  0  0  0  0  # atno 1752 bound_to 1744
   29.4036    8.0992    1.4225 H   0  0  0  0  0  0  0  0  0  0  0  0  # atno 2770 bound_to 2763
   23.1293   10.1410   -8.5128 H   0  0  0  0  0  0  0  0  0  0  0  0  # atno 5056 bound_to 5047
   33.9178   11.8385  -10.6779 LP  0  0  0  0  0  0  0  0  0  0  0  0  # atno 5370 bound_to 1744
   35.2491   11.0038  -11.1221 LP  0  0  0  0  0  0  0  0  0  0  0  0  # atno 5371 bound_to 1744
   28.9538    8.5982   -0.0601 LP  0  0  0  0  0  0  0  0  0  0  0  0  # atno 5378 bound_to 2763
   30.5314    8.6009    0.3616 LP  0  0  0  0  0  0  0  0  0  0  0  0  # atno 5379 bound_to 2763

> <Gold.Score>
     Fitness  S(hb_ext) S(vdw_ext)  S(hb_int)    S(int)      intcor
     34.74       1.37      25.40       0.00      -1.55      -0.79

> <Gold.Goldscore.Fitness>
34.7372

> <Gold.Goldscore.Internal.Vdw>
-1.3835

> <Gold.Goldscore.Internal.Torsion>
-0.9573

> <Gold.Goldscore.External.Vdw>
25.3964

> <Gold.Goldscore.Internal.HBond>
0.0000

> <Gold.Goldscore.External.HBond>
1.3707

> <Gold.Goldscore.Internal.Correction>
-0.7872

> <Gold.Goldscore.Hbonds>
donor molecule, donor type, donor heavy atom, donor atom, acceptor molecule, acceptor atom, score
      L1  H    10    23       P1  2555  0.69

> <Gold.Goldscore.Internal.Vdw.Weighted>
-1.3835

> <Gold.Goldscore.Internal.Torsion.Weighted>
-0.9573

> <Gold.Goldscore.External.Vdw.Weighted>
34.9201

> <Gold.Goldscore.Internal.HBond.Weighted>
0.0000

> <Gold.Goldscore.External.HBond.Weighted>
1.3707

> <Gold.Goldscore.Internal.Correction.Weighted>
-0.7872

> <Gold.Rescore>
     Score     S(PLP)   S(hbond)     S(cho)   S(metal)  DE(clash)   DE(tors)     intcor
     29.01     -27.40       1.23       0.00       0.00       0.10       1.00       ----

> <Gold.PLP.Fitness>
29.0078

> <Gold.PLP.PLP>
-27.4042

> <Gold.PLP.part.hbond>
-3.6820

> <Gold.PLP.part.metal>
0.0000

> <Gold.PLP.part.buried>
11.1448

> <Gold.PLP.part.nonpolar>
-37.4990

> <Gold.PLP.part.repulsive>
1.8391

> <Gold.PLP.ligand.clash>
0.1012

> <Gold.PLP.ligand.torsion>
0.9956

> <Gold.PLP.Chemscore.Hbond>
1.2320

> <Gold.PLP.Chemscore.CHOScore>
0.0000

> <Gold.PLP.Chemscore.Metal>
0.0000

> <Gold.Chemscore.Hbonds>
donor molecule, donor type, donor heavy atom, donor atom, acceptor molecule, acceptor atom, score
      L1  H     8    22       P1   541  0.14
      L1  H    10    23       P1  2555  0.80

> <Gold.PLP.Chemscore.Internal.Correction>
   9.000000E+99

