#       Name:                CT1002167954
#       Creating user name   hitesit
#       Creation time:       Sun Apr 16 22:50:14 2023


#       File generated by GOLD software.
#

@<TRIPOS>MOLECULE
CT1002167954|ligand_prepared|mol2|1|dock8
    29    30     1
SMALL
NO_CHARGES


@<TRIPOS>ATOM
      1 C1          26.9175   9.2767  -3.0737 C.3            1 RES1               0.0000
      2 C2          28.2617   9.6823  -3.7120 C.ar           1 RES1               0.0000
      3 C3          25.8629  10.2045  -3.6697 C.2            1 RES1               0.0000
      4 C4          26.7125   7.8039  -3.4108 C.2            1 RES1               0.0000
      5 C5          26.8873   9.4232  -1.5345 C.3            1 RES1               0.0000
      6 C6          28.3352  10.0070  -5.0633 C.ar           1 RES1               0.0000
      7 C7          29.4341   9.7390  -2.9631 C.ar           1 RES1               0.0000
      8 N8          25.0077   9.6786  -4.5927 N.am           1 RES1               0.0000
      9 O9          25.8079  11.3893  -3.3638 O.2            1 RES1               0.0000
     10 N10         25.6672   7.4729  -4.2326 N.am           1 RES1               0.0000
     11 O11         27.4566   6.9289  -2.9855 O.2            1 RES1               0.0000
     12 C12         25.4945   9.3096  -0.9350 C.3            1 RES1               0.0000
     13 C13         29.5365  10.3777  -5.6443 C.ar           1 RES1               0.0000
     14 C14         30.6346  10.1098  -3.5462 C.ar           1 RES1               0.0000
     15 C15         24.8240   8.3465  -4.8636 C.2            1 RES1               0.0000
     16 C16         30.6868  10.4298  -4.8862 C.ar           1 RES1               0.0000
     17 O17         23.9412   7.9750  -5.6316 O.2            1 RES1               0.0000
     18 H18         27.5259   8.6480  -1.0934 H              1 RES1               0.0000
     19 H19         27.3094  10.3990  -1.2643 H              1 RES1               0.0000
     20 H20         27.4408   9.9693  -5.6763 H              1 RES1               0.0000
     21 H21         29.4170   9.4905  -1.9074 H              1 RES1               0.0000
     22 H22         24.4536  10.3367  -5.1314 H              1 RES1               0.0000
     23 H23         25.5022   6.4835  -4.3884 H              1 RES1               0.0000
     24 H24         25.5300   9.4196   0.1468 H              1 RES1               0.0000
     25 H25         24.8392  10.0817  -1.3328 H              1 RES1               0.0000
     26 H26         25.0544   8.3410  -1.1629 H              1 RES1               0.0000
     27 H27         29.5726  10.6273  -6.6996 H              1 RES1               0.0000
     28 H28         31.5375  10.1488  -2.9459 H              1 RES1               0.0000
     29 H29         31.6278  10.7206  -5.3415 H              1 RES1               0.0000
@<TRIPOS>BOND
    1    1    2 1     
    2    1    3 1     
    3    1    4 1     
    4    1    5 1     
    5    2    6 ar    
    6    2    7 ar    
    7    3    8 1     
    8    3    9 2     
    9    4   10 1     
   10    4   11 2     
   11    5   12 1     
   12    5   18 1     
   13    5   19 1     
   14    6   13 ar    
   15    6   20 1     
   16    7   14 ar    
   17    7   21 1     
   18    8   15 1     
   19    8   22 1     
   20   10   15 1     
   21   10   23 1     
   22   12   24 1     
   23   12   25 1     
   24   12   26 1     
   25   13   16 ar    
   26   13   27 1     
   27   14   16 ar    
   28   14   28 1     
   29   15   17 2     
   30   16   29 1     
@<TRIPOS>SUBSTRUCTURE
      1 RES1           1
@<TRIPOS>SET
DONOR_HYDROGENS      STATIC     ATOMS    <user>   **** ""
2 22 23
ATOM$RED        STATIC     ATOMS    COLORGROUP SYSTEM
2 22 23
@<TRIPOS>COMMENT
> <Gold.Version>
2022.3.0

> <Gold.Id.Protein>
unknown|3nx8_clean|pdb

> <Gold.Protein.RotatedTorsions>
[ 1752 1744 1743 1741 ] final  112.82 input   60.01 | X-H torsion
[ 2770 2763 2761 2758 ] final  108.07 input   60.01 | X-H torsion
[ 5056 5047 5046 5044 ] final   68.01 input   59.99 | X-H torsion

> <Gold.Protein.ActiveResidues>
 LEU49   GLY50   THR51   GLY52   ARG56   VAL57   MET58   LEU59   VAL60   HIS68  
 TYR69   ALA70   MET71   LYS72   LEU95   VAL104  LYS105  MET118  VAL119  MET120 
 GLU121  TYR122  VAL123  PRO124  GLY125  GLY126  GLU127  GLU170  ASN171  LEU173 
 ILE174  GLN181  VAL182  THR183  ASP184  PHE327  TYR330 

> <Gold.Protein.RotatedAtoms>
   34.9117   12.7279  -11.2426 H   0  0  0  0  0  0  0  0  0  0  0  0  # atno 1752 bound_to 1744
   30.5412    8.5777    0.4208 H   0  0  0  0  0  0  0  0  0  0  0  0  # atno 2770 bound_to 2763
   23.5482   10.1271   -8.7610 H   0  0  0  0  0  0  0  0  0  0  0  0  # atno 5056 bound_to 5047
   33.9777   11.5314  -10.6558 LP  0  0  0  0  0  0  0  0  0  0  0  0  # atno 5370 bound_to 1744
   35.4636   11.1970  -11.2448 LP  0  0  0  0  0  0  0  0  0  0  0  0  # atno 5371 bound_to 1744
   29.3404    8.1000    1.4103 LP  0  0  0  0  0  0  0  0  0  0  0  0  # atno 5378 bound_to 2763
   28.9999    8.6176   -0.1006 LP  0  0  0  0  0  0  0  0  0  0  0  0  # atno 5379 bound_to 2763

> <Gold.Score>
     Fitness  S(hb_ext) S(vdw_ext)  S(hb_int)    S(int)      intcor
     36.10       1.79      25.14       0.00      -0.25      -0.76

> <Gold.Goldscore.Fitness>
36.1030

> <Gold.Goldscore.Internal.Vdw>
-0.4051

> <Gold.Goldscore.Internal.Torsion>
-0.6036

> <Gold.Goldscore.External.Vdw>
25.1362

> <Gold.Goldscore.Internal.HBond>
0.0000

> <Gold.Goldscore.External.HBond>
1.7910

> <Gold.Goldscore.Internal.Correction>
-0.7585

> <Gold.Goldscore.Hbonds>
donor molecule, donor type, donor heavy atom, donor atom, acceptor molecule, acceptor atom, score
      L1  H    10    23       P1  2555  0.90

> <Gold.Goldscore.Internal.Vdw.Weighted>
-0.4051

> <Gold.Goldscore.Internal.Torsion.Weighted>
-0.6036

> <Gold.Goldscore.External.Vdw.Weighted>
34.5623

> <Gold.Goldscore.Internal.HBond.Weighted>
0.0000

> <Gold.Goldscore.External.HBond.Weighted>
1.7910

> <Gold.Goldscore.Internal.Correction.Weighted>
-0.7585

> <Gold.Rescore>
     Score     S(PLP)   S(hbond)     S(cho)   S(metal)  DE(clash)   DE(tors)     intcor
     29.14     -27.56       1.19       0.00       0.00       0.00       1.00       ----

> <Gold.PLP.Fitness>
29.1423

> <Gold.PLP.PLP>
-27.5586

> <Gold.PLP.part.hbond>
-3.2959

> <Gold.PLP.part.metal>
0.0000

> <Gold.PLP.part.buried>
10.5830

> <Gold.PLP.part.nonpolar>
-37.4530

> <Gold.PLP.part.repulsive>
2.1503

> <Gold.PLP.ligand.clash>
0.0000

> <Gold.PLP.ligand.torsion>
0.9998

> <Gold.PLP.Chemscore.Hbond>
1.1944

> <Gold.PLP.Chemscore.CHOScore>
0.0000

> <Gold.PLP.Chemscore.Metal>
0.0000

> <Gold.Chemscore.Hbonds>
donor molecule, donor type, donor heavy atom, donor atom, acceptor molecule, acceptor atom, score
      L1  H    10    23       P1  2555  1.00

> <Gold.PLP.Chemscore.Internal.Correction>
   9.000000E+99

