#       Name:                CT1002167954
#       Creating user name   hitesit
#       Creation time:       Sun Apr 16 22:56:39 2023


#       File generated by GOLD software.
#

@<TRIPOS>MOLECULE
CT1002167954|ligand_prepared|mol2|1|dock8
    29    30     1
SMALL
NO_CHARGES


@<TRIPOS>ATOM
      1 C1         186.6876   7.9025  49.8326 C.3            1 RES1               0.0000
      2 C2         187.6873   6.7294  49.8883 C.ar           1 RES1               0.0000
      3 C3         187.4308   9.1244  50.3647 C.2            1 RES1               0.0000
      4 C4         186.2531   8.0240  48.3762 C.2            1 RES1               0.0000
      5 C5         185.4208   7.6852  50.6925 C.3            1 RES1               0.0000
      6 C6         188.8500   6.7523  49.1239 C.ar           1 RES1               0.0000
      7 C7         187.4623   5.6206  50.6999 C.ar           1 RES1               0.0000
      8 N8         187.8178  10.0709  49.4624 N.am           1 RES1               0.0000
      9 O9         187.7078   9.2366  51.5525 O.2            1 RES1               0.0000
     10 N10        186.6069   9.1581  47.6931 N.am           1 RES1               0.0000
     11 O11        185.6220   7.1406  47.8091 O.2            1 RES1               0.0000
     12 C12        184.4663   8.8689  50.6883 C.3            1 RES1               0.0000
     13 C13        189.7564   5.7062  49.1713 C.ar           1 RES1               0.0000
     14 C14        188.3699   4.5754  50.7456 C.ar           1 RES1               0.0000
     15 C15        187.3958  10.1733  48.1612 C.2            1 RES1               0.0000
     16 C16        189.5173   4.6173  49.9823 C.ar           1 RES1               0.0000
     17 O17        187.7155  11.1351  47.4684 O.2            1 RES1               0.0000
     18 H18        184.8886   6.8012  50.3201 H              1 RES1               0.0000
     19 H19        185.7263   7.4818  51.7263 H              1 RES1               0.0000
     20 H20        189.0540   7.5997  48.4779 H              1 RES1               0.0000
     21 H21        186.5659   5.5656  51.3081 H              1 RES1               0.0000
     22 H22        188.4825  10.7669  49.7849 H              1 RES1               0.0000
     23 H23        186.2487   9.2544  46.7483 H              1 RES1               0.0000
     24 H24        183.5949   8.6640  51.3066 H              1 RES1               0.0000
     25 H25        184.9552   9.7601  51.0763 H              1 RES1               0.0000
     26 H26        184.1225   9.0835  49.6785 H              1 RES1               0.0000
     27 H27        190.6573   5.7434  48.5676 H              1 RES1               0.0000
     28 H28        188.1774   3.7201  51.3848 H              1 RES1               0.0000
     29 H29        190.2277   3.7981  50.0196 H              1 RES1               0.0000
@<TRIPOS>BOND
    1    1    2 1     
    2    1    3 1     
    3    1    4 1     
    4    1    5 1     
    5    2    6 ar    
    6    2    7 ar    
    7    3    8 1     
    8    3    9 2     
    9    4   10 1     
   10    4   11 2     
   11    5   12 1     
   12    5   18 1     
   13    5   19 1     
   14    6   13 ar    
   15    6   20 1     
   16    7   14 ar    
   17    7   21 1     
   18    8   15 1     
   19    8   22 1     
   20   10   15 1     
   21   10   23 1     
   22   12   24 1     
   23   12   25 1     
   24   12   26 1     
   25   13   16 ar    
   26   13   27 1     
   27   14   16 ar    
   28   14   28 1     
   29   15   17 2     
   30   16   29 1     
@<TRIPOS>SUBSTRUCTURE
      1 RES1           1
@<TRIPOS>SET
DONOR_HYDROGENS      STATIC     ATOMS    <user>   **** ""
2 22 23
ATOM$RED        STATIC     ATOMS    COLORGROUP SYSTEM
2 22 23
@<TRIPOS>COMMENT
> <Gold.Version>
2022.3.0

> <Gold.Id.Protein>
unknown|4v3u_clean|pdb

> <Gold.Protein.RotatedTorsions>
[  549  517  516  515 ] final   76.45 input   59.99 | X-H torsion
[ 2542 2515 2516 2517 ] final  -45.15 input  113.65 | X-H torsion
[ 2618 2585 2586 2587 ] final -106.63 input   46.31 | X-H torsion
[ 26064 26031 26030 26028 ] final -175.19 input   59.98 | X-H torsion
[ 27154 27102 27101 27097 ] final  -44.13 input   60.00 | X-H torsion
[ 7430 7405 7406 7407 ] final  132.83 input   81.33 | X-H torsion
[ 7467 7446 7447 7448 ] final  -32.38 input   92.53 | X-H torsion
[ 7519 7507 7508 7509 ] final -104.52 input   89.47 | X-H torsion
[ 17183 17168 17169 17170 ] final   84.10 input   55.70 | X-H torsion
[ 17231 17210 17211 17212 ] final -174.58 input  101.26 | X-H torsion
[ 18283 18265 18266 18267 ] final -109.07 input   32.88 | X-H torsion
[ 18322 18307 18308 18309 ] final -172.98 input   53.35 | X-H torsion
[ 18397 18345 18346 18347 ] final  141.53 input   36.30 | X-H torsion
[ 18484 18439 18440 18441 ] final  -79.43 input   98.15 | X-H torsion
[ 18552 18519 18520 18521 ] final -128.97 input   94.34 | X-H torsion
[ 17291 17273 17274 17275 ] final  134.49 input   50.38 | X-H torsion
[ 18492 18450 18449 18447 ] final   67.54 input   59.99 | X-H torsion
[ 18223 18190 18191 18192 ] final -117.08 input   49.82 | X-H torsion
[ 18287 18270 18269 18266 ] final   31.83 input   60.01 | X-H torsion
[ 10108 10086 10085 10082 ] final  166.81 input   60.00 | X-H torsion
[ 16975 16942 16941 16939 ] final   23.74 input   60.00 | X-H torsion
[ 11483 11448 11449 11450 ] final -118.71 input   47.08 | X-H torsion
[ 11550 11515 11516 11517 ] final   61.98 input  121.60 | X-H torsion
[ 11626 11591 11592 11593 ] final  130.73 input   57.19 | X-H torsion
[ 11428 11406 11405 11402 ] final  158.66 input   60.00 | X-H torsion
[ 27156 27104 27103 27101 ] final -102.14 input   60.02 | X-H torsion
[ 10144 10124 10125 10126 ] final   33.06 input   16.22 | X-H torsion
[ 17343 17319 17320 17321 ] final  152.33 input   65.41 | X-H torsion
[ 27203 2518 2517 2516 ] final -136.09 input    0.00 | X-H torsion
[ 27224 7317 7316 7315 ] final  -76.79 input    0.00 | X-H torsion
[ 27227 7408 7407 7406 ] final   56.54 input   -0.00 | X-H torsion
[ 27232 17117 17116 17115 ] final  160.10 input    0.00 | X-H torsion
[ 27236 18193 18192 18191 ] final  -75.32 input    0.00 | X-H torsion
[ 27239 18268 18267 18266 ] final  -86.13 input    0.00 | X-H torsion
[ 27242 18310 18309 18308 ] final  173.61 input   -0.00 | X-H torsion
[ 27245 18348 18347 18346 ] final  -64.78 input    0.00 | X-H torsion
[ 27253 17171 17170 17169 ] final  167.13 input   -0.00 | X-H torsion
[ 27255 17213 17212 17211 ] final  118.74 input    0.00 | X-H torsion
[ 27257 17042 17041 17040 ] final -164.06 input    0.00 | X-H torsion
[ 27267 10127 10126 10125 ] final   85.69 input   -0.00 | X-H torsion
[ 27269 11404 11403 11402 ] final   98.74 input    0.00 | X-H torsion
[ 27275 11594 11593 11592 ] final -170.35 input   -0.00 | X-H torsion
[ 27284 18675 18674 18673 ] final -107.46 input    0.00 | X-H torsion

> <Gold.Protein.ActiveResidues>
 LYS309  TRP311  MET341  HIS342  TRP414  ALA417  ARG419  CYS420  VAL421  GLY422 
 ARG423  SER462  ALA463  SER482  GLN483  LEU484  ILE485  ARG486  ALA502  TRP566 
 TYR567  LEU569  PRO570  ALA571  VAL572  SER573  ASN574  MET575  PHE589  SER590 
 GLY591  TRP592  TYR593  MET594  GLU597  ILE598  ARG601  ASP602  ASP605  ARG608 
 TRP683  HIS697  GLU699  TYR711  HEM750  H4B760 

> <Gold.Protein.RotatedAtoms>
  189.0907   23.4274   43.3443 H   0  0  0  0  0  0  0  0  0  0  0  0  # atno 549  bound_to 517 
  188.5055   24.5799   42.3071 H   0  0  0  0  0  0  0  0  0  0  0  0  # atno 550  bound_to 517 
  189.9737   23.8698   42.0144 H   0  0  0  0  0  0  0  0  0  0  0  0  # atno 551  bound_to 517 
  198.3074   19.4404   45.9674 H   0  0  0  0  0  0  0  0  0  0  0  0  # atno 2542 bound_to 2515
  197.3127   17.8642   44.3479 H   0  0  0  0  0  0  0  0  0  0  0  0  # atno 2618 bound_to 2585
  197.0435    6.0931   49.7371 H   0  0  0  0  0  0  0  0  0  0  0  0  # atno 7430 bound_to 7405
  195.6664    4.2328   53.0127 H   0  0  0  0  0  0  0  0  0  0  0  0  # atno 7467 bound_to 7446
  195.3240    2.9260   55.2421 H   0  0  0  0  0  0  0  0  0  0  0  0  # atno 7519 bound_to 7507
  190.5466   -4.4185   51.2541 H   0  0  0  0  0  0  0  0  0  0  0  0  # atno 10108 bound_to 10086
  187.3905   -3.9203   47.2210 H   0  0  0  0  0  0  0  0  0  0  0  0  # atno 10144 bound_to 10124
  182.7437   12.3748   43.6271 H   0  0  0  0  0  0  0  0  0  0  0  0  # atno 11428 bound_to 11406
  183.1576    8.6339   42.3408 H   0  0  0  0  0  0  0  0  0  0  0  0  # atno 11483 bound_to 11448
  181.3618    5.1385   44.3434 H   0  0  0  0  0  0  0  0  0  0  0  0  # atno 11550 bound_to 11515
  179.2003    4.1414   45.1884 H   0  0  0  0  0  0  0  0  0  0  0  0  # atno 11626 bound_to 11591
  179.9293    9.5632   50.0927 H   0  0  0  0  0  0  0  0  0  0  0  0  # atno 16975 bound_to 16942
  182.4111    3.7207   47.6485 H   0  0  0  0  0  0  0  0  0  0  0  0  # atno 17183 bound_to 17168
  185.6198    4.4731   46.2718 H   0  0  0  0  0  0  0  0  0  0  0  0  # atno 17231 bound_to 17210
  184.9687    5.6086   42.7873 H   0  0  0  0  0  0  0  0  0  0  0  0  # atno 17291 bound_to 17273
  185.7235    7.2443   40.4693 H   0  0  0  0  0  0  0  0  0  0  0  0  # atno 17343 bound_to 17319
  186.6481    0.3304   41.9751 H   0  0  0  0  0  0  0  0  0  0  0  0  # atno 18223 bound_to 18190
  187.4659    0.1314   45.6302 H   0  0  0  0  0  0  0  0  0  0  0  0  # atno 18283 bound_to 18265
  185.3976   -2.4700   47.6134 H   0  0  0  0  0  0  0  0  0  0  0  0  # atno 18287 bound_to 18270
  187.5843   -0.4955   48.8629 H   0  0  0  0  0  0  0  0  0  0  0  0  # atno 18322 bound_to 18307
  187.0106   -1.2975   52.9985 H   0  0  0  0  0  0  0  0  0  0  0  0  # atno 18397 bound_to 18345
  186.0312    1.5818   54.9015 H   0  0  0  0  0  0  0  0  0  0  0  0  # atno 18484 bound_to 18439
  182.5312    7.1101   51.2766 H   0  0  0  0  0  0  0  0  0  0  0  0  # atno 18492 bound_to 18450
  187.1482    3.4295   57.1485 H   0  0  0  0  0  0  0  0  0  0  0  0  # atno 18552 bound_to 18519
  194.9273   13.0311   45.4461 H   0  0  0  0  0  0  0  0  0  0  0  0  # atno 26064 bound_to 26031
  192.3223   19.3006   52.0159 H   0  0  0  0  0  0  0  0  0  0  0  0  # atno 27154 bound_to 27102
  197.1139   18.9437   51.3686 H   0  0  0  0  0  0  0  0  0  0  0  0  # atno 27156 bound_to 27104
  196.8690   20.3008   46.4563 LP  0  0  0  0  0  0  0  0  0  0  0  0  # atno 27202 bound_to 2515
  197.6433   15.9217   43.9749 LP  0  0  0  0  0  0  0  0  0  0  0  0  # atno 27203 bound_to 2518
  196.1731   15.8149   44.8843 LP  0  0  0  0  0  0  0  0  0  0  0  0  # atno 27204 bound_to 2518
  196.6859   19.2994   43.5760 LP  0  0  0  0  0  0  0  0  0  0  0  0  # atno 27205 bound_to 2585
  194.0543   11.6584   45.4738 LP  0  0  0  0  0  0  0  0  0  0  0  0  # atno 27209 bound_to 26031
  193.3022   13.1078   45.4705 LP  0  0  0  0  0  0  0  0  0  0  0  0  # atno 27210 bound_to 26031
  192.8215   20.7596   51.4971 LP  0  0  0  0  0  0  0  0  0  0  0  0  # atno 27213 bound_to 27102
  193.3982   20.1460   52.8962 LP  0  0  0  0  0  0  0  0  0  0  0  0  # atno 27214 bound_to 27102
  196.0267    8.3907   52.4481 LP  0  0  0  0  0  0  0  0  0  0  0  0  # atno 27224 bound_to 7317
  194.8867    8.0503   51.1893 LP  0  0  0  0  0  0  0  0  0  0  0  0  # atno 27225 bound_to 7317
  197.3080    6.9069   51.2573 LP  0  0  0  0  0  0  0  0  0  0  0  0  # atno 27226 bound_to 7405
  198.3618    4.6270   52.4022 LP  0  0  0  0  0  0  0  0  0  0  0  0  # atno 27227 bound_to 7408
  197.5994    3.2288   53.0833 LP  0  0  0  0  0  0  0  0  0  0  0  0  # atno 27228 bound_to 7408
  195.3986    5.8563   53.6096 LP  0  0  0  0  0  0  0  0  0  0  0  0  # atno 27229 bound_to 7446
  194.7597    2.8681   53.5905 LP  0  0  0  0  0  0  0  0  0  0  0  0  # atno 27230 bound_to 7507
  185.2212    1.8643   48.1032 LP  0  0  0  0  0  0  0  0  0  0  0  0  # atno 27232 bound_to 17117
  185.4367    2.3937   49.7382 LP  0  0  0  0  0  0  0  0  0  0  0  0  # atno 27233 bound_to 17117
  183.9600    3.5704   48.4372 LP  0  0  0  0  0  0  0  0  0  0  0  0  # atno 27234 bound_to 17168
  185.4170    3.3376   44.9529 LP  0  0  0  0  0  0  0  0  0  0  0  0  # atno 27235 bound_to 17210
  187.0760    2.2619   45.4624 LP  0  0  0  0  0  0  0  0  0  0  0  0  # atno 27236 bound_to 18193
  185.4867    1.6017   45.2667 LP  0  0  0  0  0  0  0  0  0  0  0  0  # atno 27237 bound_to 18193
  186.7650   -1.4669   45.6895 LP  0  0  0  0  0  0  0  0  0  0  0  0  # atno 27238 bound_to 18265
  186.9481   -2.9622   48.4241 LP  0  0  0  0  0  0  0  0  0  0  0  0  # atno 27239 bound_to 18268
  188.4847   -2.2184   48.1310 LP  0  0  0  0  0  0  0  0  0  0  0  0  # atno 27240 bound_to 18268
  186.1904    0.1102   49.7285 LP  0  0  0  0  0  0  0  0  0  0  0  0  # atno 27241 bound_to 18307
  184.5964   -1.3387   52.4756 LP  0  0  0  0  0  0  0  0  0  0  0  0  # atno 27242 bound_to 18310
  185.0385   -1.7206   50.8450 LP  0  0  0  0  0  0  0  0  0  0  0  0  # atno 27243 bound_to 18310
  187.1979    0.3633   52.4847 LP  0  0  0  0  0  0  0  0  0  0  0  0  # atno 27244 bound_to 18345
  188.1433    1.4007   54.8418 LP  0  0  0  0  0  0  0  0  0  0  0  0  # atno 27245 bound_to 18348
  187.4485    2.7431   53.9960 LP  0  0  0  0  0  0  0  0  0  0  0  0  # atno 27246 bound_to 18348
  184.4460    1.5082   55.6367 LP  0  0  0  0  0  0  0  0  0  0  0  0  # atno 27247 bound_to 18439
  186.9970    5.0366   56.4759 LP  0  0  0  0  0  0  0  0  0  0  0  0  # atno 27248 bound_to 18519
  183.8019    5.5975   44.4434 LP  0  0  0  0  0  0  0  0  0  0  0  0  # atno 27253 bound_to 17171
  182.5900    4.4462   44.8971 LP  0  0  0  0  0  0  0  0  0  0  0  0  # atno 27254 bound_to 17171
  186.1056    2.9746   42.1956 LP  0  0  0  0  0  0  0  0  0  0  0  0  # atno 27255 bound_to 17213
  187.6733    3.4890   42.7227 LP  0  0  0  0  0  0  0  0  0  0  0  0  # atno 27256 bound_to 17213
  181.0598    3.6629   48.8624 LP  0  0  0  0  0  0  0  0  0  0  0  0  # atno 27257 bound_to 17042
  179.5286    3.0068   49.3367 LP  0  0  0  0  0  0  0  0  0  0  0  0  # atno 27258 bound_to 17042
  186.6048    5.9029   42.2554 LP  0  0  0  0  0  0  0  0  0  0  0  0  # atno 27259 bound_to 17273
  182.1265    8.2280   52.3877 LP  0  0  0  0  0  0  0  0  0  0  0  0  # atno 27260 bound_to 18450
  181.0617    7.0611   51.9738 LP  0  0  0  0  0  0  0  0  0  0  0  0  # atno 27261 bound_to 18450
  187.2616    1.7818   42.7346 LP  0  0  0  0  0  0  0  0  0  0  0  0  # atno 27262 bound_to 18190
  184.5921   -2.1624   46.2338 LP  0  0  0  0  0  0  0  0  0  0  0  0  # atno 27263 bound_to 18270
  183.7855   -2.2543   47.6507 LP  0  0  0  0  0  0  0  0  0  0  0  0  # atno 27264 bound_to 18270
  188.9620   -4.5504   51.6012 LP  0  0  0  0  0  0  0  0  0  0  0  0  # atno 27265 bound_to 10086
  189.5002   -3.3073   50.6893 LP  0  0  0  0  0  0  0  0  0  0  0  0  # atno 27266 bound_to 10086
  188.2874   -2.5956   45.3340 LP  0  0  0  0  0  0  0  0  0  0  0  0  # atno 27267 bound_to 10127
  186.6683   -2.6844   44.7252 LP  0  0  0  0  0  0  0  0  0  0  0  0  # atno 27268 bound_to 10127
  185.0941    8.4416   43.4073 LP  0  0  0  0  0  0  0  0  0  0  0  0  # atno 27269 bound_to 11404
  184.8747    7.5430   41.9430 LP  0  0  0  0  0  0  0  0  0  0  0  0  # atno 27270 bound_to 11404
  180.3352    8.6401   48.8159 LP  0  0  0  0  0  0  0  0  0  0  0  0  # atno 27271 bound_to 16942
  181.1053    8.4489   50.2431 LP  0  0  0  0  0  0  0  0  0  0  0  0  # atno 27272 bound_to 16942
  181.6270    9.1812   42.9807 LP  0  0  0  0  0  0  0  0  0  0  0  0  # atno 27273 bound_to 11448
  181.4777    5.7572   42.7123 LP  0  0  0  0  0  0  0  0  0  0  0  0  # atno 27274 bound_to 11515
  178.7411    7.9202   47.7983 LP  0  0  0  0  0  0  0  0  0  0  0  0  # atno 27275 bound_to 11594
  179.4035    6.3511   47.4835 LP  0  0  0  0  0  0  0  0  0  0  0  0  # atno 27276 bound_to 11594
  179.1462    5.6707   44.3442 LP  0  0  0  0  0  0  0  0  0  0  0  0  # atno 27277 bound_to 11591
  182.1362   10.8863   43.3764 LP  0  0  0  0  0  0  0  0  0  0  0  0  # atno 27282 bound_to 11406
  181.7614   12.1065   42.3580 LP  0  0  0  0  0  0  0  0  0  0  0  0  # atno 27283 bound_to 11406
  184.2552   12.6938   56.1009 LP  0  0  0  0  0  0  0  0  0  0  0  0  # atno 27284 bound_to 18675
  184.3654   11.7129   54.6776 LP  0  0  0  0  0  0  0  0  0  0  0  0  # atno 27285 bound_to 18675

> <Gold.Score>
     Fitness  S(hb_ext) S(vdw_ext)  S(hb_int)    S(int)      intcor
     39.79       1.83      27.89       0.00      -0.38      -0.76

> <Gold.Goldscore.Fitness>
39.7903

> <Gold.Goldscore.Internal.Vdw>
-0.7674

> <Gold.Goldscore.Internal.Torsion>
-0.3802

> <Gold.Goldscore.External.Vdw>
27.8886

> <Gold.Goldscore.Internal.HBond>
0.0000

> <Gold.Goldscore.External.HBond>
1.8261

> <Gold.Goldscore.Internal.Correction>
-0.7650

> <Gold.Goldscore.Hbonds>
donor molecule, donor type, donor heavy atom, donor atom, acceptor molecule, acceptor atom, score
      L1  H     8    22       P1 26838  0.30

> <Gold.Goldscore.Internal.Vdw.Weighted>
-0.7674

> <Gold.Goldscore.Internal.Torsion.Weighted>
-0.3802

> <Gold.Goldscore.External.Vdw.Weighted>
38.3468

> <Gold.Goldscore.Internal.HBond.Weighted>
0.0000

> <Gold.Goldscore.External.HBond.Weighted>
1.8261

> <Gold.Goldscore.Internal.Correction.Weighted>
-0.7650

> <Gold.Rescore>
     Score     S(PLP)   S(hbond)     S(cho)   S(metal)  DE(clash)   DE(tors)     intcor
     31.25     -30.52       0.57       0.00       0.00       0.00       0.49       ----

> <Gold.PLP.Fitness>
31.2455

> <Gold.PLP.PLP>
-30.5152

> <Gold.PLP.part.hbond>
-0.5915

> <Gold.PLP.part.metal>
0.0000

> <Gold.PLP.part.buried>
3.1495

> <Gold.PLP.part.nonpolar>
-39.8104

> <Gold.PLP.part.repulsive>
5.1873

> <Gold.PLP.ligand.clash>
0.0000

> <Gold.PLP.ligand.torsion>
0.4880

> <Gold.PLP.Chemscore.Hbond>
0.5688

> <Gold.PLP.Chemscore.CHOScore>
0.0000

> <Gold.PLP.Chemscore.Metal>
0.0000

> <Gold.Chemscore.Hbonds>
donor molecule, donor type, donor heavy atom, donor atom, acceptor molecule, acceptor atom, score
      L1  H     8    22       P1 26838  1.00

> <Gold.PLP.Chemscore.Internal.Correction>
   9.000000E+99

#       Name:                CT1002167954
#       Creating user name   hitesit
#       Creation time:       Sun Apr 16 22:56:41 2023


#       File generated by GOLD software.
#

@<TRIPOS>MOLECULE
CT1002167954|ligand_prepared|mol2|1|dock10
    29    30     1
SMALL
NO_CHARGES


@<TRIPOS>ATOM
      1 C1         187.6998   9.1399  48.2098 C.3            1 RES1               0.0000
      2 C2         188.1516   7.7798  48.7796 C.ar           1 RES1               0.0000
      3 C3         188.9587   9.8241  47.6852 C.2            1 RES1               0.0000
      4 C4         186.6659   8.8291  47.1331 C.2            1 RES1               0.0000
      5 C5         187.0367  10.0663  49.2556 C.3            1 RES1               0.0000
      6 C6         189.3404   7.1935  48.3556 C.ar           1 RES1               0.0000
      7 C7         187.3930   7.1018  49.7302 C.ar           1 RES1               0.0000
      8 N8         189.1290   9.8832  46.3333 N.am           1 RES1               0.0000
      9 O9         189.8082  10.2700  48.4466 O.2            1 RES1               0.0000
     10 N10        186.9792   9.1353  45.8347 N.am           1 RES1               0.0000
     11 O11        185.5896   8.3065  47.3954 O.2            1 RES1               0.0000
     12 C12        186.7943  11.4815  48.7550 C.3            1 RES1               0.0000
     13 C13        189.7573   5.9751  48.8655 C.ar           1 RES1               0.0000
     14 C14        187.8117   5.8833  50.2386 C.ar           1 RES1               0.0000
     15 C15        188.1761   9.6200  45.3823 C.2            1 RES1               0.0000
     16 C16        188.9936   5.3194  49.8075 C.ar           1 RES1               0.0000
     17 O17        188.4012   9.8190  44.1920 O.2            1 RES1               0.0000
     18 H18        186.0767   9.6289  49.5565 H              1 RES1               0.0000
     19 H19        187.6780  10.1113  50.1445 H              1 RES1               0.0000
     20 H20        189.9534   7.6935  47.6131 H              1 RES1               0.0000
     21 H21        186.4592   7.5260  50.0832 H              1 RES1               0.0000
     22 H22        190.0501  10.1475  45.9986 H              1 RES1               0.0000
     23 H23        186.2527   8.9883  45.1411 H              1 RES1               0.0000
     24 H24        186.3277  12.0892  49.5273 H              1 RES1               0.0000
     25 H25        187.7313  11.9558  48.4705 H              1 RES1               0.0000
     26 H26        186.1395  11.4763  47.8860 H              1 RES1               0.0000
     27 H27        190.6876   5.5349  48.5219 H              1 RES1               0.0000
     28 H28        187.2071   5.3705  50.9794 H              1 RES1               0.0000
     29 H29        189.3206   4.3651  50.2070 H              1 RES1               0.0000
@<TRIPOS>BOND
    1    1    2 1     
    2    1    3 1     
    3    1    4 1     
    4    1    5 1     
    5    2    6 ar    
    6    2    7 ar    
    7    3    8 1     
    8    3    9 2     
    9    4   10 1     
   10    4   11 2     
   11    5   12 1     
   12    5   18 1     
   13    5   19 1     
   14    6   13 ar    
   15    6   20 1     
   16    7   14 ar    
   17    7   21 1     
   18    8   15 1     
   19    8   22 1     
   20   10   15 1     
   21   10   23 1     
   22   12   24 1     
   23   12   25 1     
   24   12   26 1     
   25   13   16 ar    
   26   13   27 1     
   27   14   16 ar    
   28   14   28 1     
   29   15   17 2     
   30   16   29 1     
@<TRIPOS>SUBSTRUCTURE
      1 RES1           1
@<TRIPOS>SET
DONOR_HYDROGENS      STATIC     ATOMS    <user>   **** ""
2 22 23
ATOM$RED        STATIC     ATOMS    COLORGROUP SYSTEM
2 22 23
@<TRIPOS>COMMENT
> <Gold.Version>
2022.3.0

> <Gold.Id.Protein>
unknown|4v3u_clean|pdb

> <Gold.Protein.RotatedTorsions>
[  549  517  516  515 ] final -179.81 input   59.99 | X-H torsion
[ 2542 2515 2516 2517 ] final  -11.01 input  113.65 | X-H torsion
[ 2618 2585 2586 2587 ] final   25.29 input   46.31 | X-H torsion
[ 26064 26031 26030 26028 ] final   42.45 input   59.98 | X-H torsion
[ 27154 27102 27101 27097 ] final  -51.88 input   60.00 | X-H torsion
[ 7430 7405 7406 7407 ] final  152.26 input   81.33 | X-H torsion
[ 7467 7446 7447 7448 ] final   51.03 input   92.53 | X-H torsion
[ 7519 7507 7508 7509 ] final   29.69 input   89.47 | X-H torsion
[ 17183 17168 17169 17170 ] final  -61.19 input   55.70 | X-H torsion
[ 17231 17210 17211 17212 ] final  163.19 input  101.26 | X-H torsion
[ 18283 18265 18266 18267 ] final  -58.00 input   32.88 | X-H torsion
[ 18322 18307 18308 18309 ] final  124.95 input   53.35 | X-H torsion
[ 18397 18345 18346 18347 ] final  -53.16 input   36.30 | X-H torsion
[ 18484 18439 18440 18441 ] final  106.41 input   98.15 | X-H torsion
[ 18552 18519 18520 18521 ] final  -90.84 input   94.34 | X-H torsion
[ 17291 17273 17274 17275 ] final -113.44 input   50.38 | X-H torsion
[ 18492 18450 18449 18447 ] final   15.97 input   59.99 | X-H torsion
[ 18223 18190 18191 18192 ] final   -2.00 input   49.82 | X-H torsion
[ 18287 18270 18269 18266 ] final  -62.24 input   60.01 | X-H torsion
[ 10108 10086 10085 10082 ] final  133.20 input   60.00 | X-H torsion
[ 16975 16942 16941 16939 ] final   -7.59 input   60.00 | X-H torsion
[ 11483 11448 11449 11450 ] final  167.26 input   47.08 | X-H torsion
[ 11550 11515 11516 11517 ] final  -10.73 input  121.60 | X-H torsion
[ 11626 11591 11592 11593 ] final   80.78 input   57.19 | X-H torsion
[ 11428 11406 11405 11402 ] final  116.01 input   60.00 | X-H torsion
[ 27156 27104 27103 27101 ] final  111.55 input   60.02 | X-H torsion
[ 10144 10124 10125 10126 ] final  173.30 input   16.22 | X-H torsion
[ 17343 17319 17320 17321 ] final  -65.62 input   65.41 | X-H torsion
[ 27203 2518 2517 2516 ] final -130.18 input    0.00 | X-H torsion
[ 27224 7317 7316 7315 ] final  169.41 input    0.00 | X-H torsion
[ 27227 7408 7407 7406 ] final -123.20 input   -0.00 | X-H torsion
[ 27232 17117 17116 17115 ] final   15.96 input    0.00 | X-H torsion
[ 27236 18193 18192 18191 ] final -172.39 input    0.00 | X-H torsion
[ 27239 18268 18267 18266 ] final  107.31 input    0.00 | X-H torsion
[ 27242 18310 18309 18308 ] final    6.12 input   -0.00 | X-H torsion
[ 27245 18348 18347 18346 ] final  -93.23 input    0.00 | X-H torsion
[ 27253 17171 17170 17169 ] final -174.04 input   -0.00 | X-H torsion
[ 27255 17213 17212 17211 ] final   52.64 input    0.00 | X-H torsion
[ 27257 17042 17041 17040 ] final  -28.58 input    0.00 | X-H torsion
[ 27267 10127 10126 10125 ] final  -56.89 input   -0.00 | X-H torsion
[ 27269 11404 11403 11402 ] final   35.43 input    0.00 | X-H torsion
[ 27275 11594 11593 11592 ] final  -61.17 input   -0.00 | X-H torsion
[ 27284 18675 18674 18673 ] final  -84.80 input    0.00 | X-H torsion

> <Gold.Protein.ActiveResidues>
 LYS309  TRP311  MET341  HIS342  TRP414  ALA417  ARG419  CYS420  VAL421  GLY422 
 ARG423  SER462  ALA463  SER482  GLN483  LEU484  ILE485  ARG486  ALA502  TRP566 
 TYR567  LEU569  PRO570  ALA571  VAL572  SER573  ASN574  MET575  PHE589  SER590 
 GLY591  TRP592  TYR593  MET594  GLU597  ILE598  ARG601  ASP602  ASP605  ARG608 
 TRP683  HIS697  GLU699  TYR711  HEM750  H4B760 

> <Gold.Protein.RotatedAtoms>
  188.3905   24.4836   42.5324 H   0  0  0  0  0  0  0  0  0  0  0  0  # atno 549  bound_to 517 
  189.8483   24.0595   41.8679 H   0  0  0  0  0  0  0  0  0  0  0  0  # atno 550  bound_to 517 
  189.3317   23.3340   43.2651 H   0  0  0  0  0  0  0  0  0  0  0  0  # atno 551  bound_to 517 
  198.1127   19.6636   45.5437 H   0  0  0  0  0  0  0  0  0  0  0  0  # atno 2542 bound_to 2515
  197.3795   19.3476   43.7265 H   0  0  0  0  0  0  0  0  0  0  0  0  # atno 2618 bound_to 2585
  196.8344    6.3024   49.7188 H   0  0  0  0  0  0  0  0  0  0  0  0  # atno 7430 bound_to 7405
  194.7117    4.7520   53.4804 H   0  0  0  0  0  0  0  0  0  0  0  0  # atno 7467 bound_to 7446
  195.4059    2.6638   53.6417 H   0  0  0  0  0  0  0  0  0  0  0  0  # atno 7519 bound_to 7507
  190.2294   -4.7588   51.5313 H   0  0  0  0  0  0  0  0  0  0  0  0  # atno 10108 bound_to 10086
  187.4334   -5.4675   47.8035 H   0  0  0  0  0  0  0  0  0  0  0  0  # atno 10144 bound_to 10124
  182.7497   11.7464   43.8888 H   0  0  0  0  0  0  0  0  0  0  0  0  # atno 11428 bound_to 11406
  183.0002    9.2029   43.2254 H   0  0  0  0  0  0  0  0  0  0  0  0  # atno 11483 bound_to 11448
  180.8737    5.9862   43.9634 H   0  0  0  0  0  0  0  0  0  0  0  0  # atno 11550 bound_to 11515
  179.6134    4.6837   45.4921 H   0  0  0  0  0  0  0  0  0  0  0  0  # atno 11626 bound_to 11591
  179.7763    9.5212   49.6128 H   0  0  0  0  0  0  0  0  0  0  0  0  # atno 16975 bound_to 16942
  183.9458    4.0512   48.2383 H   0  0  0  0  0  0  0  0  0  0  0  0  # atno 17183 bound_to 17168
  185.9213    4.3070   46.2802 H   0  0  0  0  0  0  0  0  0  0  0  0  # atno 17231 bound_to 17210
  186.3086    5.0517   42.6279 H   0  0  0  0  0  0  0  0  0  0  0  0  # atno 17291 bound_to 17273
  186.7119    6.0953   39.7754 H   0  0  0  0  0  0  0  0  0  0  0  0  # atno 17343 bound_to 17319
  186.3981    1.4637   42.9224 H   0  0  0  0  0  0  0  0  0  0  0  0  # atno 18223 bound_to 18190
  187.8995   -0.4048   45.9490 H   0  0  0  0  0  0  0  0  0  0  0  0  # atno 18283 bound_to 18265
  184.9981   -2.2292   46.3259 H   0  0  0  0  0  0  0  0  0  0  0  0  # atno 18287 bound_to 18270
  187.6116    0.3094   49.2966 H   0  0  0  0  0  0  0  0  0  0  0  0  # atno 18322 bound_to 18307
  187.0254    0.3337   52.3431 H   0  0  0  0  0  0  0  0  0  0  0  0  # atno 18397 bound_to 18345
  184.3928    1.5539   55.5749 H   0  0  0  0  0  0  0  0  0  0  0  0  # atno 18484 bound_to 18439
  182.7739    7.7682   51.6906 H   0  0  0  0  0  0  0  0  0  0  0  0  # atno 18492 bound_to 18450
  186.6223    3.6376   57.2722 H   0  0  0  0  0  0  0  0  0  0  0  0  # atno 18552 bound_to 18519
  193.7021   11.7514   45.4750 H   0  0  0  0  0  0  0  0  0  0  0  0  # atno 26064 bound_to 26031
  192.2826   19.3550   51.9089 H   0  0  0  0  0  0  0  0  0  0  0  0  # atno 27154 bound_to 27102
  196.8245   20.0151   49.9625 H   0  0  0  0  0  0  0  0  0  0  0  0  # atno 27156 bound_to 27104
  197.0603   20.0814   46.8726 LP  0  0  0  0  0  0  0  0  0  0  0  0  # atno 27202 bound_to 2515
  197.6865   15.9180   44.0531 LP  0  0  0  0  0  0  0  0  0  0  0  0  # atno 27203 bound_to 2518
  196.1299   15.8186   44.8061 LP  0  0  0  0  0  0  0  0  0  0  0  0  # atno 27204 bound_to 2518
  196.6203   17.8439   44.1858 LP  0  0  0  0  0  0  0  0  0  0  0  0  # atno 27205 bound_to 2585
  193.5549   13.3718   45.4645 LP  0  0  0  0  0  0  0  0  0  0  0  0  # atno 27209 bound_to 26031
  195.0356   12.6833   45.4506 LP  0  0  0  0  0  0  0  0  0  0  0  0  # atno 27210 bound_to 26031
  192.9059   20.8194   51.5714 LP  0  0  0  0  0  0  0  0  0  0  0  0  # atno 27213 bound_to 27102
  193.3538   20.0314   52.9297 LP  0  0  0  0  0  0  0  0  0  0  0  0  # atno 27214 bound_to 27102
  195.0767    7.4457   51.8914 LP  0  0  0  0  0  0  0  0  0  0  0  0  # atno 27224 bound_to 7317
  195.8367    8.9953   51.7459 LP  0  0  0  0  0  0  0  0  0  0  0  0  # atno 27225 bound_to 7317
  197.5144    6.7003   51.2753 LP  0  0  0  0  0  0  0  0  0  0  0  0  # atno 27226 bound_to 7405
  197.5988    3.2274   53.0797 LP  0  0  0  0  0  0  0  0  0  0  0  0  # atno 27227 bound_to 7408
  198.3624    4.6284   52.4058 LP  0  0  0  0  0  0  0  0  0  0  0  0  # atno 27228 bound_to 7408
  196.3232    5.3535   53.1566 LP  0  0  0  0  0  0  0  0  0  0  0  0  # atno 27229 bound_to 7446
  194.6794    3.1254   55.1611 LP  0  0  0  0  0  0  0  0  0  0  0  0  # atno 27230 bound_to 7507
  185.1358    1.9536   49.7465 LP  0  0  0  0  0  0  0  0  0  0  0  0  # atno 27232 bound_to 17117
  185.5221    2.3045   48.0949 LP  0  0  0  0  0  0  0  0  0  0  0  0  # atno 27233 bound_to 17117
  182.4470    3.2446   47.8558 LP  0  0  0  0  0  0  0  0  0  0  0  0  # atno 27234 bound_to 17168
  185.1270    3.4974   44.9448 LP  0  0  0  0  0  0  0  0  0  0  0  0  # atno 27235 bound_to 17210
  186.1340    1.7590   46.2003 LP  0  0  0  0  0  0  0  0  0  0  0  0  # atno 27236 bound_to 18193
  186.4286    2.1046   44.5288 LP  0  0  0  0  0  0  0  0  0  0  0  0  # atno 27237 bound_to 18193
  186.3393   -0.9406   45.3765 LP  0  0  0  0  0  0  0  0  0  0  0  0  # atno 27238 bound_to 18265
  188.5075   -2.2421   48.3311 LP  0  0  0  0  0  0  0  0  0  0  0  0  # atno 27239 bound_to 18268
  186.9253   -2.9385   48.2240 LP  0  0  0  0  0  0  0  0  0  0  0  0  # atno 27240 bound_to 18268
  186.1638   -0.6720   49.3070 LP  0  0  0  0  0  0  0  0  0  0  0  0  # atno 27241 bound_to 18307
  185.0872   -1.8871   50.9191 LP  0  0  0  0  0  0  0  0  0  0  0  0  # atno 27242 bound_to 18310
  184.5477   -1.1721   52.4015 LP  0  0  0  0  0  0  0  0  0  0  0  0  # atno 27243 bound_to 18310
  187.1835   -1.2236   53.1224 LP  0  0  0  0  0  0  0  0  0  0  0  0  # atno 27244 bound_to 18345
  188.0749    1.6914   55.1451 LP  0  0  0  0  0  0  0  0  0  0  0  0  # atno 27245 bound_to 18348
  187.5169    2.4524   53.6927 LP  0  0  0  0  0  0  0  0  0  0  0  0  # atno 27246 bound_to 18348
  186.0383    1.5354   54.9823 LP  0  0  0  0  0  0  0  0  0  0  0  0  # atno 27247 bound_to 18439
  187.5088    4.8342   56.3556 LP  0  0  0  0  0  0  0  0  0  0  0  0  # atno 27248 bound_to 18519
  183.8144    5.4258   44.2183 LP  0  0  0  0  0  0  0  0  0  0  0  0  # atno 27253 bound_to 17171
  182.5775    4.6179   45.1223 LP  0  0  0  0  0  0  0  0  0  0  0  0  # atno 27254 bound_to 17171
  186.4222    2.8426   43.0758 LP  0  0  0  0  0  0  0  0  0  0  0  0  # atno 27255 bound_to 17213
  187.3567    3.6210   41.8426 LP  0  0  0  0  0  0  0  0  0  0  0  0  # atno 27256 bound_to 17213
  179.8000    2.6719   48.8421 LP  0  0  0  0  0  0  0  0  0  0  0  0  # atno 27257 bound_to 17042
  180.7884    3.9978   49.3569 LP  0  0  0  0  0  0  0  0  0  0  0  0  # atno 27258 bound_to 17042
  185.2872    6.4505   42.4122 LP  0  0  0  0  0  0  0  0  0  0  0  0  # atno 27259 bound_to 17273
  181.3777    7.9180   52.5128 LP  0  0  0  0  0  0  0  0  0  0  0  0  # atno 27260 bound_to 18450
  181.5663    6.7086   51.4319 LP  0  0  0  0  0  0  0  0  0  0  0  0  # atno 27261 bound_to 18450
  187.5042    0.6821   41.8153 LP  0  0  0  0  0  0  0  0  0  0  0  0  # atno 27262 bound_to 18190
  183.6621   -2.1799   47.2528 LP  0  0  0  0  0  0  0  0  0  0  0  0  # atno 27263 bound_to 18270
  185.1180   -2.4794   47.9289 LP  0  0  0  0  0  0  0  0  0  0  0  0  # atno 27264 bound_to 18270
  188.7443   -4.1183   51.3500 LP  0  0  0  0  0  0  0  0  0  0  0  0  # atno 27265 bound_to 10086
  190.0372   -3.3967   50.6614 LP  0  0  0  0  0  0  0  0  0  0  0  0  # atno 27266 bound_to 10086
  186.6627   -2.8126   45.2658 LP  0  0  0  0  0  0  0  0  0  0  0  0  # atno 27267 bound_to 10127
  188.2930   -2.4674   44.7934 LP  0  0  0  0  0  0  0  0  0  0  0  0  # atno 27268 bound_to 10127
  185.4230    8.7364   42.6128 LP  0  0  0  0  0  0  0  0  0  0  0  0  # atno 27269 bound_to 11404
  184.5459    7.2481   42.7374 LP  0  0  0  0  0  0  0  0  0  0  0  0  # atno 27270 bound_to 11404
  180.7065    8.3396   48.9919 LP  0  0  0  0  0  0  0  0  0  0  0  0  # atno 27271 bound_to 16942
  180.8880    8.7917   50.5505 LP  0  0  0  0  0  0  0  0  0  0  0  0  # atno 27272 bound_to 16942
  181.7810    8.6248   42.1158 LP  0  0  0  0  0  0  0  0  0  0  0  0  # atno 27273 bound_to 11448
  181.9538    4.9304   43.0828 LP  0  0  0  0  0  0  0  0  0  0  0  0  # atno 27274 bound_to 11515
  178.7020    6.5590   48.1704 LP  0  0  0  0  0  0  0  0  0  0  0  0  # atno 27275 bound_to 11594
  179.4426    7.7123   47.1114 LP  0  0  0  0  0  0  0  0  0  0  0  0  # atno 27276 bound_to 11594
  178.7426    5.1408   44.0475 LP  0  0  0  0  0  0  0  0  0  0  0  0  # atno 27277 bound_to 11591
  181.7718   11.0188   42.8108 LP  0  0  0  0  0  0  0  0  0  0  0  0  # atno 27282 bound_to 11406
  182.1198   12.6071   42.6599 LP  0  0  0  0  0  0  0  0  0  0  0  0  # atno 27283 bound_to 11406
  184.5827   12.7335   56.0175 LP  0  0  0  0  0  0  0  0  0  0  0  0  # atno 27284 bound_to 18675
  184.0379   11.6731   54.7610 LP  0  0  0  0  0  0  0  0  0  0  0  0  # atno 27285 bound_to 18675

> <Gold.Score>
     Fitness  S(hb_ext) S(vdw_ext)  S(hb_int)    S(int)      intcor
     38.96       6.17      24.61       0.00      -1.05      -0.76

> <Gold.Goldscore.Fitness>
38.9580

> <Gold.Goldscore.Internal.Vdw>
-1.2977

> <Gold.Goldscore.Internal.Torsion>
-0.5060

> <Gold.Goldscore.External.Vdw>
24.6052

> <Gold.Goldscore.Internal.HBond>
0.0000

> <Gold.Goldscore.External.HBond>
6.1710

> <Gold.Goldscore.Internal.Correction>
-0.7585

> <Gold.Goldscore.Hbonds>
donor molecule, donor type, donor heavy atom, donor atom, acceptor molecule, acceptor atom, score
      L1  H     8    22       P1 26833  1.00
      L1  H    10    23       P1 11404  0.09

> <Gold.Goldscore.Internal.Vdw.Weighted>
-1.2977

> <Gold.Goldscore.Internal.Torsion.Weighted>
-0.5060

> <Gold.Goldscore.External.Vdw.Weighted>
33.8322

> <Gold.Goldscore.Internal.HBond.Weighted>
0.0000

> <Gold.Goldscore.External.HBond.Weighted>
6.1710

> <Gold.Goldscore.Internal.Correction.Weighted>
-0.7585

> <Gold.Rescore>
     Score     S(PLP)   S(hbond)     S(cho)   S(metal)  DE(clash)   DE(tors)     intcor
     19.89     -19.51       0.96       0.00       0.00       0.00       1.25       ----

> <Gold.PLP.Fitness>
19.8939

> <Gold.PLP.PLP>
-19.5108

> <Gold.PLP.part.hbond>
-2.0000

> <Gold.PLP.part.metal>
0.0000

> <Gold.PLP.part.buried>
7.8340

> <Gold.PLP.part.nonpolar>
-32.6663

> <Gold.PLP.part.repulsive>
5.8179

> <Gold.PLP.ligand.clash>
0.0000

> <Gold.PLP.ligand.torsion>
1.2466

> <Gold.PLP.Chemscore.Hbond>
0.9588

> <Gold.PLP.Chemscore.CHOScore>
0.0000

> <Gold.PLP.Chemscore.Metal>
0.0000

> <Gold.Chemscore.Hbonds>
donor molecule, donor type, donor heavy atom, donor atom, acceptor molecule, acceptor atom, score
      L1  H     8    22       P1 26833  1.00

> <Gold.PLP.Chemscore.Internal.Correction>
   9.000000E+99

#       Name:                CT1002167954
#       Creating user name   hitesit
#       Creation time:       Sun Apr 16 22:56:36 2023


#       File generated by GOLD software.
#

@<TRIPOS>MOLECULE
CT1002167954|ligand_prepared|mol2|1|dock3
    29    30     1
SMALL
NO_CHARGES


@<TRIPOS>ATOM
      1 C1         185.9951  10.9675  50.8856 C.3            1 RES1               0.0000
      2 C2         186.7306  10.4085  49.6505 C.ar           1 RES1               0.0000
      3 C3         185.2133  12.1860  50.4036 C.2            1 RES1               0.0000
      4 C4         185.1200   9.8344  51.4100 C.2            1 RES1               0.0000
      5 C5         186.9391  11.4099  52.0278 C.3            1 RES1               0.0000
      6 C6         187.7282   9.4489  49.7941 C.ar           1 RES1               0.0000
      7 C7         186.4212  10.8400  48.3634 C.ar           1 RES1               0.0000
      8 N8         183.8608  12.0610  50.2812 N.am           1 RES1               0.0000
      9 O9         185.7792  13.2283  50.0978 O.2            1 RES1               0.0000
     10 N10        183.7602   9.9929  51.3502 N.am           1 RES1               0.0000
     11 O11        185.5956   8.7989  51.8592 O.2            1 RES1               0.0000
     12 C12        186.2231  12.0783  53.1908 C.3            1 RES1               0.0000
     13 C13        188.3906   8.9370  48.6906 C.ar           1 RES1               0.0000
     14 C14        187.0849  10.3269  47.2613 C.ar           1 RES1               0.0000
     15 C15        183.0907  11.0419  50.7814 C.2            1 RES1               0.0000
     16 C16        188.0692   9.3752  47.4237 C.ar           1 RES1               0.0000
     17 O17        181.8656  11.0873  50.7172 O.2            1 RES1               0.0000
     18 H18        187.4764  10.5300  52.4026 H              1 RES1               0.0000
     19 H19        187.6814  12.1083  51.6219 H              1 RES1               0.0000
     20 H20        187.9965   9.0938  50.7835 H              1 RES1               0.0000
     21 H21        185.6511  11.5887  48.2118 H              1 RES1               0.0000
     22 H22        183.3772  12.7929  49.7705 H              1 RES1               0.0000
     23 H23        183.1947   9.2612  51.7686 H              1 RES1               0.0000
     24 H24        186.9312  12.3689  53.9641 H              1 RES1               0.0000
     25 H25        185.6985  12.9718  52.8587 H              1 RES1               0.0000
     26 H26        185.4947  11.4029  53.6348 H              1 RES1               0.0000
     27 H27        189.1653   8.1891  48.8239 H              1 RES1               0.0000
     28 H28        186.8291  10.6751  46.2661 H              1 RES1               0.0000
     29 H29        188.5879   8.9737  46.5594 H              1 RES1               0.0000
@<TRIPOS>BOND
    1    1    2 1     
    2    1    3 1     
    3    1    4 1     
    4    1    5 1     
    5    2    6 ar    
    6    2    7 ar    
    7    3    8 1     
    8    3    9 2     
    9    4   10 1     
   10    4   11 2     
   11    5   12 1     
   12    5   18 1     
   13    5   19 1     
   14    6   13 ar    
   15    6   20 1     
   16    7   14 ar    
   17    7   21 1     
   18    8   15 1     
   19    8   22 1     
   20   10   15 1     
   21   10   23 1     
   22   12   24 1     
   23   12   25 1     
   24   12   26 1     
   25   13   16 ar    
   26   13   27 1     
   27   14   16 ar    
   28   14   28 1     
   29   15   17 2     
   30   16   29 1     
@<TRIPOS>SUBSTRUCTURE
      1 RES1           1
@<TRIPOS>SET
DONOR_HYDROGENS      STATIC     ATOMS    <user>   **** ""
2 22 23
ATOM$RED        STATIC     ATOMS    COLORGROUP SYSTEM
2 22 23
@<TRIPOS>COMMENT
> <Gold.Version>
2022.3.0

> <Gold.Id.Protein>
unknown|4v3u_clean|pdb

> <Gold.Protein.RotatedTorsions>
[  549  517  516  515 ] final  -43.44 input   59.99 | X-H torsion
[ 2542 2515 2516 2517 ] final    1.88 input  113.65 | X-H torsion
[ 2618 2585 2586 2587 ] final  -79.52 input   46.31 | X-H torsion
[ 26064 26031 26030 26028 ] final  178.98 input   59.98 | X-H torsion
[ 27154 27102 27101 27097 ] final -166.26 input   60.00 | X-H torsion
[ 7430 7405 7406 7407 ] final  -81.71 input   81.33 | X-H torsion
[ 7467 7446 7447 7448 ] final  -35.68 input   92.53 | X-H torsion
[ 7519 7507 7508 7509 ] final  -16.27 input   89.47 | X-H torsion
[ 17183 17168 17169 17170 ] final  179.77 input   55.70 | X-H torsion
[ 17231 17210 17211 17212 ] final -131.38 input  101.26 | X-H torsion
[ 18283 18265 18266 18267 ] final -136.32 input   32.88 | X-H torsion
[ 18322 18307 18308 18309 ] final   95.00 input   53.35 | X-H torsion
[ 18397 18345 18346 18347 ] final   21.56 input   36.30 | X-H torsion
[ 18484 18439 18440 18441 ] final -120.59 input   98.15 | X-H torsion
[ 18552 18519 18520 18521 ] final -169.38 input   94.34 | X-H torsion
[ 17291 17273 17274 17275 ] final  141.00 input   50.38 | X-H torsion
[ 18492 18450 18449 18447 ] final  105.60 input   59.99 | X-H torsion
[ 18223 18190 18191 18192 ] final  154.41 input   49.82 | X-H torsion
[ 18287 18270 18269 18266 ] final -170.20 input   60.01 | X-H torsion
[ 10108 10086 10085 10082 ] final  -41.31 input   60.00 | X-H torsion
[ 16975 16942 16941 16939 ] final  177.72 input   60.00 | X-H torsion
[ 11483 11448 11449 11450 ] final  -98.23 input   47.08 | X-H torsion
[ 11550 11515 11516 11517 ] final    1.13 input  121.60 | X-H torsion
[ 11626 11591 11592 11593 ] final   56.75 input   57.19 | X-H torsion
[ 11428 11406 11405 11402 ] final  134.78 input   60.00 | X-H torsion
[ 27156 27104 27103 27101 ] final  136.02 input   60.02 | X-H torsion
[ 10144 10124 10125 10126 ] final   -3.50 input   16.22 | X-H torsion
[ 17343 17319 17320 17321 ] final  116.15 input   65.41 | X-H torsion
[ 27203 2518 2517 2516 ] final   57.30 input    0.00 | X-H torsion
[ 27224 7317 7316 7315 ] final   68.70 input    0.00 | X-H torsion
[ 27227 7408 7407 7406 ] final  170.14 input   -0.00 | X-H torsion
[ 27232 17117 17116 17115 ] final   86.63 input    0.00 | X-H torsion
[ 27236 18193 18192 18191 ] final   79.89 input    0.00 | X-H torsion
[ 27239 18268 18267 18266 ] final  -48.30 input    0.00 | X-H torsion
[ 27242 18310 18309 18308 ] final  -66.53 input   -0.00 | X-H torsion
[ 27245 18348 18347 18346 ] final   69.86 input    0.00 | X-H torsion
[ 27253 17171 17170 17169 ] final  118.74 input   -0.00 | X-H torsion
[ 27255 17213 17212 17211 ] final -174.85 input    0.00 | X-H torsion
[ 27257 17042 17041 17040 ] final  -86.28 input    0.00 | X-H torsion
[ 27267 10127 10126 10125 ] final -118.02 input   -0.00 | X-H torsion
[ 27269 11404 11403 11402 ] final    5.03 input    0.00 | X-H torsion
[ 27275 11594 11593 11592 ] final  -93.41 input   -0.00 | X-H torsion
[ 27284 18675 18674 18673 ] final   25.54 input    0.00 | X-H torsion

> <Gold.Protein.ActiveResidues>
 LYS309  TRP311  MET341  HIS342  TRP414  ALA417  ARG419  CYS420  VAL421  GLY422 
 ARG423  SER462  ALA463  SER482  GLN483  LEU484  ILE485  ARG486  ALA502  TRP566 
 TYR567  LEU569  PRO570  ALA571  VAL572  SER573  ASN574  MET575  PHE589  SER590 
 GLY591  TRP592  TYR593  MET594  GLU597  ILE598  ARG601  ASP602  ASP605  ARG608 
 TRP683  HIS697  GLU699  TYR711  HEM750  H4B760 

> <Gold.Protein.RotatedAtoms>
  189.9746   23.8688   42.0153 H   0  0  0  0  0  0  0  0  0  0  0  0  # atno 549  bound_to 517 
  189.0888   23.4277   43.3447 H   0  0  0  0  0  0  0  0  0  0  0  0  # atno 550  bound_to 517 
  188.5071   24.5802   42.3060 H   0  0  0  0  0  0  0  0  0  0  0  0  # atno 551  bound_to 517 
  197.9857   19.7723   45.4381 H   0  0  0  0  0  0  0  0  0  0  0  0  # atno 2542 bound_to 2515
  197.6422   18.1122   44.3223 H   0  0  0  0  0  0  0  0  0  0  0  0  # atno 2618 bound_to 2585
  196.9230    7.1624   51.0229 H   0  0  0  0  0  0  0  0  0  0  0  0  # atno 7430 bound_to 7405
  195.7146    4.2463   53.0021 H   0  0  0  0  0  0  0  0  0  0  0  0  # atno 7467 bound_to 7446
  195.8357    2.6002   54.1753 H   0  0  0  0  0  0  0  0  0  0  0  0  # atno 7519 bound_to 7507
  189.0451   -3.4709   50.8694 H   0  0  0  0  0  0  0  0  0  0  0  0  # atno 10108 bound_to 10086
  187.9380   -3.9137   47.1545 H   0  0  0  0  0  0  0  0  0  0  0  0  # atno 10144 bound_to 10124
  182.7855   12.0416   43.8201 H   0  0  0  0  0  0  0  0  0  0  0  0  # atno 11428 bound_to 11406
  182.9618    8.5166   42.1252 H   0  0  0  0  0  0  0  0  0  0  0  0  # atno 11483 bound_to 11448
  180.9081    5.8735   44.1032 H   0  0  0  0  0  0  0  0  0  0  0  0  # atno 11550 bound_to 11515
  179.7110    5.0364   45.4522 H   0  0  0  0  0  0  0  0  0  0  0  0  # atno 11626 bound_to 11591
  181.1197    8.2272   49.7411 H   0  0  0  0  0  0  0  0  0  0  0  0  # atno 16975 bound_to 16942
  183.0632    2.8246   48.3326 H   0  0  0  0  0  0  0  0  0  0  0  0  # atno 17183 bound_to 17168
  185.0346    4.5429   45.9801 H   0  0  0  0  0  0  0  0  0  0  0  0  # atno 17231 bound_to 17210
  184.9991    5.5163   42.8109 H   0  0  0  0  0  0  0  0  0  0  0  0  # atno 17291 bound_to 17273
  186.1280    7.4035   40.8022 H   0  0  0  0  0  0  0  0  0  0  0  0  # atno 17343 bound_to 17319
  187.7241    0.9428   41.9270 H   0  0  0  0  0  0  0  0  0  0  0  0  # atno 18223 bound_to 18190
  187.0942    0.1809   45.4521 H   0  0  0  0  0  0  0  0  0  0  0  0  # atno 18283 bound_to 18265
  183.6757   -2.1511   47.0583 H   0  0  0  0  0  0  0  0  0  0  0  0  # atno 18287 bound_to 18270
  187.3094    0.5467   49.5463 H   0  0  0  0  0  0  0  0  0  0  0  0  # atno 18322 bound_to 18307
  187.7049    0.0648   53.1324 H   0  0  0  0  0  0  0  0  0  0  0  0  # atno 18397 bound_to 18345
  185.5967    1.7928   54.5071 H   0  0  0  0  0  0  0  0  0  0  0  0  # atno 18484 bound_to 18439
  182.0225    6.7730   51.2585 H   0  0  0  0  0  0  0  0  0  0  0  0  # atno 18492 bound_to 18450
  187.6660    3.5889   56.8632 H   0  0  0  0  0  0  0  0  0  0  0  0  # atno 18552 bound_to 18519
  194.9667   12.9445   45.4464 H   0  0  0  0  0  0  0  0  0  0  0  0  # atno 26064 bound_to 26031
  192.8467   20.7710   51.5197 H   0  0  0  0  0  0  0  0  0  0  0  0  # atno 27154 bound_to 27102
  197.0790   20.1307   50.2439 H   0  0  0  0  0  0  0  0  0  0  0  0  # atno 27156 bound_to 27104
  197.1851   19.9747   46.9763 LP  0  0  0  0  0  0  0  0  0  0  0  0  # atno 27202 bound_to 2515
  196.0872   15.8240   44.7017 LP  0  0  0  0  0  0  0  0  0  0  0  0  # atno 27203 bound_to 2518
  197.7292   15.9126   44.1576 LP  0  0  0  0  0  0  0  0  0  0  0  0  # atno 27204 bound_to 2518
  196.3625   19.0561   43.6012 LP  0  0  0  0  0  0  0  0  0  0  0  0  # atno 27205 bound_to 2585
  193.9589   11.6675   45.4750 LP  0  0  0  0  0  0  0  0  0  0  0  0  # atno 27209 bound_to 26031
  193.3578   13.1858   45.4690 LP  0  0  0  0  0  0  0  0  0  0  0  0  # atno 27210 bound_to 26031
  193.3869   20.1145   52.9069 LP  0  0  0  0  0  0  0  0  0  0  0  0  # atno 27213 bound_to 27102
  192.3045   19.3098   51.9864 LP  0  0  0  0  0  0  0  0  0  0  0  0  # atno 27214 bound_to 27102
  195.0798    8.5175   51.0977 LP  0  0  0  0  0  0  0  0  0  0  0  0  # atno 27224 bound_to 7317
  195.8335    7.9235   52.5396 LP  0  0  0  0  0  0  0  0  0  0  0  0  # atno 27225 bound_to 7317
  197.4269    5.8514   49.9881 LP  0  0  0  0  0  0  0  0  0  0  0  0  # atno 27226 bound_to 7405
  197.9565    3.9332   53.6084 LP  0  0  0  0  0  0  0  0  0  0  0  0  # atno 27227 bound_to 7408
  198.0047    3.9226   51.8771 LP  0  0  0  0  0  0  0  0  0  0  0  0  # atno 27228 bound_to 7408
  195.3519    5.8432   53.6198 LP  0  0  0  0  0  0  0  0  0  0  0  0  # atno 27229 bound_to 7446
  194.2576    3.1878   54.6374 LP  0  0  0  0  0  0  0  0  0  0  0  0  # atno 27230 bound_to 7507
  184.8393    1.4156   48.9552 LP  0  0  0  0  0  0  0  0  0  0  0  0  # atno 27232 bound_to 17117
  185.8186    2.8425   48.8862 LP  0  0  0  0  0  0  0  0  0  0  0  0  # atno 27233 bound_to 17117
  183.3172    4.4538   47.7628 LP  0  0  0  0  0  0  0  0  0  0  0  0  # atno 27234 bound_to 17168
  185.9798    3.2705   45.2335 LP  0  0  0  0  0  0  0  0  0  0  0  0  # atno 27235 bound_to 17210
  185.5808    1.6880   44.9176 LP  0  0  0  0  0  0  0  0  0  0  0  0  # atno 27236 bound_to 18193
  186.9818    2.1757   45.8116 LP  0  0  0  0  0  0  0  0  0  0  0  0  # atno 27237 bound_to 18193
  187.1298   -1.5156   45.8642 LP  0  0  0  0  0  0  0  0  0  0  0  0  # atno 27238 bound_to 18265
  186.9938   -2.8485   47.8761 LP  0  0  0  0  0  0  0  0  0  0  0  0  # atno 27239 bound_to 18268
  188.4390   -2.3321   48.6789 LP  0  0  0  0  0  0  0  0  0  0  0  0  # atno 27240 bound_to 18268
  186.4575   -0.9027   49.0643 LP  0  0  0  0  0  0  0  0  0  0  0  0  # atno 27241 bound_to 18307
  184.7114   -0.9395   51.0354 LP  0  0  0  0  0  0  0  0  0  0  0  0  # atno 27242 bound_to 18310
  184.9235   -2.1197   52.2853 LP  0  0  0  0  0  0  0  0  0  0  0  0  # atno 27243 bound_to 18310
  186.5225   -0.9620   52.3545 LP  0  0  0  0  0  0  0  0  0  0  0  0  # atno 27244 bound_to 18345
  187.5913    2.2304   53.5925 LP  0  0  0  0  0  0  0  0  0  0  0  0  # atno 27245 bound_to 18348
  188.0005    1.9134   55.2454 LP  0  0  0  0  0  0  0  0  0  0  0  0  # atno 27246 bound_to 18348
  184.8683    1.3032   56.0200 LP  0  0  0  0  0  0  0  0  0  0  0  0  # atno 27247 bound_to 18439
  186.4932    4.8815   56.7535 LP  0  0  0  0  0  0  0  0  0  0  0  0  # atno 27248 bound_to 18519
  183.4942    5.7303   45.0691 LP  0  0  0  0  0  0  0  0  0  0  0  0  # atno 27253 bound_to 17171
  182.8977    4.3133   44.2714 LP  0  0  0  0  0  0  0  0  0  0  0  0  # atno 27254 bound_to 17171
  186.7258    3.4145   41.6286 LP  0  0  0  0  0  0  0  0  0  0  0  0  # atno 27255 bound_to 17213
  187.0531    3.0491   43.2897 LP  0  0  0  0  0  0  0  0  0  0  0  0  # atno 27256 bound_to 17213
  180.5283    2.8062   48.4548 LP  0  0  0  0  0  0  0  0  0  0  0  0  # atno 27257 bound_to 17042
  180.0600    3.8635   49.7443 LP  0  0  0  0  0  0  0  0  0  0  0  0  # atno 27258 bound_to 17042
  186.5750    5.9936   42.2322 LP  0  0  0  0  0  0  0  0  0  0  0  0  # atno 27259 bound_to 17273
  182.6042    8.0832   52.0286 LP  0  0  0  0  0  0  0  0  0  0  0  0  # atno 27260 bound_to 18450
  181.0963    7.5454   52.3511 LP  0  0  0  0  0  0  0  0  0  0  0  0  # atno 27261 bound_to 18450
  186.2174    1.1876   42.7813 LP  0  0  0  0  0  0  0  0  0  0  0  0  # atno 27262 bound_to 18190
  184.9453   -2.4691   48.0246 LP  0  0  0  0  0  0  0  0  0  0  0  0  # atno 27263 bound_to 18270
  185.1671   -2.2689   46.4192 LP  0  0  0  0  0  0  0  0  0  0  0  0  # atno 27264 bound_to 18270
  190.5840   -3.9913   50.9670 LP  0  0  0  0  0  0  0  0  0  0  0  0  # atno 27265 bound_to 10086
  189.3901   -4.8206   51.7109 LP  0  0  0  0  0  0  0  0  0  0  0  0  # atno 27266 bound_to 10086
  186.8506   -2.5897   44.4346 LP  0  0  0  0  0  0  0  0  0  0  0  0  # atno 27267 bound_to 10127
  188.1051   -2.6903   45.6246 LP  0  0  0  0  0  0  0  0  0  0  0  0  # atno 27268 bound_to 10127
  185.4122    8.5690   42.1909 LP  0  0  0  0  0  0  0  0  0  0  0  0  # atno 27269 bound_to 11404
  184.5567    7.4156   43.1594 LP  0  0  0  0  0  0  0  0  0  0  0  0  # atno 27270 bound_to 11404
  180.2656    9.3913   50.4911 LP  0  0  0  0  0  0  0  0  0  0  0  0  # atno 27271 bound_to 16942
  179.9754    9.0438   48.9221 LP  0  0  0  0  0  0  0  0  0  0  0  0  # atno 27272 bound_to 16942
  181.8185    9.2959   43.1916 LP  0  0  0  0  0  0  0  0  0  0  0  0  # atno 27273 bound_to 11448
  181.9202    5.0404   42.9465 LP  0  0  0  0  0  0  0  0  0  0  0  0  # atno 27274 bound_to 11515
  178.5033    6.9840   48.2759 LP  0  0  0  0  0  0  0  0  0  0  0  0  # atno 27275 bound_to 11594
  179.6413    7.2873   47.0058 LP  0  0  0  0  0  0  0  0  0  0  0  0  # atno 27276 bound_to 11594
  178.6473    4.7962   44.0865 LP  0  0  0  0  0  0  0  0  0  0  0  0  # atno 27277 bound_to 11591
  181.9128   10.9000   43.0569 LP  0  0  0  0  0  0  0  0  0  0  0  0  # atno 27282 bound_to 11406
  181.9428   12.4285   42.4831 LP  0  0  0  0  0  0  0  0  0  0  0  0  # atno 27283 bound_to 11406
  184.9615   12.0162   54.8499 LP  0  0  0  0  0  0  0  0  0  0  0  0  # atno 27284 bound_to 18675
  183.6591   12.3905   55.9286 LP  0  0  0  0  0  0  0  0  0  0  0  0  # atno 27285 bound_to 18675

> <Gold.Score>
     Fitness  S(hb_ext) S(vdw_ext)  S(hb_int)    S(int)      intcor
     38.75       5.70      25.04       0.00      -1.39      -0.81

> <Gold.Goldscore.Fitness>
38.7491

> <Gold.Goldscore.Internal.Vdw>
-1.7806

> <Gold.Goldscore.Internal.Torsion>
-0.4160

> <Gold.Goldscore.External.Vdw>
25.0434

> <Gold.Goldscore.Internal.HBond>
0.0000

> <Gold.Goldscore.External.HBond>
5.7037

> <Gold.Goldscore.Internal.Correction>
-0.8073

> <Gold.Goldscore.Hbonds>
donor molecule, donor type, donor heavy atom, donor atom, acceptor molecule, acceptor atom, score
      P1  H 19332 19366       L1    17  0.72
      L1  H    10    23       P1 18450  0.69

> <Gold.Goldscore.Internal.Vdw.Weighted>
-1.7806

> <Gold.Goldscore.Internal.Torsion.Weighted>
-0.4160

> <Gold.Goldscore.External.Vdw.Weighted>
34.4347

> <Gold.Goldscore.Internal.HBond.Weighted>
0.0000

> <Gold.Goldscore.External.HBond.Weighted>
5.7037

> <Gold.Goldscore.Internal.Correction.Weighted>
-0.8073

> <Gold.Rescore>
     Score     S(PLP)   S(hbond)     S(cho)   S(metal)  DE(clash)   DE(tors)     intcor
     24.56     -21.72       1.46       0.00       0.00       1.38       0.07       ----

> <Gold.PLP.Fitness>
24.5631

> <Gold.PLP.PLP>
-21.7190

> <Gold.PLP.part.hbond>
-4.1421

> <Gold.PLP.part.metal>
0.0000

> <Gold.PLP.part.buried>
2.0486

> <Gold.PLP.part.nonpolar>
-23.7195

> <Gold.PLP.part.repulsive>
3.3627

> <Gold.PLP.ligand.clash>
1.3779

> <Gold.PLP.ligand.torsion>
0.0728

> <Gold.PLP.Chemscore.Hbond>
1.4559

> <Gold.PLP.Chemscore.CHOScore>
0.0000

> <Gold.PLP.Chemscore.Metal>
0.0000

> <Gold.Chemscore.Hbonds>
donor molecule, donor type, donor heavy atom, donor atom, acceptor molecule, acceptor atom, score
      L1  H    10    23       P1 18450  0.42
      P1  H 19332 19366       L1    17  0.68

> <Gold.PLP.Chemscore.Internal.Correction>
   9.000000E+99

#       Name:                CT1002167954
#       Creating user name   hitesit
#       Creation time:       Sun Apr 16 22:56:36 2023


#       File generated by GOLD software.
#

@<TRIPOS>MOLECULE
CT1002167954|ligand_prepared|mol2|1|dock4
    29    30     1
SMALL
NO_CHARGES


@<TRIPOS>ATOM
      1 C1         186.0827  10.9440  50.8181 C.3            1 RES1               0.0000
      2 C2         186.7827  10.3738  49.5677 C.ar           1 RES1               0.0000
      3 C3         185.3756  12.2194  50.3691 C.2            1 RES1               0.0000
      4 C4         185.1411   9.8526  51.3149 C.2            1 RES1               0.0000
      5 C5         187.0521  11.2991  51.9695 C.3            1 RES1               0.0000
      6 C6         186.4147  10.7979  48.2943 C.ar           1 RES1               0.0000
      7 C7         187.7980   9.4267  49.6715 C.ar           1 RES1               0.0000
      8 N8         184.0179  12.1794  50.2462 N.am           1 RES1               0.0000
      9 O9         186.0032  13.2333  50.0891 O.2            1 RES1               0.0000
     10 N10        183.7933  10.0942  51.2618 N.am           1 RES1               0.0000
     11 O11        185.5535   8.7790  51.7364 O.2            1 RES1               0.0000
     12 C12        186.3770  11.9735  53.1534 C.3            1 RES1               0.0000
     13 C13        187.0412  10.2958  47.1657 C.ar           1 RES1               0.0000
     14 C14        188.4230   8.9257  48.5415 C.ar           1 RES1               0.0000
     15 C15        183.1880  11.1960  50.7214 C.2            1 RES1               0.0000
     16 C16        188.0459   9.3598  47.2885 C.ar           1 RES1               0.0000
     17 O17        181.9678  11.3168  50.6608 O.2            1 RES1               0.0000
     18 H18        187.5391  10.3798  52.3173 H              1 RES1               0.0000
     19 H19        187.8322  11.9656  51.5814 H              1 RES1               0.0000
     20 H20        185.6245  11.5321  48.1778 H              1 RES1               0.0000
     21 H21        188.1104   9.0699  50.6470 H              1 RES1               0.0000
     22 H22        183.5792  12.9520  49.7554 H              1 RES1               0.0000
     23 H23        183.1848   9.3874  51.6623 H              1 RES1               0.0000
     24 H24        187.1017  12.2010  53.9324 H              1 RES1               0.0000
     25 H25        185.9035  12.9044  52.8486 H              1 RES1               0.0000
     26 H26        185.6121  11.3280  53.5802 H              1 RES1               0.0000
     27 H27        186.7397  10.6396  46.1817 H              1 RES1               0.0000
     28 H28        189.2128   8.1887  48.6429 H              1 RES1               0.0000
     29 H29        188.5367   8.9668  46.4042 H              1 RES1               0.0000
@<TRIPOS>BOND
    1    1    2 1     
    2    1    3 1     
    3    1    4 1     
    4    1    5 1     
    5    2    6 ar    
    6    2    7 ar    
    7    3    8 1     
    8    3    9 2     
    9    4   10 1     
   10    4   11 2     
   11    5   12 1     
   12    5   18 1     
   13    5   19 1     
   14    6   13 ar    
   15    6   20 1     
   16    7   14 ar    
   17    7   21 1     
   18    8   15 1     
   19    8   22 1     
   20   10   15 1     
   21   10   23 1     
   22   12   24 1     
   23   12   25 1     
   24   12   26 1     
   25   13   16 ar    
   26   13   27 1     
   27   14   16 ar    
   28   14   28 1     
   29   15   17 2     
   30   16   29 1     
@<TRIPOS>SUBSTRUCTURE
      1 RES1           1
@<TRIPOS>SET
DONOR_HYDROGENS      STATIC     ATOMS    <user>   **** ""
2 22 23
ATOM$RED        STATIC     ATOMS    COLORGROUP SYSTEM
2 22 23
@<TRIPOS>COMMENT
> <Gold.Version>
2022.3.0

> <Gold.Id.Protein>
unknown|4v3u_clean|pdb

> <Gold.Protein.RotatedTorsions>
[  549  517  516  515 ] final  152.45 input   59.99 | X-H torsion
[ 2542 2515 2516 2517 ] final -176.44 input  113.65 | X-H torsion
[ 2618 2585 2586 2587 ] final -156.20 input   46.31 | X-H torsion
[ 26064 26031 26030 26028 ] final  -93.45 input   59.98 | X-H torsion
[ 27154 27102 27101 27097 ] final  121.87 input   60.00 | X-H torsion
[ 7430 7405 7406 7407 ] final  -46.47 input   81.33 | X-H torsion
[ 7467 7446 7447 7448 ] final  109.75 input   92.53 | X-H torsion
[ 7519 7507 7508 7509 ] final  179.87 input   89.47 | X-H torsion
[ 17183 17168 17169 17170 ] final   39.61 input   55.70 | X-H torsion
[ 17231 17210 17211 17212 ] final  161.22 input  101.26 | X-H torsion
[ 18283 18265 18266 18267 ] final  112.98 input   32.88 | X-H torsion
[ 18322 18307 18308 18309 ] final -109.71 input   53.35 | X-H torsion
[ 18397 18345 18346 18347 ] final -101.61 input   36.30 | X-H torsion
[ 18484 18439 18440 18441 ] final -159.12 input   98.15 | X-H torsion
[ 18552 18519 18520 18521 ] final -161.63 input   94.34 | X-H torsion
[ 17291 17273 17274 17275 ] final  102.23 input   50.38 | X-H torsion
[ 18492 18450 18449 18447 ] final -119.42 input   59.99 | X-H torsion
[ 18223 18190 18191 18192 ] final  103.18 input   49.82 | X-H torsion
[ 18287 18270 18269 18266 ] final  -84.73 input   60.01 | X-H torsion
[ 10108 10086 10085 10082 ] final  168.46 input   60.00 | X-H torsion
[ 16975 16942 16941 16939 ] final   66.51 input   60.00 | X-H torsion
[ 11483 11448 11449 11450 ] final -137.15 input   47.08 | X-H torsion
[ 11550 11515 11516 11517 ] final  163.71 input  121.60 | X-H torsion
[ 11626 11591 11592 11593 ] final  -32.91 input   57.19 | X-H torsion
[ 11428 11406 11405 11402 ] final -106.09 input   60.00 | X-H torsion
[ 27156 27104 27103 27101 ] final  170.91 input   60.02 | X-H torsion
[ 10144 10124 10125 10126 ] final -155.78 input   16.22 | X-H torsion
[ 17343 17319 17320 17321 ] final   30.92 input   65.41 | X-H torsion
[ 27203 2518 2517 2516 ] final  -59.44 input    0.00 | X-H torsion
[ 27224 7317 7316 7315 ] final -151.34 input    0.00 | X-H torsion
[ 27227 7408 7407 7406 ] final   -9.31 input   -0.00 | X-H torsion
[ 27232 17117 17116 17115 ] final   59.42 input    0.00 | X-H torsion
[ 27236 18193 18192 18191 ] final  -90.83 input    0.00 | X-H torsion
[ 27239 18268 18267 18266 ] final  -85.40 input    0.00 | X-H torsion
[ 27242 18310 18309 18308 ] final   31.01 input   -0.00 | X-H torsion
[ 27245 18348 18347 18346 ] final   70.34 input    0.00 | X-H torsion
[ 27253 17171 17170 17169 ] final    4.31 input   -0.00 | X-H torsion
[ 27255 17213 17212 17211 ] final   52.00 input    0.00 | X-H torsion
[ 27257 17042 17041 17040 ] final -163.47 input    0.00 | X-H torsion
[ 27267 10127 10126 10125 ] final   13.29 input   -0.00 | X-H torsion
[ 27269 11404 11403 11402 ] final   11.28 input    0.00 | X-H torsion
[ 27275 11594 11593 11592 ] final   60.66 input   -0.00 | X-H torsion
[ 27284 18675 18674 18673 ] final   79.28 input    0.00 | X-H torsion

> <Gold.Protein.ActiveResidues>
 LYS309  TRP311  MET341  HIS342  TRP414  ALA417  ARG419  CYS420  VAL421  GLY422 
 ARG423  SER462  ALA463  SER482  GLN483  LEU484  ILE485  ARG486  ALA502  TRP566 
 TYR567  LEU569  PRO570  ALA571  VAL572  SER573  ASN574  MET575  PHE589  SER590 
 GLY591  TRP592  TYR593  MET594  GLU597  ILE598  ARG601  ASP602  ASP605  ARG608 
 TRP683  HIS697  GLU699  TYR711  HEM750  H4B760 

> <Gold.Protein.RotatedAtoms>
  188.3437   24.2282   42.9105 H   0  0  0  0  0  0  0  0  0  0  0  0  # atno 549  bound_to 517 
  189.5196   24.3570   41.7498 H   0  0  0  0  0  0  0  0  0  0  0  0  # atno 550  bound_to 517 
  189.7070   23.2920   43.0052 H   0  0  0  0  0  0  0  0  0  0  0  0  # atno 551  bound_to 517 
  197.1979   19.9644   47.0015 H   0  0  0  0  0  0  0  0  0  0  0  0  # atno 2542 bound_to 2515
  196.5931   17.8377   44.1824 H   0  0  0  0  0  0  0  0  0  0  0  0  # atno 2618 bound_to 2585
  197.3246    6.9117   51.2647 H   0  0  0  0  0  0  0  0  0  0  0  0  # atno 7430 bound_to 7405
  194.9107    5.5748   53.6888 H   0  0  0  0  0  0  0  0  0  0  0  0  # atno 7467 bound_to 7446
  194.3470    3.1936   54.8661 H   0  0  0  0  0  0  0  0  0  0  0  0  # atno 7519 bound_to 7507
  190.5551   -4.3978   51.2390 H   0  0  0  0  0  0  0  0  0  0  0  0  # atno 10108 bound_to 10086
  187.8989   -5.5079   47.7644 H   0  0  0  0  0  0  0  0  0  0  0  0  # atno 10144 bound_to 10124
  181.9539   12.4333   42.4934 H   0  0  0  0  0  0  0  0  0  0  0  0  # atno 11428 bound_to 11406
  183.2507    8.7697   42.5710 H   0  0  0  0  0  0  0  0  0  0  0  0  # atno 11483 bound_to 11448
  181.9700    4.8679   43.1424 H   0  0  0  0  0  0  0  0  0  0  0  0  # atno 11550 bound_to 11515
  179.2990    5.7564   44.5220 H   0  0  0  0  0  0  0  0  0  0  0  0  # atno 11626 bound_to 11591
  180.3686    9.3084   50.5486 H   0  0  0  0  0  0  0  0  0  0  0  0  # atno 16975 bound_to 16942
  182.7774    4.2729   47.5913 H   0  0  0  0  0  0  0  0  0  0  0  0  # atno 17183 bound_to 17168
  185.9457    4.2890   46.2759 H   0  0  0  0  0  0  0  0  0  0  0  0  # atno 17231 bound_to 17210
  184.9784    6.0703   42.6269 H   0  0  0  0  0  0  0  0  0  0  0  0  # atno 17291 bound_to 17273
  187.1885    6.8603   40.7336 H   0  0  0  0  0  0  0  0  0  0  0  0  # atno 17343 bound_to 17319
  187.6999    1.5559   42.3881 H   0  0  0  0  0  0  0  0  0  0  0  0  # atno 18223 bound_to 18190
  186.3638   -1.0711   45.4154 H   0  0  0  0  0  0  0  0  0  0  0  0  # atno 18283 bound_to 18265
  184.6482   -2.1686   46.2417 H   0  0  0  0  0  0  0  0  0  0  0  0  # atno 18287 bound_to 18270
  186.7903   -0.9782   48.9080 H   0  0  0  0  0  0  0  0  0  0  0  0  # atno 18322 bound_to 18307
  186.5672   -0.1728   52.0934 H   0  0  0  0  0  0  0  0  0  0  0  0  # atno 18397 bound_to 18345
  185.0191    1.8832   54.4815 H   0  0  0  0  0  0  0  0  0  0  0  0  # atno 18484 bound_to 18439
  181.2167    7.7350   52.4492 H   0  0  0  0  0  0  0  0  0  0  0  0  # atno 18492 bound_to 18450
  187.5822    3.5291   56.9247 H   0  0  0  0  0  0  0  0  0  0  0  0  # atno 18552 bound_to 18519
  193.7892   13.4842   45.4575 H   0  0  0  0  0  0  0  0  0  0  0  0  # atno 26064 bound_to 26031
  193.4367   20.7238   52.4450 H   0  0  0  0  0  0  0  0  0  0  0  0  # atno 27154 bound_to 27102
  197.3439   20.0377   50.7296 H   0  0  0  0  0  0  0  0  0  0  0  0  # atno 27156 bound_to 27104
  197.9590   19.7860   45.4405 LP  0  0  0  0  0  0  0  0  0  0  0  0  # atno 27202 bound_to 2515
  197.5225   15.8486   45.0397 LP  0  0  0  0  0  0  0  0  0  0  0  0  # atno 27203 bound_to 2518
  196.2939   15.8880   43.8195 LP  0  0  0  0  0  0  0  0  0  0  0  0  # atno 27204 bound_to 2518
  197.3919   19.3254   43.7384 LP  0  0  0  0  0  0  0  0  0  0  0  0  # atno 27205 bound_to 2585
  195.0225   12.4229   45.4533 LP  0  0  0  0  0  0  0  0  0  0  0  0  # atno 27209 bound_to 26031
  193.4802   11.8869   45.4796 LP  0  0  0  0  0  0  0  0  0  0  0  0  # atno 27210 bound_to 26031
  192.7175   19.2767   52.6341 LP  0  0  0  0  0  0  0  0  0  0  0  0  # atno 27213 bound_to 27102
  192.3796   20.1952   51.3269 LP  0  0  0  0  0  0  0  0  0  0  0  0  # atno 27214 bound_to 27102
  195.4506    7.5220   52.3306 LP  0  0  0  0  0  0  0  0  0  0  0  0  # atno 27224 bound_to 7317
  195.4627    8.9190   51.3067 LP  0  0  0  0  0  0  0  0  0  0  0  0  # atno 27225 bound_to 7317
  197.0305    6.0988   49.7494 LP  0  0  0  0  0  0  0  0  0  0  0  0  # atno 27226 bound_to 7405
  198.0086    3.9300   51.8772 LP  0  0  0  0  0  0  0  0  0  0  0  0  # atno 27227 bound_to 7408
  197.9526    3.9258   53.6083 LP  0  0  0  0  0  0  0  0  0  0  0  0  # atno 27228 bound_to 7408
  196.1305    4.5566   52.9547 LP  0  0  0  0  0  0  0  0  0  0  0  0  # atno 27229 bound_to 7446
  195.7186    2.6055   53.9595 LP  0  0  0  0  0  0  0  0  0  0  0  0  # atno 27230 bound_to 7507
  184.8784    1.5240   49.3460 LP  0  0  0  0  0  0  0  0  0  0  0  0  # atno 27232 bound_to 17117
  185.7795    2.7341   48.4953 LP  0  0  0  0  0  0  0  0  0  0  0  0  # atno 27233 bound_to 17117
  183.5989    3.0260   48.4936 LP  0  0  0  0  0  0  0  0  0  0  0  0  # atno 27234 bound_to 17168
  185.1034    3.5147   44.9489 LP  0  0  0  0  0  0  0  0  0  0  0  0  # atno 27235 bound_to 17210
  187.0337    2.2143   45.6873 LP  0  0  0  0  0  0  0  0  0  0  0  0  # atno 27236 bound_to 18193
  185.5289    1.6493   45.0419 LP  0  0  0  0  0  0  0  0  0  0  0  0  # atno 27237 bound_to 18193
  187.8467   -0.2866   45.9002 LP  0  0  0  0  0  0  0  0  0  0  0  0  # atno 27238 bound_to 18265
  186.9458   -2.9614   48.4132 LP  0  0  0  0  0  0  0  0  0  0  0  0  # atno 27239 bound_to 18268
  188.4870   -2.2192   48.1418 LP  0  0  0  0  0  0  0  0  0  0  0  0  # atno 27240 bound_to 18268
  186.9621    0.5795   49.6846 LP  0  0  0  0  0  0  0  0  0  0  0  0  # atno 27241 bound_to 18307
  185.1444   -2.1612   51.1661 LP  0  0  0  0  0  0  0  0  0  0  0  0  # atno 27242 bound_to 18310
  184.4906   -0.8981   52.1545 LP  0  0  0  0  0  0  0  0  0  0  0  0  # atno 27243 bound_to 18310
  187.6293   -0.7308   53.3653 LP  0  0  0  0  0  0  0  0  0  0  0  0  # atno 27244 bound_to 18345
  187.5889    2.2370   53.5944 LP  0  0  0  0  0  0  0  0  0  0  0  0  # atno 27245 bound_to 18348
  188.0029    1.9068   55.2435 LP  0  0  0  0  0  0  0  0  0  0  0  0  # atno 27246 bound_to 18348
  185.4297    1.2154   56.0449 LP  0  0  0  0  0  0  0  0  0  0  0  0  # atno 27247 bound_to 18439
  186.5747    4.9397   56.6937 LP  0  0  0  0  0  0  0  0  0  0  0  0  # atno 27248 bound_to 18519
  182.5759    4.6007   45.1041 LP  0  0  0  0  0  0  0  0  0  0  0  0  # atno 27253 bound_to 17171
  183.8160    5.4429   44.2364 LP  0  0  0  0  0  0  0  0  0  0  0  0  # atno 27254 bound_to 17171
  186.4295    2.8438   43.0820 LP  0  0  0  0  0  0  0  0  0  0  0  0  # atno 27255 bound_to 17213
  187.3494    3.6198   41.8364 LP  0  0  0  0  0  0  0  0  0  0  0  0  # atno 27256 bound_to 17213
  181.0605    3.6565   48.8561 LP  0  0  0  0  0  0  0  0  0  0  0  0  # atno 27257 bound_to 17042
  179.5279    3.0131   49.3430 LP  0  0  0  0  0  0  0  0  0  0  0  0  # atno 27258 bound_to 17042
  186.5953    5.4488   42.4131 LP  0  0  0  0  0  0  0  0  0  0  0  0  # atno 27259 bound_to 17273
  181.7932    6.7134   51.3214 LP  0  0  0  0  0  0  0  0  0  0  0  0  # atno 27260 bound_to 18450
  182.7186    7.9466   51.8596 LP  0  0  0  0  0  0  0  0  0  0  0  0  # atno 27261 bound_to 18450
  186.2409    0.5926   42.3338 LP  0  0  0  0  0  0  0  0  0  0  0  0  # atno 27262 bound_to 18190
  183.7588   -2.2436   47.6018 LP  0  0  0  0  0  0  0  0  0  0  0  0  # atno 27263 bound_to 18270
  185.3738   -2.4768   47.6647 LP  0  0  0  0  0  0  0  0  0  0  0  0  # atno 27264 bound_to 18270
  188.9798   -4.5687   51.6105 LP  0  0  0  0  0  0  0  0  0  0  0  0  # atno 27265 bound_to 10086
  189.4738   -3.3098   50.6953 LP  0  0  0  0  0  0  0  0  0  0  0  0  # atno 27266 bound_to 10086
  187.4526   -2.8421   45.8714 LP  0  0  0  0  0  0  0  0  0  0  0  0  # atno 27267 bound_to 10127
  187.5031   -2.4380   44.1879 LP  0  0  0  0  0  0  0  0  0  0  0  0  # atno 27268 bound_to 10127
  185.4246    8.6186   42.2702 LP  0  0  0  0  0  0  0  0  0  0  0  0  # atno 27269 bound_to 11404
  184.5443    7.3660   43.0801 LP  0  0  0  0  0  0  0  0  0  0  0  0  # atno 27270 bound_to 11404
  179.9052    9.1449   48.9976 LP  0  0  0  0  0  0  0  0  0  0  0  0  # atno 27271 bound_to 16942
  181.0926    8.2008   49.6020 LP  0  0  0  0  0  0  0  0  0  0  0  0  # atno 27272 bound_to 16942
  181.5360    9.0484   42.7556 LP  0  0  0  0  0  0  0  0  0  0  0  0  # atno 27273 bound_to 11448
  180.8847    6.0210   43.8835 LP  0  0  0  0  0  0  0  0  0  0  0  0  # atno 27274 bound_to 11515
  179.6750    6.9044   47.0635 LP  0  0  0  0  0  0  0  0  0  0  0  0  # atno 27275 bound_to 11594
  178.4696    7.3669   48.2182 LP  0  0  0  0  0  0  0  0  0  0  0  0  # atno 27276 bound_to 11594
  179.0498    4.0927   44.9954 LP  0  0  0  0  0  0  0  0  0  0  0  0  # atno 27277 bound_to 11591
  182.7879   12.0305   43.8312 LP  0  0  0  0  0  0  0  0  0  0  0  0  # atno 27282 bound_to 11406
  181.9055   10.9034   43.0453 LP  0  0  0  0  0  0  0  0  0  0  0  0  # atno 27283 bound_to 11406
  184.2666   11.6926   54.6912 LP  0  0  0  0  0  0  0  0  0  0  0  0  # atno 27284 bound_to 18675
  184.3540   12.7141   56.0873 LP  0  0  0  0  0  0  0  0  0  0  0  0  # atno 27285 bound_to 18675

> <Gold.Score>
     Fitness  S(hb_ext) S(vdw_ext)  S(hb_int)    S(int)      intcor
     38.66       6.44      24.46       0.00      -1.42      -0.80

> <Gold.Goldscore.Fitness>
38.6557

> <Gold.Goldscore.Internal.Vdw>
-1.8077

> <Gold.Goldscore.Internal.Torsion>
-0.4098

> <Gold.Goldscore.External.Vdw>
24.4579

> <Gold.Goldscore.Internal.HBond>
0.0000

> <Gold.Goldscore.External.HBond>
6.4433

> <Gold.Goldscore.Internal.Correction>
-0.8003

> <Gold.Goldscore.Hbonds>
donor molecule, donor type, donor heavy atom, donor atom, acceptor molecule, acceptor atom, score
      P1  H 19332 19366       L1    17  0.88
      L1  H    10    23       P1 18450  0.58

> <Gold.Goldscore.Internal.Vdw.Weighted>
-1.8077

> <Gold.Goldscore.Internal.Torsion.Weighted>
-0.4098

> <Gold.Goldscore.External.Vdw.Weighted>
33.6296

> <Gold.Goldscore.Internal.HBond.Weighted>
0.0000

> <Gold.Goldscore.External.HBond.Weighted>
6.4433

> <Gold.Goldscore.Internal.Correction.Weighted>
-0.8003

> <Gold.Rescore>
     Score     S(PLP)   S(hbond)     S(cho)   S(metal)  DE(clash)   DE(tors)     intcor
     24.34     -23.51       0.98       0.00       0.00       2.04       0.04       ----

> <Gold.PLP.Fitness>
24.3355

> <Gold.PLP.PLP>
-23.5093

> <Gold.PLP.part.hbond>
-3.4310

> <Gold.PLP.part.metal>
0.0000

> <Gold.PLP.part.buried>
0.6674

> <Gold.PLP.part.nonpolar>
-22.3648

> <Gold.PLP.part.repulsive>
2.0311

> <Gold.PLP.ligand.clash>
2.0375

> <Gold.PLP.ligand.torsion>
0.0437

> <Gold.PLP.Chemscore.Hbond>
0.9837

> <Gold.PLP.Chemscore.CHOScore>
0.0000

> <Gold.PLP.Chemscore.Metal>
0.0000

> <Gold.Chemscore.Hbonds>
donor molecule, donor type, donor heavy atom, donor atom, acceptor molecule, acceptor atom, score
      L1  H    10    23       P1 18450  0.07
      P1  H 19332 19366       L1    17  1.00

> <Gold.PLP.Chemscore.Internal.Correction>
   9.000000E+99

#       Name:                CT1002167954
#       Creating user name   hitesit
#       Creation time:       Sun Apr 16 22:56:34 2023


#       File generated by GOLD software.
#

@<TRIPOS>MOLECULE
CT1002167954|ligand_prepared|mol2|1|dock1
    29    30     1
SMALL
NO_CHARGES


@<TRIPOS>ATOM
      1 C1         185.9035  10.0322  50.7513 C.3            1 RES1               0.0000
      2 C2         185.9078   8.6640  50.0394 C.ar           1 RES1               0.0000
      3 C3         185.6993  11.0812  49.6622 C.2            1 RES1               0.0000
      4 C4         184.7784   9.9749  51.7787 C.2            1 RES1               0.0000
      5 C5         187.2184  10.3511  51.5001 C.3            1 RES1               0.0000
      6 C6         187.1054   8.0719  49.6496 C.ar           1 RES1               0.0000
      7 C7         184.7247   7.9819  49.7685 C.ar           1 RES1               0.0000
      8 N8         184.4777  11.6828  49.5855 N.am           1 RES1               0.0000
      9 O9         186.5838  11.3480  48.8581 O.2            1 RES1               0.0000
     10 N10        183.7033  10.8058  51.6007 N.am           1 RES1               0.0000
     11 O11        184.8054   9.2059  52.7317 O.2            1 RES1               0.0000
     12 C12        187.1122  11.5347  52.4489 C.3            1 RES1               0.0000
     13 C13        187.1199   6.8411  49.0146 C.ar           1 RES1               0.0000
     14 C14        184.7414   6.7512  49.1332 C.ar           1 RES1               0.0000
     15 C15        183.4878  11.6352  50.5339 C.2            1 RES1               0.0000
     16 C16        185.9382   6.1798  48.7564 C.ar           1 RES1               0.0000
     17 O17        182.4700  12.3116  50.4176 O.2            1 RES1               0.0000
     18 H18        187.5225   9.4660  52.0724 H              1 RES1               0.0000
     19 H19        188.0032  10.5593  50.7625 H              1 RES1               0.0000
     20 H20        188.0452   8.5786  49.8422 H              1 RES1               0.0000
     21 H21        183.7713   8.4128  50.0549 H              1 RES1               0.0000
     22 H22        184.2821  12.2174  48.7451 H              1 RES1               0.0000
     23 H23        182.9985  10.8062  52.3311 H              1 RES1               0.0000
     24 H24        188.0618  11.7152  52.9481 H              1 RES1               0.0000
     25 H25        186.8359  12.4381  51.9092 H              1 RES1               0.0000
     26 H26        186.3579  11.3513  53.2113 H              1 RES1               0.0000
     27 H27        188.0643   6.3963  48.7188 H              1 RES1               0.0000
     28 H28        183.8089   6.2346  48.9314 H              1 RES1               0.0000
     29 H29        185.9498   5.2154  48.2593 H              1 RES1               0.0000
@<TRIPOS>BOND
    1    1    2 1     
    2    1    3 1     
    3    1    4 1     
    4    1    5 1     
    5    2    6 ar    
    6    2    7 ar    
    7    3    8 1     
    8    3    9 2     
    9    4   10 1     
   10    4   11 2     
   11    5   12 1     
   12    5   18 1     
   13    5   19 1     
   14    6   13 ar    
   15    6   20 1     
   16    7   14 ar    
   17    7   21 1     
   18    8   15 1     
   19    8   22 1     
   20   10   15 1     
   21   10   23 1     
   22   12   24 1     
   23   12   25 1     
   24   12   26 1     
   25   13   16 ar    
   26   13   27 1     
   27   14   16 ar    
   28   14   28 1     
   29   15   17 2     
   30   16   29 1     
@<TRIPOS>SUBSTRUCTURE
      1 RES1           1
@<TRIPOS>SET
DONOR_HYDROGENS      STATIC     ATOMS    <user>   **** ""
2 22 23
ATOM$RED        STATIC     ATOMS    COLORGROUP SYSTEM
2 22 23
@<TRIPOS>COMMENT
> <Gold.Version>
2022.3.0

> <Gold.Id.Protein>
unknown|4v3u_clean|pdb

> <Gold.Protein.RotatedTorsions>
[  549  517  516  515 ] final  141.53 input   59.99 | X-H torsion
[ 2542 2515 2516 2517 ] final   95.21 input  113.65 | X-H torsion
[ 2618 2585 2586 2587 ] final  -96.50 input   46.31 | X-H torsion
[ 26064 26031 26030 26028 ] final  -67.21 input   59.98 | X-H torsion
[ 27154 27102 27101 27097 ] final   28.33 input   60.00 | X-H torsion
[ 7430 7405 7406 7407 ] final  166.19 input   81.33 | X-H torsion
[ 7467 7446 7447 7448 ] final  115.56 input   92.53 | X-H torsion
[ 7519 7507 7508 7509 ] final  179.29 input   89.47 | X-H torsion
[ 17183 17168 17169 17170 ] final    1.23 input   55.70 | X-H torsion
[ 17231 17210 17211 17212 ] final  142.49 input  101.26 | X-H torsion
[ 18283 18265 18266 18267 ] final -166.32 input   32.88 | X-H torsion
[ 18322 18307 18308 18309 ] final -139.57 input   53.35 | X-H torsion
[ 18397 18345 18346 18347 ] final   12.23 input   36.30 | X-H torsion
[ 18484 18439 18440 18441 ] final -132.12 input   98.15 | X-H torsion
[ 18552 18519 18520 18521 ] final -150.65 input   94.34 | X-H torsion
[ 17291 17273 17274 17275 ] final  153.39 input   50.38 | X-H torsion
[ 18492 18450 18449 18447 ] final  -62.74 input   59.99 | X-H torsion
[ 18223 18190 18191 18192 ] final -176.35 input   49.82 | X-H torsion
[ 18287 18270 18269 18266 ] final -109.07 input   60.01 | X-H torsion
[ 10108 10086 10085 10082 ] final -111.92 input   60.00 | X-H torsion
[ 16975 16942 16941 16939 ] final -142.32 input   60.00 | X-H torsion
[ 11483 11448 11449 11450 ] final   73.48 input   47.08 | X-H torsion
[ 11550 11515 11516 11517 ] final  -71.27 input  121.60 | X-H torsion
[ 11626 11591 11592 11593 ] final  124.08 input   57.19 | X-H torsion
[ 11428 11406 11405 11402 ] final  143.19 input   60.00 | X-H torsion
[ 27156 27104 27103 27101 ] final -109.15 input   60.02 | X-H torsion
[ 10144 10124 10125 10126 ] final  -11.08 input   16.22 | X-H torsion
[ 17343 17319 17320 17321 ] final   67.79 input   65.41 | X-H torsion
[ 27203 2518 2517 2516 ] final  149.61 input    0.00 | X-H torsion
[ 27224 7317 7316 7315 ] final -132.27 input    0.00 | X-H torsion
[ 27227 7408 7407 7406 ] final    7.08 input   -0.00 | X-H torsion
[ 27232 17117 17116 17115 ] final  159.20 input    0.00 | X-H torsion
[ 27236 18193 18192 18191 ] final  124.36 input    0.00 | X-H torsion
[ 27239 18268 18267 18266 ] final -169.98 input    0.00 | X-H torsion
[ 27242 18310 18309 18308 ] final   60.88 input   -0.00 | X-H torsion
[ 27245 18348 18347 18346 ] final  -60.56 input    0.00 | X-H torsion
[ 27253 17171 17170 17169 ] final  157.39 input   -0.00 | X-H torsion
[ 27255 17213 17212 17211 ] final  -50.94 input    0.00 | X-H torsion
[ 27257 17042 17041 17040 ] final   57.96 input    0.00 | X-H torsion
[ 27267 10127 10126 10125 ] final  135.16 input   -0.00 | X-H torsion
[ 27269 11404 11403 11402 ] final  164.81 input    0.00 | X-H torsion
[ 27275 11594 11593 11592 ] final  -44.88 input   -0.00 | X-H torsion
[ 27284 18675 18674 18673 ] final  -30.57 input    0.00 | X-H torsion

> <Gold.Protein.ActiveResidues>
 LYS309  TRP311  MET341  HIS342  TRP414  ALA417  ARG419  CYS420  VAL421  GLY422 
 ARG423  SER462  ALA463  SER482  GLN483  LEU484  ILE485  ARG486  ALA502  TRP566 
 TYR567  LEU569  PRO570  ALA571  VAL572  SER573  ASN574  MET575  PHE589  SER590 
 GLY591  TRP592  TYR593  MET594  GLU597  ILE598  ARG601  ASP602  ASP605  ARG608 
 TRP683  HIS697  GLU699  TYR711  HEM750  H4B760 

> <Gold.Protein.RotatedAtoms>
  188.3796   24.1068   43.0414 H   0  0  0  0  0  0  0  0  0  0  0  0  # atno 549  bound_to 517 
  189.3644   24.4523   41.7540 H   0  0  0  0  0  0  0  0  0  0  0  0  # atno 550  bound_to 517 
  189.8263   23.3181   42.8702 H   0  0  0  0  0  0  0  0  0  0  0  0  # atno 551  bound_to 517 
  196.9452   20.3794   45.8744 H   0  0  0  0  0  0  0  0  0  0  0  0  # atno 2542 bound_to 2515
  197.4484   17.9405   44.3485 H   0  0  0  0  0  0  0  0  0  0  0  0  # atno 2618 bound_to 2585
  196.7076    6.4681   49.7608 H   0  0  0  0  0  0  0  0  0  0  0  0  # atno 7430 bound_to 7405
  194.9729    5.6400   53.6909 H   0  0  0  0  0  0  0  0  0  0  0  0  # atno 7467 bound_to 7446
  194.3423    3.1941   54.8586 H   0  0  0  0  0  0  0  0  0  0  0  0  # atno 7519 bound_to 7507
  190.1093   -3.4382   50.6749 H   0  0  0  0  0  0  0  0  0  0  0  0  # atno 10108 bound_to 10086
  188.0473   -3.9533   47.1567 H   0  0  0  0  0  0  0  0  0  0  0  0  # atno 10144 bound_to 10124
  182.7819   12.1672   43.7645 H   0  0  0  0  0  0  0  0  0  0  0  0  # atno 11428 bound_to 11406
  181.7155    9.2580   43.1259 H   0  0  0  0  0  0  0  0  0  0  0  0  # atno 11483 bound_to 11448
  181.0537    6.1428   43.1036 H   0  0  0  0  0  0  0  0  0  0  0  0  # atno 11550 bound_to 11515
  179.2642    4.1869   45.2544 H   0  0  0  0  0  0  0  0  0  0  0  0  # atno 11626 bound_to 11591
  180.8575    8.2528   49.1584 H   0  0  0  0  0  0  0  0  0  0  0  0  # atno 16975 bound_to 16942
  183.2958    4.4677   47.7558 H   0  0  0  0  0  0  0  0  0  0  0  0  # atno 17183 bound_to 17168
  186.1495    4.0980   46.1956 H   0  0  0  0  0  0  0  0  0  0  0  0  # atno 17231 bound_to 17210
  185.0847    5.3503   42.8453 H   0  0  0  0  0  0  0  0  0  0  0  0  # atno 17291 bound_to 17273
  186.8162    7.2262   40.9293 H   0  0  0  0  0  0  0  0  0  0  0  0  # atno 17343 bound_to 17319
  187.4637    0.6019   41.7971 H   0  0  0  0  0  0  0  0  0  0  0  0  # atno 18223 bound_to 18190
  186.6929    0.0166   45.3105 H   0  0  0  0  0  0  0  0  0  0  0  0  # atno 18283 bound_to 18265
  184.2620   -2.1246   46.3091 H   0  0  0  0  0  0  0  0  0  0  0  0  # atno 18287 bound_to 18270
  187.2173   -0.8460   48.8134 H   0  0  0  0  0  0  0  0  0  0  0  0  # atno 18322 bound_to 18307
  187.6575    0.1673   53.0429 H   0  0  0  0  0  0  0  0  0  0  0  0  # atno 18397 bound_to 18345
  185.4297    1.8338   54.4607 H   0  0  0  0  0  0  0  0  0  0  0  0  # atno 18484 bound_to 18439
  181.9719    8.2038   52.4503 H   0  0  0  0  0  0  0  0  0  0  0  0  # atno 18492 bound_to 18450
  187.4481    3.4671   57.0079 H   0  0  0  0  0  0  0  0  0  0  0  0  # atno 18552 bound_to 18519
  193.4301   13.2573   45.4646 H   0  0  0  0  0  0  0  0  0  0  0  0  # atno 26064 bound_to 26031
  193.0042   19.5001   52.8639 H   0  0  0  0  0  0  0  0  0  0  0  0  # atno 27154 bound_to 27102
  197.1765   19.0390   51.3776 H   0  0  0  0  0  0  0  0  0  0  0  0  # atno 27156 bound_to 27104
  198.2072   19.3783   46.5477 LP  0  0  0  0  0  0  0  0  0  0  0  0  # atno 27202 bound_to 2515
  196.6673   15.9144   43.5990 LP  0  0  0  0  0  0  0  0  0  0  0  0  # atno 27203 bound_to 2518
  197.1490   15.8222   45.2602 LP  0  0  0  0  0  0  0  0  0  0  0  0  # atno 27204 bound_to 2518
  196.5527   19.2246   43.5755 LP  0  0  0  0  0  0  0  0  0  0  0  0  # atno 27205 bound_to 2585
  195.0054   12.8505   45.4495 LP  0  0  0  0  0  0  0  0  0  0  0  0  # atno 27209 bound_to 26031
  193.8590   11.6879   45.4762 LP  0  0  0  0  0  0  0  0  0  0  0  0  # atno 27210 bound_to 26031
  192.2427   19.8079   51.4595 LP  0  0  0  0  0  0  0  0  0  0  0  0  # atno 27213 bound_to 27102
  193.2900   20.8967   52.0796 LP  0  0  0  0  0  0  0  0  0  0  0  0  # atno 27214 bound_to 27102
  195.6447    7.6811   52.4696 LP  0  0  0  0  0  0  0  0  0  0  0  0  # atno 27224 bound_to 7317
  195.2687    8.7599   51.1677 LP  0  0  0  0  0  0  0  0  0  0  0  0  # atno 27225 bound_to 7317
  197.6396    6.5366   51.2339 LP  0  0  0  0  0  0  0  0  0  0  0  0  # atno 27226 bound_to 7405
  198.1218    4.1458   51.9165 LP  0  0  0  0  0  0  0  0  0  0  0  0  # atno 27227 bound_to 7408
  197.8394    3.7100   53.5689 LP  0  0  0  0  0  0  0  0  0  0  0  0  # atno 27228 bound_to 7408
  196.0702    4.4935   52.9527 LP  0  0  0  0  0  0  0  0  0  0  0  0  # atno 27229 bound_to 7446
  195.7232    2.6050   53.9668 LP  0  0  0  0  0  0  0  0  0  0  0  0  # atno 27230 bound_to 7507
  185.2137    1.8539   48.1077 LP  0  0  0  0  0  0  0  0  0  0  0  0  # atno 27232 bound_to 17117
  185.4442    2.4042   49.7337 LP  0  0  0  0  0  0  0  0  0  0  0  0  # atno 27233 bound_to 17117
  183.0879    2.8340   48.3315 LP  0  0  0  0  0  0  0  0  0  0  0  0  # atno 27234 bound_to 17168
  184.9075    3.6984   45.0261 LP  0  0  0  0  0  0  0  0  0  0  0  0  # atno 27235 bound_to 17210
  185.5163    1.5761   45.5603 LP  0  0  0  0  0  0  0  0  0  0  0  0  # atno 27236 bound_to 18193
  187.0463    2.2875   45.1689 LP  0  0  0  0  0  0  0  0  0  0  0  0  # atno 27237 bound_to 18193
  187.5237   -1.3542   46.0033 LP  0  0  0  0  0  0  0  0  0  0  0  0  # atno 27238 bound_to 18265
  187.8218   -2.6877   49.1316 LP  0  0  0  0  0  0  0  0  0  0  0  0  # atno 27239 bound_to 18268
  187.6110   -2.4929   47.4235 LP  0  0  0  0  0  0  0  0  0  0  0  0  # atno 27240 bound_to 18268
  186.5470    0.4509   49.7766 LP  0  0  0  0  0  0  0  0  0  0  0  0  # atno 27241 bound_to 18307
  185.1326   -2.3321   51.5782 LP  0  0  0  0  0  0  0  0  0  0  0  0  # atno 27242 bound_to 18310
  184.5023   -0.7272   51.7424 LP  0  0  0  0  0  0  0  0  0  0  0  0  # atno 27243 bound_to 18310
  186.5686   -1.0617   52.4416 LP  0  0  0  0  0  0  0  0  0  0  0  0  # atno 27244 bound_to 18345
  188.1464    1.3702   54.7860 LP  0  0  0  0  0  0  0  0  0  0  0  0  # atno 27245 bound_to 18348
  187.4454    2.7736   54.0518 LP  0  0  0  0  0  0  0  0  0  0  0  0  # atno 27246 bound_to 18348
  185.0306    1.2633   56.0652 LP  0  0  0  0  0  0  0  0  0  0  0  0  # atno 27247 bound_to 18439
  186.7052    5.0001   56.6127 LP  0  0  0  0  0  0  0  0  0  0  0  0  # atno 27248 bound_to 18519
  183.7696    5.6630   44.5709 LP  0  0  0  0  0  0  0  0  0  0  0  0  # atno 27253 bound_to 17171
  182.6223    4.3807   44.7696 LP  0  0  0  0  0  0  0  0  0  0  0  0  # atno 27254 bound_to 17171
  187.6313    3.4290   42.8602 LP  0  0  0  0  0  0  0  0  0  0  0  0  # atno 27255 bound_to 17213
  186.1476    3.0346   42.0582 LP  0  0  0  0  0  0  0  0  0  0  0  0  # atno 27256 bound_to 17213
  179.6761    3.5008   49.6830 LP  0  0  0  0  0  0  0  0  0  0  0  0  # atno 27257 bound_to 17042
  180.9123    3.1689   48.5161 LP  0  0  0  0  0  0  0  0  0  0  0  0  # atno 27258 bound_to 17042
  186.4908    6.1568   42.1984 LP  0  0  0  0  0  0  0  0  0  0  0  0  # atno 27259 bound_to 17273
  181.1173    6.9525   51.8572 LP  0  0  0  0  0  0  0  0  0  0  0  0  # atno 27260 bound_to 18450
  182.6341    7.2355   51.3226 LP  0  0  0  0  0  0  0  0  0  0  0  0  # atno 27261 bound_to 18450
  186.4701    1.5184   42.9073 LP  0  0  0  0  0  0  0  0  0  0  0  0  # atno 27262 bound_to 18190
  184.0056   -2.3213   47.9035 LP  0  0  0  0  0  0  0  0  0  0  0  0  # atno 27263 bound_to 18270
  185.5161   -2.4434   47.2951 LP  0  0  0  0  0  0  0  0  0  0  0  0  # atno 27264 bound_to 18270
  190.1646   -4.7968   51.5694 LP  0  0  0  0  0  0  0  0  0  0  0  0  # atno 27265 bound_to 10086
  188.7379   -4.0479   51.3043 LP  0  0  0  0  0  0  0  0  0  0  0  0  # atno 27266 bound_to 10086
  188.2193   -2.4394   44.6297 LP  0  0  0  0  0  0  0  0  0  0  0  0  # atno 27267 bound_to 10127
  186.7364   -2.8407   45.4296 LP  0  0  0  0  0  0  0  0  0  0  0  0  # atno 27268 bound_to 10127
  184.6306    7.6197   43.3723 LP  0  0  0  0  0  0  0  0  0  0  0  0  # atno 27269 bound_to 11404
  185.3382    8.3649   41.9780 LP  0  0  0  0  0  0  0  0  0  0  0  0  # atno 27270 bound_to 11404
  180.7367    8.9693   50.6141 LP  0  0  0  0  0  0  0  0  0  0  0  0  # atno 27271 bound_to 16942
  179.7685    9.4400   49.3862 LP  0  0  0  0  0  0  0  0  0  0  0  0  # atno 27272 bound_to 16942
  183.0371    8.5710   42.2131 LP  0  0  0  0  0  0  0  0  0  0  0  0  # atno 27273 bound_to 11448
  181.7782    4.7778   43.9213 LP  0  0  0  0  0  0  0  0  0  0  0  0  # atno 27274 bound_to 11515
  178.8514    6.4054   48.0507 LP  0  0  0  0  0  0  0  0  0  0  0  0  # atno 27275 bound_to 11594
  179.2932    7.8659   47.2311 LP  0  0  0  0  0  0  0  0  0  0  0  0  # atno 27276 bound_to 11594
  179.0838    5.6262   44.2797 LP  0  0  0  0  0  0  0  0  0  0  0  0  # atno 27277 bound_to 11591
  181.9874   10.8771   43.1711 LP  0  0  0  0  0  0  0  0  0  0  0  0  # atno 27282 bound_to 11406
  181.8717   12.3250   42.4249 LP  0  0  0  0  0  0  0  0  0  0  0  0  # atno 27283 bound_to 11406
  185.1150   12.5107   55.4787 LP  0  0  0  0  0  0  0  0  0  0  0  0  # atno 27284 bound_to 18675
  183.5056   11.8959   55.2998 LP  0  0  0  0  0  0  0  0  0  0  0  0  # atno 27285 bound_to 18675

> <Gold.Score>
     Fitness  S(hb_ext) S(vdw_ext)  S(hb_int)    S(int)      intcor
     37.32       6.71      22.62       0.00      -0.50      -0.81

> <Gold.Goldscore.Fitness>
37.3209

> <Gold.Goldscore.Internal.Vdw>
-0.6835

> <Gold.Goldscore.Internal.Torsion>
-0.6221

> <Gold.Goldscore.External.Vdw>
22.6223

> <Gold.Goldscore.Internal.HBond>
0.0000

> <Gold.Goldscore.External.HBond>
6.7135

> <Gold.Goldscore.Internal.Correction>
-0.8073

> <Gold.Goldscore.Hbonds>
donor molecule, donor type, donor heavy atom, donor atom, acceptor molecule, acceptor atom, score
      P1  H 11455 11489       L1    17  0.10
      P1  H 19332 19366       L1    17  0.36
      L1  H    10    23       P1 19002  0.73

> <Gold.Goldscore.Internal.Vdw.Weighted>
-0.6835

> <Gold.Goldscore.Internal.Torsion.Weighted>
-0.6221

> <Gold.Goldscore.External.Vdw.Weighted>
31.1056

> <Gold.Goldscore.Internal.HBond.Weighted>
0.0000

> <Gold.Goldscore.External.HBond.Weighted>
6.7135

> <Gold.Goldscore.Internal.Correction.Weighted>
-0.8073

> <Gold.Rescore>
     Score     S(PLP)   S(hbond)     S(cho)   S(metal)  DE(clash)   DE(tors)     intcor
     27.11     -24.87       1.34       0.00       0.00       0.59       0.60       ----

> <Gold.PLP.Fitness>
27.1060

> <Gold.PLP.PLP>
-24.8698

> <Gold.PLP.part.hbond>
-5.8680

> <Gold.PLP.part.metal>
0.0000

> <Gold.PLP.part.buried>
2.2814

> <Gold.PLP.part.nonpolar>
-27.9631

> <Gold.PLP.part.repulsive>
5.7502

> <Gold.PLP.ligand.clash>
0.5943

> <Gold.PLP.ligand.torsion>
0.5992

> <Gold.PLP.Chemscore.Hbond>
1.3430

> <Gold.PLP.Chemscore.CHOScore>
0.0000

> <Gold.PLP.Chemscore.Metal>
0.0000

> <Gold.Chemscore.Hbonds>
donor molecule, donor type, donor heavy atom, donor atom, acceptor molecule, acceptor atom, score
      L1  H    10    23       P1 19002  0.40
      P1  H 19331 19364       L1    17  0.16
      P1  H 19332 19366       L1    17  0.73

> <Gold.PLP.Chemscore.Internal.Correction>
   9.000000E+99

#       Name:                CT1002167954
#       Creating user name   hitesit
#       Creation time:       Sun Apr 16 22:56:39 2023


#       File generated by GOLD software.
#

@<TRIPOS>MOLECULE
CT1002167954|ligand_prepared|mol2|1|dock7
    29    30     1
SMALL
NO_CHARGES


@<TRIPOS>ATOM
      1 C1         187.5992   9.7771  47.8626 C.3            1 RES1               0.0000
      2 C2         188.0015   8.5292  48.6749 C.ar           1 RES1               0.0000
      3 C3         188.8976  10.3858  47.3411 C.2            1 RES1               0.0000
      4 C4         186.6576   9.2880  46.7676 C.2            1 RES1               0.0000
      5 C5         186.8527  10.8482  48.6914 C.3            1 RES1               0.0000
      6 C6         189.1991   7.8699  48.4144 C.ar           1 RES1               0.0000
      7 C7         187.1882   8.0281  49.6878 C.ar           1 RES1               0.0000
      8 N8         189.1790  10.2336  46.0154 N.am           1 RES1               0.0000
      9 O9         189.6816  10.9563  48.0895 O.2            1 RES1               0.0000
     10 N10        187.0772   9.3900  45.4672 N.am           1 RES1               0.0000
     11 O11        185.5630   8.8000  47.0203 O.2            1 RES1               0.0000
     12 C12        186.6754  12.1721  47.9648 C.3            1 RES1               0.0000
     13 C13        189.5716   6.7518  49.1420 C.ar           1 RES1               0.0000
     14 C14        187.5625   6.9096  50.4141 C.ar           1 RES1               0.0000
     15 C15        188.3078   9.8123  45.0433 C.2            1 RES1               0.0000
     16 C16        188.7539   6.2712  50.1425 C.ar           1 RES1               0.0000
     17 O17        188.6306   9.8243  43.8589 O.2            1 RES1               0.0000
     18 H18        185.8636  10.4589  48.9624 H              1 RES1               0.0000
     19 H19        187.4086  11.0269  49.6201 H              1 RES1               0.0000
     20 H20        189.8543   8.2321  47.6292 H              1 RES1               0.0000
     21 H21        186.2459   8.5135  49.9181 H              1 RES1               0.0000
     22 H22        190.1248  10.4533  45.7195 H              1 RES1               0.0000
     23 H23        186.4104   9.1269  44.7485 H              1 RES1               0.0000
     24 H24        186.1461  12.8877  48.5905 H              1 RES1               0.0000
     25 H25        187.6406  12.6004  47.7024 H              1 RES1               0.0000
     26 H26        186.1047  12.0358  47.0486 H              1 RES1               0.0000
     27 H27        190.5096   6.2522  48.9235 H              1 RES1               0.0000
     28 H28        186.9155   6.5345  51.2002 H              1 RES1               0.0000
     29 H29        189.0461   5.3956  50.7127 H              1 RES1               0.0000
@<TRIPOS>BOND
    1    1    2 1     
    2    1    3 1     
    3    1    4 1     
    4    1    5 1     
    5    2    6 ar    
    6    2    7 ar    
    7    3    8 1     
    8    3    9 2     
    9    4   10 1     
   10    4   11 2     
   11    5   12 1     
   12    5   18 1     
   13    5   19 1     
   14    6   13 ar    
   15    6   20 1     
   16    7   14 ar    
   17    7   21 1     
   18    8   15 1     
   19    8   22 1     
   20   10   15 1     
   21   10   23 1     
   22   12   24 1     
   23   12   25 1     
   24   12   26 1     
   25   13   16 ar    
   26   13   27 1     
   27   14   16 ar    
   28   14   28 1     
   29   15   17 2     
   30   16   29 1     
@<TRIPOS>SUBSTRUCTURE
      1 RES1           1
@<TRIPOS>SET
DONOR_HYDROGENS      STATIC     ATOMS    <user>   **** ""
2 22 23
ATOM$RED        STATIC     ATOMS    COLORGROUP SYSTEM
2 22 23
@<TRIPOS>COMMENT
> <Gold.Version>
2022.3.0

> <Gold.Id.Protein>
unknown|4v3u_clean|pdb

> <Gold.Protein.RotatedTorsions>
[  549  517  516  515 ] final  127.84 input   59.99 | X-H torsion
[ 2542 2515 2516 2517 ] final -101.12 input  113.65 | X-H torsion
[ 2618 2585 2586 2587 ] final   18.64 input   46.31 | X-H torsion
[ 26064 26031 26030 26028 ] final -129.45 input   59.98 | X-H torsion
[ 27154 27102 27101 27097 ] final  151.77 input   60.00 | X-H torsion
[ 7430 7405 7406 7407 ] final   60.12 input   81.33 | X-H torsion
[ 7467 7446 7447 7448 ] final  125.19 input   92.53 | X-H torsion
[ 7519 7507 7508 7509 ] final  174.18 input   89.47 | X-H torsion
[ 17183 17168 17169 17170 ] final -179.06 input   55.70 | X-H torsion
[ 17231 17210 17211 17212 ] final  104.58 input  101.26 | X-H torsion
[ 18283 18265 18266 18267 ] final  133.00 input   32.88 | X-H torsion
[ 18322 18307 18308 18309 ] final   43.67 input   53.35 | X-H torsion
[ 18397 18345 18346 18347 ] final  122.62 input   36.30 | X-H torsion
[ 18484 18439 18440 18441 ] final   17.71 input   98.15 | X-H torsion
[ 18552 18519 18520 18521 ] final  179.47 input   94.34 | X-H torsion
[ 17291 17273 17274 17275 ] final  -37.56 input   50.38 | X-H torsion
[ 18492 18450 18449 18447 ] final  146.70 input   59.99 | X-H torsion
[ 18223 18190 18191 18192 ] final  138.11 input   49.82 | X-H torsion
[ 18287 18270 18269 18266 ] final   90.87 input   60.01 | X-H torsion
[ 10108 10086 10085 10082 ] final  115.52 input   60.00 | X-H torsion
[ 16975 16942 16941 16939 ] final   56.18 input   60.00 | X-H torsion
[ 11483 11448 11449 11450 ] final  171.91 input   47.08 | X-H torsion
[ 11550 11515 11516 11517 ] final  147.49 input  121.60 | X-H torsion
[ 11626 11591 11592 11593 ] final  -74.29 input   57.19 | X-H torsion
[ 11428 11406 11405 11402 ] final  -10.42 input   60.00 | X-H torsion
[ 27156 27104 27103 27101 ] final   57.22 input   60.02 | X-H torsion
[ 10144 10124 10125 10126 ] final   -2.64 input   16.22 | X-H torsion
[ 17343 17319 17320 17321 ] final -160.82 input   65.41 | X-H torsion
[ 27203 2518 2517 2516 ] final  123.08 input    0.00 | X-H torsion
[ 27224 7317 7316 7315 ] final  -56.95 input    0.00 | X-H torsion
[ 27227 7408 7407 7406 ] final  141.26 input   -0.00 | X-H torsion
[ 27232 17117 17116 17115 ] final   84.49 input    0.00 | X-H torsion
[ 27236 18193 18192 18191 ] final  -87.27 input    0.00 | X-H torsion
[ 27239 18268 18267 18266 ] final  132.24 input    0.00 | X-H torsion
[ 27242 18310 18309 18308 ] final -179.13 input   -0.00 | X-H torsion
[ 27245 18348 18347 18346 ] final -178.85 input    0.00 | X-H torsion
[ 27253 17171 17170 17169 ] final  -16.34 input   -0.00 | X-H torsion
[ 27255 17213 17212 17211 ] final  -20.81 input    0.00 | X-H torsion
[ 27257 17042 17041 17040 ] final  -27.30 input    0.00 | X-H torsion
[ 27267 10127 10126 10125 ] final   76.98 input   -0.00 | X-H torsion
[ 27269 11404 11403 11402 ] final   79.30 input    0.00 | X-H torsion
[ 27275 11594 11593 11592 ] final -158.06 input   -0.00 | X-H torsion
[ 27284 18675 18674 18673 ] final  -70.87 input    0.00 | X-H torsion

> <Gold.Protein.ActiveResidues>
 LYS309  TRP311  MET341  HIS342  TRP414  ALA417  ARG419  CYS420  VAL421  GLY422 
 ARG423  SER462  ALA463  SER482  GLN483  LEU484  ILE485  ARG486  ALA502  TRP566 
 TYR567  LEU569  PRO570  ALA571  VAL572  SER573  ASN574  MET575  PHE589  SER590 
 GLY591  TRP592  TYR593  MET594  GLU597  ILE598  ARG601  ASP602  ASP605  ARG608 
 TRP683  HIS697  GLU699  TYR711  HEM750  H4B760 

> <Gold.Protein.RotatedAtoms>
  188.4658   23.9475   43.1801 H   0  0  0  0  0  0  0  0  0  0  0  0  # atno 549  bound_to 517 
  189.1616   24.5461   41.8001 H   0  0  0  0  0  0  0  0  0  0  0  0  # atno 550  bound_to 517 
  189.9428   23.3836   42.6854 H   0  0  0  0  0  0  0  0  0  0  0  0  # atno 551  bound_to 517 
  198.0913   19.4131   46.7648 H   0  0  0  0  0  0  0  0  0  0  0  0  # atno 2542 bound_to 2515
  197.4661   19.3087   43.7645 H   0  0  0  0  0  0  0  0  0  0  0  0  # atno 2618 bound_to 2585
  197.7617    5.8501   50.4501 H   0  0  0  0  0  0  0  0  0  0  0  0  # atno 7430 bound_to 7405
  195.0883    5.7344   53.6860 H   0  0  0  0  0  0  0  0  0  0  0  0  # atno 7467 bound_to 7446
  194.3037    3.1968   54.7903 H   0  0  0  0  0  0  0  0  0  0  0  0  # atno 7519 bound_to 7507
  189.9779   -4.8530   51.6346 H   0  0  0  0  0  0  0  0  0  0  0  0  # atno 10108 bound_to 10086
  187.9253   -3.9100   47.1546 H   0  0  0  0  0  0  0  0  0  0  0  0  # atno 10144 bound_to 10124
  181.7387   11.0841   42.7347 H   0  0  0  0  0  0  0  0  0  0  0  0  # atno 11428 bound_to 11406
  183.0491    9.1720   43.1832 H   0  0  0  0  0  0  0  0  0  0  0  0  # atno 11483 bound_to 11448
  181.9640    4.7686   43.3714 H   0  0  0  0  0  0  0  0  0  0  0  0  # atno 11550 bound_to 11515
  178.9108    5.4699   44.1254 H   0  0  0  0  0  0  0  0  0  0  0  0  # atno 11626 bound_to 11591
  180.2480    9.3985   50.4731 H   0  0  0  0  0  0  0  0  0  0  0  0  # atno 16975 bound_to 16942
  183.0793    2.8249   48.3401 H   0  0  0  0  0  0  0  0  0  0  0  0  # atno 17183 bound_to 17168
  186.3434    3.6721   45.8529 H   0  0  0  0  0  0  0  0  0  0  0  0  # atno 17231 bound_to 17210
  186.5810    6.0189   42.2262 H   0  0  0  0  0  0  0  0  0  0  0  0  # atno 17291 bound_to 17273
  185.6166    6.7737   39.9613 H   0  0  0  0  0  0  0  0  0  0  0  0  # atno 17343 bound_to 17319
  187.7873    1.1522   42.0514 H   0  0  0  0  0  0  0  0  0  0  0  0  # atno 18223 bound_to 18190
  186.3054   -0.7848   45.3228 H   0  0  0  0  0  0  0  0  0  0  0  0  # atno 18283 bound_to 18265
  184.6110   -2.4298   48.0931 H   0  0  0  0  0  0  0  0  0  0  0  0  # atno 18287 bound_to 18270
  186.5858    0.4870   49.7975 H   0  0  0  0  0  0  0  0  0  0  0  0  # atno 18322 bound_to 18307
  187.2244   -1.2156   53.1784 H   0  0  0  0  0  0  0  0  0  0  0  0  # atno 18397 bound_to 18345
  185.4844    1.2175   56.0578 H   0  0  0  0  0  0  0  0  0  0  0  0  # atno 18484 bound_to 18439
  181.4262    6.7407   51.5331 H   0  0  0  0  0  0  0  0  0  0  0  0  # atno 18492 bound_to 18450
  187.7670    3.6956   56.7736 H   0  0  0  0  0  0  0  0  0  0  0  0  # atno 18552 bound_to 18519
  194.3675   13.4959   45.4494 H   0  0  0  0  0  0  0  0  0  0  0  0  # atno 26064 bound_to 26031
  193.2617   20.8987   52.0303 H   0  0  0  0  0  0  0  0  0  0  0  0  # atno 27154 bound_to 27102
  196.3076   19.3633   49.7673 H   0  0  0  0  0  0  0  0  0  0  0  0  # atno 27156 bound_to 27104
  197.0813   20.3275   45.6730 LP  0  0  0  0  0  0  0  0  0  0  0  0  # atno 27202 bound_to 2515
  196.3213   15.8906   43.7932 LP  0  0  0  0  0  0  0  0  0  0  0  0  # atno 27203 bound_to 2518
  197.4951   15.8460   45.0661 LP  0  0  0  0  0  0  0  0  0  0  0  0  # atno 27204 bound_to 2518
  196.5354   17.8821   44.1485 LP  0  0  0  0  0  0  0  0  0  0  0  0  # atno 27205 bound_to 2585
  194.7416   11.9126   45.4619 LP  0  0  0  0  0  0  0  0  0  0  0  0  # atno 27209 bound_to 26031
  193.1787   12.3854   45.4790 LP  0  0  0  0  0  0  0  0  0  0  0  0  # atno 27210 bound_to 26031
  193.0395   19.5358   52.8907 LP  0  0  0  0  0  0  0  0  0  0  0  0  # atno 27213 bound_to 27102
  192.2339   19.7599   51.4881 LP  0  0  0  0  0  0  0  0  0  0  0  0  # atno 27214 bound_to 27102
  196.0485    8.6425   52.2895 LP  0  0  0  0  0  0  0  0  0  0  0  0  # atno 27224 bound_to 7317
  194.8649    7.7985   51.3478 LP  0  0  0  0  0  0  0  0  0  0  0  0  # atno 27225 bound_to 7317
  196.5991    7.1467   50.5535 LP  0  0  0  0  0  0  0  0  0  0  0  0  # atno 27226 bound_to 7405
  198.1553    4.3021   53.5039 LP  0  0  0  0  0  0  0  0  0  0  0  0  # atno 27227 bound_to 7408
  197.8058    3.5536   51.9815 LP  0  0  0  0  0  0  0  0  0  0  0  0  # atno 27228 bound_to 7408
  195.9585    4.4020   52.9574 LP  0  0  0  0  0  0  0  0  0  0  0  0  # atno 27229 bound_to 7446
  195.7610    2.6024   54.0339 LP  0  0  0  0  0  0  0  0  0  0  0  0  # atno 27230 bound_to 7507
  184.8384    1.4185   48.9875 LP  0  0  0  0  0  0  0  0  0  0  0  0  # atno 27232 bound_to 17117
  185.8195    2.8396   48.8539 LP  0  0  0  0  0  0  0  0  0  0  0  0  # atno 27233 bound_to 17117
  183.3013    4.4535   47.7554 LP  0  0  0  0  0  0  0  0  0  0  0  0  # atno 27234 bound_to 17168
  184.7209    4.1082   45.3558 LP  0  0  0  0  0  0  0  0  0  0  0  0  # atno 27235 bound_to 17210
  187.0484    2.2272   45.6371 LP  0  0  0  0  0  0  0  0  0  0  0  0  # atno 27236 bound_to 18193
  185.5142    1.6364   45.0920 LP  0  0  0  0  0  0  0  0  0  0  0  0  # atno 27237 bound_to 18193
  187.9040   -0.5676   45.9911 LP  0  0  0  0  0  0  0  0  0  0  0  0  # atno 27238 bound_to 18265
  188.4359   -2.3347   48.6861 LP  0  0  0  0  0  0  0  0  0  0  0  0  # atno 27239 bound_to 18268
  186.9969   -2.8459   47.8689 LP  0  0  0  0  0  0  0  0  0  0  0  0  # atno 27240 bound_to 18268
  187.1608   -0.8446   48.8202 LP  0  0  0  0  0  0  0  0  0  0  0  0  # atno 27241 bound_to 18307
  184.5667   -1.2403   52.4371 LP  0  0  0  0  0  0  0  0  0  0  0  0  # atno 27242 bound_to 18310
  185.0682   -1.8190   50.8835 LP  0  0  0  0  0  0  0  0  0  0  0  0  # atno 27243 bound_to 18310
  186.9899    0.2836   52.3097 LP  0  0  0  0  0  0  0  0  0  0  0  0  # atno 27244 bound_to 18345
  187.6036    2.7474   54.9256 LP  0  0  0  0  0  0  0  0  0  0  0  0  # atno 27245 bound_to 18348
  187.9882    1.3964   53.9123 LP  0  0  0  0  0  0  0  0  0  0  0  0  # atno 27246 bound_to 18348
  184.9775    1.8623   54.5130 LP  0  0  0  0  0  0  0  0  0  0  0  0  # atno 27247 bound_to 18439
  186.3949    4.7777   56.8407 LP  0  0  0  0  0  0  0  0  0  0  0  0  # atno 27248 bound_to 18519
  182.5995    4.4209   44.8523 LP  0  0  0  0  0  0  0  0  0  0  0  0  # atno 27253 bound_to 17171
  183.7924    5.6228   44.4882 LP  0  0  0  0  0  0  0  0  0  0  0  0  # atno 27254 bound_to 17171
  187.3796    3.2252   43.1731 LP  0  0  0  0  0  0  0  0  0  0  0  0  # atno 27255 bound_to 17213
  186.3993    3.2383   41.7453 LP  0  0  0  0  0  0  0  0  0  0  0  0  # atno 27256 bound_to 17213
  179.7870    2.6766   48.8556 LP  0  0  0  0  0  0  0  0  0  0  0  0  # atno 27257 bound_to 17042
  180.8014    3.9930   49.3435 LP  0  0  0  0  0  0  0  0  0  0  0  0  # atno 27258 bound_to 17042
  185.0193    5.4994   42.8072 LP  0  0  0  0  0  0  0  0  0  0  0  0  # atno 27259 bound_to 17273
  182.7838    7.6368   51.5742 LP  0  0  0  0  0  0  0  0  0  0  0  0  # atno 27260 bound_to 18450
  181.5171    8.0243   52.5291 LP  0  0  0  0  0  0  0  0  0  0  0  0  # atno 27261 bound_to 18450
  186.1561    0.9843   42.6605 LP  0  0  0  0  0  0  0  0  0  0  0  0  # atno 27262 bound_to 18190
  185.3938   -2.3365   46.6700 LP  0  0  0  0  0  0  0  0  0  0  0  0  # atno 27263 bound_to 18270
  183.7763   -2.1208   46.7313 LP  0  0  0  0  0  0  0  0  0  0  0  0  # atno 27264 bound_to 18270
  188.7537   -3.8777   51.1888 LP  0  0  0  0  0  0  0  0  0  0  0  0  # atno 27265 bound_to 10086
  190.2811   -3.5425   50.7185 LP  0  0  0  0  0  0  0  0  0  0  0  0  # atno 27266 bound_to 10086
  188.2351   -2.6304   45.4496 LP  0  0  0  0  0  0  0  0  0  0  0  0  # atno 27267 bound_to 10127
  186.7206   -2.6496   44.6096 LP  0  0  0  0  0  0  0  0  0  0  0  0  # atno 27268 bound_to 10127
  185.2329    8.6180   43.2198 LP  0  0  0  0  0  0  0  0  0  0  0  0  # atno 27269 bound_to 11404
  184.7359    7.3665   42.1304 LP  0  0  0  0  0  0  0  0  0  0  0  0  # atno 27270 bound_to 11404
  179.9890    9.0256   48.9107 LP  0  0  0  0  0  0  0  0  0  0  0  0  # atno 27271 bound_to 16942
  181.1304    8.2293   49.7650 LP  0  0  0  0  0  0  0  0  0  0  0  0  # atno 27272 bound_to 16942
  181.7332    8.6551   42.1571 LP  0  0  0  0  0  0  0  0  0  0  0  0  # atno 27273 bound_to 11448
  180.8904    6.1179   43.6601 LP  0  0  0  0  0  0  0  0  0  0  0  0  # atno 27274 bound_to 11515
  178.6407    7.8303   47.9257 LP  0  0  0  0  0  0  0  0  0  0  0  0  # atno 27275 bound_to 11594
  179.5039    6.4409   47.3561 LP  0  0  0  0  0  0  0  0  0  0  0  0  # atno 27276 bound_to 11594
  179.4292    4.3726   45.3829 LP  0  0  0  0  0  0  0  0  0  0  0  0  # atno 27277 bound_to 11591
  182.1839   12.6491   42.7331 LP  0  0  0  0  0  0  0  0  0  0  0  0  # atno 27282 bound_to 11406
  182.7262   11.6441   43.9004 LP  0  0  0  0  0  0  0  0  0  0  0  0  # atno 27283 bound_to 11406
  184.7663   12.7172   55.9166 LP  0  0  0  0  0  0  0  0  0  0  0  0  # atno 27284 bound_to 18675
  183.8543   11.6895   54.8620 LP  0  0  0  0  0  0  0  0  0  0  0  0  # atno 27285 bound_to 18675

> <Gold.Score>
     Fitness  S(hb_ext) S(vdw_ext)  S(hb_int)    S(int)      intcor
     37.01       4.73      24.13       0.00      -0.89      -0.76

> <Gold.Goldscore.Fitness>
37.0122

> <Gold.Goldscore.Internal.Vdw>
-1.1197

> <Gold.Goldscore.Internal.Torsion>
-0.5377

> <Gold.Goldscore.External.Vdw>
24.1268

> <Gold.Goldscore.Internal.HBond>
0.0000

> <Gold.Goldscore.External.HBond>
4.7304

> <Gold.Goldscore.Internal.Correction>
-0.7650

> <Gold.Goldscore.Hbonds>
donor molecule, donor type, donor heavy atom, donor atom, acceptor molecule, acceptor atom, score
      L1  H     8    22       P1 26833  0.66
      L1  H    10    23       P1 11404  0.37

> <Gold.Goldscore.Internal.Vdw.Weighted>
-1.1197

> <Gold.Goldscore.Internal.Torsion.Weighted>
-0.5377

> <Gold.Goldscore.External.Vdw.Weighted>
33.1743

> <Gold.Goldscore.Internal.HBond.Weighted>
0.0000

> <Gold.Goldscore.External.HBond.Weighted>
4.7304

> <Gold.Goldscore.Internal.Correction.Weighted>
-0.7650

> <Gold.Rescore>
     Score     S(PLP)   S(hbond)     S(cho)   S(metal)  DE(clash)   DE(tors)     intcor
     14.40     -13.97       0.91       0.00       0.00       0.69       0.81       ----

> <Gold.PLP.Fitness>
14.4036

> <Gold.PLP.PLP>
-13.9708

> <Gold.PLP.part.hbond>
-1.5283

> <Gold.PLP.part.metal>
0.0000

> <Gold.PLP.part.buried>
7.8293

> <Gold.PLP.part.nonpolar>
-29.8685

> <Gold.PLP.part.repulsive>
9.0921

> <Gold.PLP.ligand.clash>
0.6854

> <Gold.PLP.ligand.torsion>
0.8089

> <Gold.PLP.Chemscore.Hbond>
0.9120

> <Gold.PLP.Chemscore.CHOScore>
0.0000

> <Gold.PLP.Chemscore.Metal>
0.0000

> <Gold.Chemscore.Hbonds>
donor molecule, donor type, donor heavy atom, donor atom, acceptor molecule, acceptor atom, score
      L1  H     8    22       P1 26833  0.70

> <Gold.PLP.Chemscore.Internal.Correction>
   9.000000E+99

#       Name:                CT1002167954
#       Creating user name   hitesit
#       Creation time:       Sun Apr 16 22:56:35 2023


#       File generated by GOLD software.
#

@<TRIPOS>MOLECULE
CT1002167954|ligand_prepared|mol2|1|dock2
    29    30     1
SMALL
NO_CHARGES


@<TRIPOS>ATOM
      1 C1         185.8973   9.6822  49.7986 C.3            1 RES1               0.0000
      2 C2         186.3178  10.4928  48.5557 C.ar           1 RES1               0.0000
      3 C3         187.1441   9.5547  50.6689 C.2            1 RES1               0.0000
      4 C4         184.7602  10.4606  50.4510 C.2            1 RES1               0.0000
      5 C5         185.3787   8.2622  49.4724 C.3            1 RES1               0.0000
      6 C6         186.9579   9.8714  47.4876 C.ar           1 RES1               0.0000
      7 C7         186.0705  11.8598  48.4617 C.ar           1 RES1               0.0000
      8 N8         187.2026  10.3092  51.8034 N.am           1 RES1               0.0000
      9 O9         188.0789   8.8328  50.3443 O.2            1 RES1               0.0000
     10 N10        184.9794  10.9982  51.6922 N.am           1 RES1               0.0000
     11 O11        183.6820  10.6274  49.8942 O.2            1 RES1               0.0000
     12 C12        184.7115   7.5678  50.6491 C.3            1 RES1               0.0000
     13 C13        187.3344  10.5898  46.3649 C.ar           1 RES1               0.0000
     14 C14        186.4481  12.5764  47.3382 C.ar           1 RES1               0.0000
     15 C15        186.1593  10.9839  52.3848 C.2            1 RES1               0.0000
     16 C16        187.0794  11.9425  46.2892 C.ar           1 RES1               0.0000
     17 O17        186.2940  11.5368  53.4726 O.2            1 RES1               0.0000
     18 H18        184.6584   8.3302  48.6478 H              1 RES1               0.0000
     19 H19        186.2214   7.6482  49.1316 H              1 RES1               0.0000
     20 H20        187.1691   8.8081  47.5302 H              1 RES1               0.0000
     21 H21        185.5760  12.3796  49.2753 H              1 RES1               0.0000
     22 H22        188.1056  10.3784  52.2618 H              1 RES1               0.0000
     23 H23        184.1897  11.4508  52.1416 H              1 RES1               0.0000
     24 H24        184.3662   6.5756  50.3662 H              1 RES1               0.0000
     25 H25        185.4072   7.4606  51.4788 H              1 RES1               0.0000
     26 H26        183.8534   8.1386  50.9979 H              1 RES1               0.0000
     27 H27        187.8322  10.0865  45.5427 H              1 RES1               0.0000
     28 H28        186.2460  13.6410  47.2832 H              1 RES1               0.0000
     29 H29        187.3742  12.5050  45.4095 H              1 RES1               0.0000
@<TRIPOS>BOND
    1    1    2 1     
    2    1    3 1     
    3    1    4 1     
    4    1    5 1     
    5    2    6 ar    
    6    2    7 ar    
    7    3    8 1     
    8    3    9 2     
    9    4   10 1     
   10    4   11 2     
   11    5   12 1     
   12    5   18 1     
   13    5   19 1     
   14    6   13 ar    
   15    6   20 1     
   16    7   14 ar    
   17    7   21 1     
   18    8   15 1     
   19    8   22 1     
   20   10   15 1     
   21   10   23 1     
   22   12   24 1     
   23   12   25 1     
   24   12   26 1     
   25   13   16 ar    
   26   13   27 1     
   27   14   16 ar    
   28   14   28 1     
   29   15   17 2     
   30   16   29 1     
@<TRIPOS>SUBSTRUCTURE
      1 RES1           1
@<TRIPOS>SET
DONOR_HYDROGENS      STATIC     ATOMS    <user>   **** ""
2 22 23
ATOM$RED        STATIC     ATOMS    COLORGROUP SYSTEM
2 22 23
@<TRIPOS>COMMENT
> <Gold.Version>
2022.3.0

> <Gold.Id.Protein>
unknown|4v3u_clean|pdb

> <Gold.Protein.RotatedTorsions>
[  549  517  516  515 ] final  -72.15 input   59.99 | X-H torsion
[ 2542 2515 2516 2517 ] final   47.49 input  113.65 | X-H torsion
[ 2618 2585 2586 2587 ] final  150.36 input   46.31 | X-H torsion
[ 26064 26031 26030 26028 ] final  169.52 input   59.98 | X-H torsion
[ 27154 27102 27101 27097 ] final  165.68 input   60.00 | X-H torsion
[ 7430 7405 7406 7407 ] final   -8.48 input   81.33 | X-H torsion
[ 7467 7446 7447 7448 ] final  112.44 input   92.53 | X-H torsion
[ 7519 7507 7508 7509 ] final -108.68 input   89.47 | X-H torsion
[ 17183 17168 17169 17170 ] final  -86.25 input   55.70 | X-H torsion
[ 17231 17210 17211 17212 ] final   -5.39 input  101.26 | X-H torsion
[ 18283 18265 18266 18267 ] final   25.27 input   32.88 | X-H torsion
[ 18322 18307 18308 18309 ] final   69.25 input   53.35 | X-H torsion
[ 18397 18345 18346 18347 ] final  137.93 input   36.30 | X-H torsion
[ 18484 18439 18440 18441 ] final -144.10 input   98.15 | X-H torsion
[ 18552 18519 18520 18521 ] final -117.57 input   94.34 | X-H torsion
[ 17291 17273 17274 17275 ] final  156.23 input   50.38 | X-H torsion
[ 18492 18450 18449 18447 ] final  136.26 input   59.99 | X-H torsion
[ 18223 18190 18191 18192 ] final  -76.42 input   49.82 | X-H torsion
[ 18287 18270 18269 18266 ] final  -56.46 input   60.01 | X-H torsion
[ 10108 10086 10085 10082 ] final    3.93 input   60.00 | X-H torsion
[ 16975 16942 16941 16939 ] final -153.11 input   60.00 | X-H torsion
[ 11483 11448 11449 11450 ] final  104.89 input   47.08 | X-H torsion
[ 11550 11515 11516 11517 ] final    2.89 input  121.60 | X-H torsion
[ 11626 11591 11592 11593 ] final  107.35 input   57.19 | X-H torsion
[ 11428 11406 11405 11402 ] final -121.65 input   60.00 | X-H torsion
[ 27156 27104 27103 27101 ] final  127.47 input   60.02 | X-H torsion
[ 10144 10124 10125 10126 ] final   49.56 input   16.22 | X-H torsion
[ 17343 17319 17320 17321 ] final   97.38 input   65.41 | X-H torsion
[ 27203 2518 2517 2516 ] final   75.51 input    0.00 | X-H torsion
[ 27224 7317 7316 7315 ] final  -94.38 input    0.00 | X-H torsion
[ 27227 7408 7407 7406 ] final   24.61 input   -0.00 | X-H torsion
[ 27232 17117 17116 17115 ] final  163.99 input    0.00 | X-H torsion
[ 27236 18193 18192 18191 ] final  118.93 input    0.00 | X-H torsion
[ 27239 18268 18267 18266 ] final  -19.06 input    0.00 | X-H torsion
[ 27242 18310 18309 18308 ] final  150.71 input   -0.00 | X-H torsion
[ 27245 18348 18347 18346 ] final -108.06 input    0.00 | X-H torsion
[ 27253 17171 17170 17169 ] final   21.56 input   -0.00 | X-H torsion
[ 27255 17213 17212 17211 ] final -144.63 input    0.00 | X-H torsion
[ 27257 17042 17041 17040 ] final    7.19 input    0.00 | X-H torsion
[ 27267 10127 10126 10125 ] final  -56.35 input   -0.00 | X-H torsion
[ 27269 11404 11403 11402 ] final  134.15 input    0.00 | X-H torsion
[ 27275 11594 11593 11592 ] final  -26.32 input   -0.00 | X-H torsion
[ 27284 18675 18674 18673 ] final -109.40 input    0.00 | X-H torsion

> <Gold.Protein.ActiveResidues>
 LYS309  TRP311  MET341  HIS342  TRP414  ALA417  ARG419  CYS420  VAL421  GLY422 
 ARG423  SER462  ALA463  SER482  GLN483  LEU484  ILE485  ARG486  ALA502  TRP566 
 TYR567  LEU569  PRO570  ALA571  VAL572  SER573  ASN574  MET575  PHE589  SER590 
 GLY591  TRP592  TYR593  MET594  GLU597  ILE598  ARG601  ASP602  ASP605  ARG608 
 TRP683  HIS697  GLU699  TYR711  HEM750  H4B760 

> <Gold.Protein.RotatedAtoms>
  189.7168   24.1994   41.7937 H   0  0  0  0  0  0  0  0  0  0  0  0  # atno 549  bound_to 517 
  189.5084   23.2955   43.1670 H   0  0  0  0  0  0  0  0  0  0  0  0  # atno 550  bound_to 517 
  188.3455   24.3817   42.7052 H   0  0  0  0  0  0  0  0  0  0  0  0  # atno 551  bound_to 517 
  197.4250   20.1596   45.3957 H   0  0  0  0  0  0  0  0  0  0  0  0  # atno 2542 bound_to 2515
  196.1462   18.3920   43.8342 H   0  0  0  0  0  0  0  0  0  0  0  0  # atno 2618 bound_to 2585
  197.6941    6.4790   51.2110 H   0  0  0  0  0  0  0  0  0  0  0  0  # atno 7430 bound_to 7405
  194.9387    5.6057   53.6903 H   0  0  0  0  0  0  0  0  0  0  0  0  # atno 7467 bound_to 7446
  195.2660    2.9476   55.2586 H   0  0  0  0  0  0  0  0  0  0  0  0  # atno 7519 bound_to 7507
  188.7442   -3.9928   51.2644 H   0  0  0  0  0  0  0  0  0  0  0  0  # atno 10108 bound_to 10086
  187.1724   -4.0285   47.2876 H   0  0  0  0  0  0  0  0  0  0  0  0  # atno 10144 bound_to 10124
  182.0992   12.5831   42.6373 H   0  0  0  0  0  0  0  0  0  0  0  0  # atno 11428 bound_to 11406
  182.1125    9.3726   43.3667 H   0  0  0  0  0  0  0  0  0  0  0  0  # atno 11483 bound_to 11448
  180.9151    5.8550   44.1221 H   0  0  0  0  0  0  0  0  0  0  0  0  # atno 11550 bound_to 11515
  179.4174    4.3430   45.3895 H   0  0  0  0  0  0  0  0  0  0  0  0  # atno 11626 bound_to 11591
  180.9543    8.2135   49.3000 H   0  0  0  0  0  0  0  0  0  0  0  0  # atno 16975 bound_to 16942
  183.9912    3.7102   48.4024 H   0  0  0  0  0  0  0  0  0  0  0  0  # atno 17183 bound_to 17168
  185.2734    3.4074   44.8914 H   0  0  0  0  0  0  0  0  0  0  0  0  # atno 17231 bound_to 17210
  185.1091    5.3147   42.8511 H   0  0  0  0  0  0  0  0  0  0  0  0  # atno 17291 bound_to 17273
  186.3966    7.3867   40.9032 H   0  0  0  0  0  0  0  0  0  0  0  0  # atno 17343 bound_to 17319
  186.2222    0.5726   42.3498 H   0  0  0  0  0  0  0  0  0  0  0  0  # atno 18223 bound_to 18190
  187.3851   -1.4566   45.9626 H   0  0  0  0  0  0  0  0  0  0  0  0  # atno 18283 bound_to 18265
  185.0801   -2.2469   46.3692 H   0  0  0  0  0  0  0  0  0  0  0  0  # atno 18287 bound_to 18270
  186.9537    0.5943   49.7122 H   0  0  0  0  0  0  0  0  0  0  0  0  # atno 18322 bound_to 18307
  187.0513   -1.2888   53.0355 H   0  0  0  0  0  0  0  0  0  0  0  0  # atno 18397 bound_to 18345
  185.2476    1.8643   54.4473 H   0  0  0  0  0  0  0  0  0  0  0  0  # atno 18484 bound_to 18439
  181.5658    6.7124   51.4396 H   0  0  0  0  0  0  0  0  0  0  0  0  # atno 18492 bound_to 18450
  186.9834    3.4565   57.2045 H   0  0  0  0  0  0  0  0  0  0  0  0  # atno 18552 bound_to 18519
  195.0115   12.7968   45.4471 H   0  0  0  0  0  0  0  0  0  0  0  0  # atno 26064 bound_to 26031
  193.1386   20.9051   51.8402 H   0  0  0  0  0  0  0  0  0  0  0  0  # atno 27154 bound_to 27102
  196.9936   20.1068   50.1361 H   0  0  0  0  0  0  0  0  0  0  0  0  # atno 27156 bound_to 27104
  197.7359   19.5942   47.0180 LP  0  0  0  0  0  0  0  0  0  0  0  0  # atno 27202 bound_to 2515
  196.0426   15.8401   44.4317 LP  0  0  0  0  0  0  0  0  0  0  0  0  # atno 27203 bound_to 2518
  197.7738   15.8965   44.4275 LP  0  0  0  0  0  0  0  0  0  0  0  0  # atno 27204 bound_to 2518
  197.8304   18.7815   44.0801 LP  0  0  0  0  0  0  0  0  0  0  0  0  # atno 27205 bound_to 2585
  193.8075   11.7029   45.4768 LP  0  0  0  0  0  0  0  0  0  0  0  0  # atno 27209 bound_to 26031
  193.4641   13.2993   45.4665 LP  0  0  0  0  0  0  0  0  0  0  0  0  # atno 27210 bound_to 26031
  193.1766   19.7104   52.9439 LP  0  0  0  0  0  0  0  0  0  0  0  0  # atno 27213 bound_to 27102
  192.2208   19.5788   51.6264 LP  0  0  0  0  0  0  0  0  0  0  0  0  # atno 27214 bound_to 27102
  195.9505    8.1495   52.5266 LP  0  0  0  0  0  0  0  0  0  0  0  0  # atno 27224 bound_to 7317
  194.9628    8.2915   51.1108 LP  0  0  0  0  0  0  0  0  0  0  0  0  # atno 27225 bound_to 7317
  196.6658    6.5260   49.8025 LP  0  0  0  0  0  0  0  0  0  0  0  0  # atno 27226 bound_to 7405
  198.2299    4.3566   52.0328 LP  0  0  0  0  0  0  0  0  0  0  0  0  # atno 27227 bound_to 7408
  197.7312    3.4992   53.4527 LP  0  0  0  0  0  0  0  0  0  0  0  0  # atno 27228 bound_to 7408
  196.1033    4.5267   52.9533 LP  0  0  0  0  0  0  0  0  0  0  0  0  # atno 27229 bound_to 7446
  194.8166    2.8469   53.5743 LP  0  0  0  0  0  0  0  0  0  0  0  0  # atno 27230 bound_to 7507
  185.2539    1.9100   48.0862 LP  0  0  0  0  0  0  0  0  0  0  0  0  # atno 27232 bound_to 17117
  185.4040    2.3481   49.7552 LP  0  0  0  0  0  0  0  0  0  0  0  0  # atno 27233 bound_to 17117
  182.4022    3.5808   47.6939 LP  0  0  0  0  0  0  0  0  0  0  0  0  # atno 27234 bound_to 17168
  185.7501    4.3628   46.2806 LP  0  0  0  0  0  0  0  0  0  0  0  0  # atno 27235 bound_to 17210
  185.4989    1.5791   45.4801 LP  0  0  0  0  0  0  0  0  0  0  0  0  # atno 27236 bound_to 18193
  187.0638    2.2845   45.2491 LP  0  0  0  0  0  0  0  0  0  0  0  0  # atno 27237 bound_to 18193
  186.8443    0.0918   45.3632 LP  0  0  0  0  0  0  0  0  0  0  0  0  # atno 27238 bound_to 18265
  187.2432   -2.6819   47.5580 LP  0  0  0  0  0  0  0  0  0  0  0  0  # atno 27239 bound_to 18268
  188.1896   -2.4988   48.9970 LP  0  0  0  0  0  0  0  0  0  0  0  0  # atno 27240 bound_to 18268
  186.8032   -0.9489   48.9030 LP  0  0  0  0  0  0  0  0  0  0  0  0  # atno 27241 bound_to 18307
  184.7108   -1.6611   52.5096 LP  0  0  0  0  0  0  0  0  0  0  0  0  # atno 27242 bound_to 18310
  184.9241   -1.3982   50.8110 LP  0  0  0  0  0  0  0  0  0  0  0  0  # atno 27243 bound_to 18310
  187.1584    0.3549   52.4487 LP  0  0  0  0  0  0  0  0  0  0  0  0  # atno 27244 bound_to 18345
  188.0108    1.8849   55.2367 LP  0  0  0  0  0  0  0  0  0  0  0  0  # atno 27245 bound_to 18348
  187.5810    2.2589   53.6011 LP  0  0  0  0  0  0  0  0  0  0  0  0  # atno 27246 bound_to 18348
  185.2076    1.2337   56.0782 LP  0  0  0  0  0  0  0  0  0  0  0  0  # atno 27247 bound_to 18439
  187.1574    5.0104   56.4215 LP  0  0  0  0  0  0  0  0  0  0  0  0  # atno 27248 bound_to 18519
  182.6174    4.7938   45.2730 LP  0  0  0  0  0  0  0  0  0  0  0  0  # atno 27253 bound_to 17171
  183.7745    5.2499   44.0675 LP  0  0  0  0  0  0  0  0  0  0  0  0  # atno 27254 bound_to 17171
  187.1425    3.5711   41.7037 LP  0  0  0  0  0  0  0  0  0  0  0  0  # atno 27255 bound_to 17213
  186.6364    2.8925   43.2147 LP  0  0  0  0  0  0  0  0  0  0  0  0  # atno 27256 bound_to 17213
  179.5487    2.9176   49.2415 LP  0  0  0  0  0  0  0  0  0  0  0  0  # atno 27257 bound_to 17042
  181.0397    3.7521   48.9576 LP  0  0  0  0  0  0  0  0  0  0  0  0  # atno 27258 bound_to 17042
  186.4668    6.1919   42.1927 LP  0  0  0  0  0  0  0  0  0  0  0  0  # atno 27259 bound_to 17273
  182.7793    7.7686   51.6839 LP  0  0  0  0  0  0  0  0  0  0  0  0  # atno 27260 bound_to 18450
  181.3810    7.9209   52.5135 LP  0  0  0  0  0  0  0  0  0  0  0  0  # atno 27261 bound_to 18450
  187.6749    1.5468   42.3710 LP  0  0  0  0  0  0  0  0  0  0  0  0  # atno 27262 bound_to 18190
  183.6600   -2.1661   47.1587 LP  0  0  0  0  0  0  0  0  0  0  0  0  # atno 27263 bound_to 18270
  185.0375   -2.4754   47.9793 LP  0  0  0  0  0  0  0  0  0  0  0  0  # atno 27264 bound_to 18270
  190.1710   -3.4657   50.6855 LP  0  0  0  0  0  0  0  0  0  0  0  0  # atno 27265 bound_to 10086
  190.1060   -4.8206   51.5946 LP  0  0  0  0  0  0  0  0  0  0  0  0  # atno 27266 bound_to 10086
  186.6653   -2.8140   45.2734 LP  0  0  0  0  0  0  0  0  0  0  0  0  # atno 27267 bound_to 10127
  188.2905   -2.4660   44.7859 LP  0  0  0  0  0  0  0  0  0  0  0  0  # atno 27268 bound_to 10127
  184.8214    8.0068   43.5255 LP  0  0  0  0  0  0  0  0  0  0  0  0  # atno 27269 bound_to 11404
  185.1475    7.9778   41.8247 LP  0  0  0  0  0  0  0  0  0  0  0  0  # atno 27270 bound_to 11404
  180.6135    9.0965   50.6234 LP  0  0  0  0  0  0  0  0  0  0  0  0  # atno 27271 bound_to 16942
  179.7942    9.3524   49.2342 LP  0  0  0  0  0  0  0  0  0  0  0  0  # atno 27272 bound_to 16942
  182.6489    8.4589   41.9777 LP  0  0  0  0  0  0  0  0  0  0  0  0  # atno 27273 bound_to 11448
  181.9134    5.0584   42.9281 LP  0  0  0  0  0  0  0  0  0  0  0  0  # atno 27274 bound_to 11515
  179.0425    6.3024   47.8749 LP  0  0  0  0  0  0  0  0  0  0  0  0  # atno 27275 bound_to 11594
  179.1021    7.9689   47.4069 LP  0  0  0  0  0  0  0  0  0  0  0  0  # atno 27276 bound_to 11594
  178.9341    5.4737   44.1477 LP  0  0  0  0  0  0  0  0  0  0  0  0  # atno 27277 bound_to 11591
  182.7599   11.7839   43.8913 LP  0  0  0  0  0  0  0  0  0  0  0  0  # atno 27282 bound_to 11406
  181.7871   10.9991   42.8404 LP  0  0  0  0  0  0  0  0  0  0  0  0  # atno 27283 bound_to 11406
  184.2269   12.6867   56.1030 LP  0  0  0  0  0  0  0  0  0  0  0  0  # atno 27284 bound_to 18675
  184.3937   11.7199   54.6755 LP  0  0  0  0  0  0  0  0  0  0  0  0  # atno 27285 bound_to 18675

> <Gold.Score>
     Fitness  S(hb_ext) S(vdw_ext)  S(hb_int)    S(int)      intcor
     32.86       7.16      19.28       0.00      -0.81      -0.81

> <Gold.Goldscore.Fitness>
32.8578

> <Gold.Goldscore.Internal.Vdw>
-1.0536

> <Gold.Goldscore.Internal.Torsion>
-0.5672

> <Gold.Goldscore.External.Vdw>
19.2811

> <Gold.Goldscore.Internal.HBond>
0.0000

> <Gold.Goldscore.External.HBond>
7.1598

> <Gold.Goldscore.Internal.Correction>
-0.8073

> <Gold.Goldscore.Hbonds>
donor molecule, donor type, donor heavy atom, donor atom, acceptor molecule, acceptor atom, score
      P1  H 11455 11489       L1    11  0.54
      L1  H     8    22       P1 26832  0.01
      L1  H    10    23       P1 19001  1.00

> <Gold.Goldscore.Internal.Vdw.Weighted>
-1.0536

> <Gold.Goldscore.Internal.Torsion.Weighted>
-0.5672

> <Gold.Goldscore.External.Vdw.Weighted>
26.5115

> <Gold.Goldscore.Internal.HBond.Weighted>
0.0000

> <Gold.Goldscore.External.HBond.Weighted>
7.1598

> <Gold.Goldscore.Internal.Correction.Weighted>
-0.8073

> <Gold.Rescore>
     Score     S(PLP)   S(hbond)     S(cho)   S(metal)  DE(clash)   DE(tors)     intcor
     12.21      -8.31       1.85       0.00       0.00       0.11       0.77       ----

> <Gold.PLP.Fitness>
12.2069

> <Gold.PLP.PLP>
-8.3123

> <Gold.PLP.part.hbond>
-3.5248

> <Gold.PLP.part.metal>
0.0000

> <Gold.PLP.part.buried>
7.6301

> <Gold.PLP.part.nonpolar>
-14.8494

> <Gold.PLP.part.repulsive>
2.2483

> <Gold.PLP.ligand.clash>
0.1118

> <Gold.PLP.ligand.torsion>
0.7709

> <Gold.PLP.Chemscore.Hbond>
1.8494

> <Gold.PLP.Chemscore.CHOScore>
0.0000

> <Gold.PLP.Chemscore.Metal>
0.0000

> <Gold.Chemscore.Hbonds>
donor molecule, donor type, donor heavy atom, donor atom, acceptor molecule, acceptor atom, score
      L1  H    10    23       P1 19001  1.00
      P1  H 11455 11489       L1    11  0.68

> <Gold.PLP.Chemscore.Internal.Correction>
   9.000000E+99

#       Name:                CT1002167954
#       Creating user name   hitesit
#       Creation time:       Sun Apr 16 22:56:37 2023


#       File generated by GOLD software.
#

@<TRIPOS>MOLECULE
CT1002167954|ligand_prepared|mol2|1|dock5
    29    30     1
SMALL
NO_CHARGES


@<TRIPOS>ATOM
      1 C1         187.4331   9.7109  47.0190 C.3            1 RES1               0.0000
      2 C2         187.4321   8.5292  48.0102 C.ar           1 RES1               0.0000
      3 C3         186.9341  10.9242  47.7983 C.2            1 RES1               0.0000
      4 C4         188.8655   9.8424  46.5135 C.2            1 RES1               0.0000
      5 C5         186.5119   9.5005  45.7949 C.3            1 RES1               0.0000
      6 C6         186.2691   7.8015  48.2440 C.ar           1 RES1               0.0000
      7 C7         188.5849   8.1539  48.6949 C.ar           1 RES1               0.0000
      8 N8         187.8510  11.8713  48.1479 N.am           1 RES1               0.0000
      9 O9         185.7612  11.0290  48.1353 O.2            1 RES1               0.0000
     10 N10        189.5610  10.9764  46.8423 N.am           1 RES1               0.0000
     11 O11        189.4038   8.9667  45.8473 O.2            1 RES1               0.0000
     12 C12        186.7046  10.5351  44.6974 C.3            1 RES1               0.0000
     13 C13        186.2595   6.7354  49.1281 C.ar           1 RES1               0.0000
     14 C14        188.5730   7.0875  49.5787 C.ar           1 RES1               0.0000
     15 C15        189.1290  11.9829  47.6624 C.2            1 RES1               0.0000
     16 C16        187.4114   6.3774  49.7956 C.ar           1 RES1               0.0000
     17 O17        189.8332  12.9449  47.9553 O.2            1 RES1               0.0000
     18 H18        186.7011   8.5038  45.3777 H              1 RES1               0.0000
     19 H19        185.4676   9.5312  46.1295 H              1 RES1               0.0000
     20 H20        185.3524   8.0701  47.7297 H              1 RES1               0.0000
     21 H21        189.5100   8.6988  48.5407 H              1 RES1               0.0000
     22 H22        187.5593  12.5604  48.8339 H              1 RES1               0.0000
     23 H23        190.4864  11.0798  46.4383 H              1 RES1               0.0000
     24 H24        186.0344  10.3413  43.8626 H              1 RES1               0.0000
     25 H25        186.5000  11.5364  45.0709 H              1 RES1               0.0000
     26 H26        187.7263  10.5150  44.3236 H              1 RES1               0.0000
     27 H27        185.3424   6.1806  49.2963 H              1 RES1               0.0000
     28 H28        189.4818   6.8096  50.1023 H              1 RES1               0.0000
     29 H29        187.4037   5.5419  50.4878 H              1 RES1               0.0000
@<TRIPOS>BOND
    1    1    2 1     
    2    1    3 1     
    3    1    4 1     
    4    1    5 1     
    5    2    6 ar    
    6    2    7 ar    
    7    3    8 1     
    8    3    9 2     
    9    4   10 1     
   10    4   11 2     
   11    5   12 1     
   12    5   18 1     
   13    5   19 1     
   14    6   13 ar    
   15    6   20 1     
   16    7   14 ar    
   17    7   21 1     
   18    8   15 1     
   19    8   22 1     
   20   10   15 1     
   21   10   23 1     
   22   12   24 1     
   23   12   25 1     
   24   12   26 1     
   25   13   16 ar    
   26   13   27 1     
   27   14   16 ar    
   28   14   28 1     
   29   15   17 2     
   30   16   29 1     
@<TRIPOS>SUBSTRUCTURE
      1 RES1           1
@<TRIPOS>SET
DONOR_HYDROGENS      STATIC     ATOMS    <user>   **** ""
2 22 23
ATOM$RED        STATIC     ATOMS    COLORGROUP SYSTEM
2 22 23
@<TRIPOS>COMMENT
> <Gold.Version>
2022.3.0

> <Gold.Id.Protein>
unknown|4v3u_clean|pdb

> <Gold.Protein.RotatedTorsions>
[  549  517  516  515 ] final  166.24 input   59.99 | X-H torsion
[ 2542 2515 2516 2517 ] final   37.40 input  113.65 | X-H torsion
[ 2618 2585 2586 2587 ] final    0.02 input   46.31 | X-H torsion
[ 26064 26031 26030 26028 ] final   88.94 input   59.98 | X-H torsion
[ 27154 27102 27101 27097 ] final -174.78 input   60.00 | X-H torsion
[ 7430 7405 7406 7407 ] final   58.51 input   81.33 | X-H torsion
[ 7467 7446 7447 7448 ] final  175.97 input   92.53 | X-H torsion
[ 7519 7507 7508 7509 ] final  125.16 input   89.47 | X-H torsion
[ 17183 17168 17169 17170 ] final -158.21 input   55.70 | X-H torsion
[ 17231 17210 17211 17212 ] final  151.58 input  101.26 | X-H torsion
[ 18283 18265 18266 18267 ] final -174.72 input   32.88 | X-H torsion
[ 18322 18307 18308 18309 ] final -139.10 input   53.35 | X-H torsion
[ 18397 18345 18346 18347 ] final   -6.07 input   36.30 | X-H torsion
[ 18484 18439 18440 18441 ] final  -14.62 input   98.15 | X-H torsion
[ 18552 18519 18520 18521 ] final  148.97 input   94.34 | X-H torsion
[ 17291 17273 17274 17275 ] final   94.85 input   50.38 | X-H torsion
[ 18492 18450 18449 18447 ] final   10.32 input   59.99 | X-H torsion
[ 18223 18190 18191 18192 ] final   47.59 input   49.82 | X-H torsion
[ 18287 18270 18269 18266 ] final -157.15 input   60.01 | X-H torsion
[ 10108 10086 10085 10082 ] final  -59.02 input   60.00 | X-H torsion
[ 16975 16942 16941 16939 ] final   19.50 input   60.00 | X-H torsion
[ 11483 11448 11449 11450 ] final -135.66 input   47.08 | X-H torsion
[ 11550 11515 11516 11517 ] final -155.37 input  121.60 | X-H torsion
[ 11626 11591 11592 11593 ] final -118.13 input   57.19 | X-H torsion
[ 11428 11406 11405 11402 ] final -157.13 input   60.00 | X-H torsion
[ 27156 27104 27103 27101 ] final  -90.24 input   60.02 | X-H torsion
[ 10144 10124 10125 10126 ] final   31.49 input   16.22 | X-H torsion
[ 17343 17319 17320 17321 ] final   80.94 input   65.41 | X-H torsion
[ 27203 2518 2517 2516 ] final -160.77 input    0.00 | X-H torsion
[ 27224 7317 7316 7315 ] final  -32.43 input    0.00 | X-H torsion
[ 27227 7408 7407 7406 ] final   -2.93 input   -0.00 | X-H torsion
[ 27232 17117 17116 17115 ] final   83.64 input    0.00 | X-H torsion
[ 27236 18193 18192 18191 ] final  -95.22 input    0.00 | X-H torsion
[ 27239 18268 18267 18266 ] final  -55.67 input    0.00 | X-H torsion
[ 27242 18310 18309 18308 ] final -127.44 input   -0.00 | X-H torsion
[ 27245 18348 18347 18346 ] final  179.45 input    0.00 | X-H torsion
[ 27253 17171 17170 17169 ] final  -38.21 input   -0.00 | X-H torsion
[ 27255 17213 17212 17211 ] final -177.20 input    0.00 | X-H torsion
[ 27257 17042 17041 17040 ] final   21.15 input    0.00 | X-H torsion
[ 27267 10127 10126 10125 ] final  121.83 input   -0.00 | X-H torsion
[ 27269 11404 11403 11402 ] final   21.67 input    0.00 | X-H torsion
[ 27275 11594 11593 11592 ] final   93.33 input   -0.00 | X-H torsion
[ 27284 18675 18674 18673 ] final   67.15 input    0.00 | X-H torsion

> <Gold.Protein.ActiveResidues>
 LYS309  TRP311  MET341  HIS342  TRP414  ALA417  ARG419  CYS420  VAL421  GLY422 
 ARG423  SER462  ALA463  SER482  GLN483  LEU484  ILE485  ARG486  ALA502  TRP566 
 TYR567  LEU569  PRO570  ALA571  VAL572  SER573  ASN574  MET575  PHE589  SER590 
 GLY591  TRP592  TYR593  MET594  GLU597  ILE598  ARG601  ASP602  ASP605  ARG608 
 TRP683  HIS697  GLU699  TYR711  HEM750  H4B760 

> <Gold.Protein.RotatedAtoms>
  188.3423   24.3671   42.7275 H   0  0  0  0  0  0  0  0  0  0  0  0  # atno 549  bound_to 517 
  189.6978   24.2166   41.7861 H   0  0  0  0  0  0  0  0  0  0  0  0  # atno 550  bound_to 517 
  189.5303   23.2935   43.1518 H   0  0  0  0  0  0  0  0  0  0  0  0  # atno 551  bound_to 517 
  197.5533   20.0811   45.3584 H   0  0  0  0  0  0  0  0  0  0  0  0  # atno 2542 bound_to 2515
  197.6713   19.1503   43.8831 H   0  0  0  0  0  0  0  0  0  0  0  0  # atno 2618 bound_to 2585
  197.7706    5.8568   50.4721 H   0  0  0  0  0  0  0  0  0  0  0  0  # atno 7430 bound_to 7405
  195.8154    5.8778   53.5068 H   0  0  0  0  0  0  0  0  0  0  0  0  # atno 7467 bound_to 7446
  194.2547    3.1066   54.0662 H   0  0  0  0  0  0  0  0  0  0  0  0  # atno 7519 bound_to 7507
  189.2829   -3.3558   50.7544 H   0  0  0  0  0  0  0  0  0  0  0  0  # atno 10108 bound_to 10086
  187.4129   -3.9132   47.2157 H   0  0  0  0  0  0  0  0  0  0  0  0  # atno 10144 bound_to 10124
  182.4444   12.6970   43.0767 H   0  0  0  0  0  0  0  0  0  0  0  0  # atno 11428 bound_to 11406
  183.2464    8.7581   42.5518 H   0  0  0  0  0  0  0  0  0  0  0  0  # atno 11483 bound_to 11448
  181.7973    5.2974   42.7317 H   0  0  0  0  0  0  0  0  0  0  0  0  # atno 11550 bound_to 11515
  178.6446    4.8701   44.0542 H   0  0  0  0  0  0  0  0  0  0  0  0  # atno 11626 bound_to 11591
  179.8981    9.5694   50.0312 H   0  0  0  0  0  0  0  0  0  0  0  0  # atno 16975 bound_to 16942
  183.3704    2.8871   48.4522 H   0  0  0  0  0  0  0  0  0  0  0  0  # atno 17183 bound_to 17168
  186.0577    4.1946   46.2433 H   0  0  0  0  0  0  0  0  0  0  0  0  # atno 17231 bound_to 17210
  185.0178    6.1673   42.5835 H   0  0  0  0  0  0  0  0  0  0  0  0  # atno 17291 bound_to 17273
  186.6359    7.3163   40.9388 H   0  0  0  0  0  0  0  0  0  0  0  0  # atno 17343 bound_to 17319
  187.0619    1.7948   42.8585 H   0  0  0  0  0  0  0  0  0  0  0  0  # atno 18223 bound_to 18190
  186.5966   -0.0660   45.2865 H   0  0  0  0  0  0  0  0  0  0  0  0  # atno 18283 bound_to 18265
  183.7281   -2.1288   46.8534 H   0  0  0  0  0  0  0  0  0  0  0  0  # atno 18287 bound_to 18270
  187.2111   -0.8495   48.8139 H   0  0  0  0  0  0  0  0  0  0  0  0  # atno 18322 bound_to 18307
  187.5231    0.3186   52.8465 H   0  0  0  0  0  0  0  0  0  0  0  0  # atno 18397 bound_to 18345
  185.8946    1.2636   55.7868 H   0  0  0  0  0  0  0  0  0  0  0  0  # atno 18484 bound_to 18439
  182.7590    7.8350   51.7526 H   0  0  0  0  0  0  0  0  0  0  0  0  # atno 18492 bound_to 18450
  187.9021    4.0793   56.5456 H   0  0  0  0  0  0  0  0  0  0  0  0  # atno 18552 bound_to 18519
  194.4405   11.7296   45.4651 H   0  0  0  0  0  0  0  0  0  0  0  0  # atno 26064 bound_to 26031
  192.9385   20.8316   51.6046 H   0  0  0  0  0  0  0  0  0  0  0  0  # atno 27154 bound_to 27102
  196.9970   18.7949   51.3259 H   0  0  0  0  0  0  0  0  0  0  0  0  # atno 27156 bound_to 27104
  197.6098   19.6713   47.0546 LP  0  0  0  0  0  0  0  0  0  0  0  0  # atno 27202 bound_to 2515
  197.3854   15.9306   43.7096 LP  0  0  0  0  0  0  0  0  0  0  0  0  # atno 27203 bound_to 2518
  196.4310   15.8061   45.1496 LP  0  0  0  0  0  0  0  0  0  0  0  0  # atno 27204 bound_to 2518
  196.3340   18.0375   44.0321 LP  0  0  0  0  0  0  0  0  0  0  0  0  # atno 27205 bound_to 2585
  193.1641   12.7386   45.4759 LP  0  0  0  0  0  0  0  0  0  0  0  0  # atno 27209 bound_to 26031
  194.6827   13.3385   45.4493 LP  0  0  0  0  0  0  0  0  0  0  0  0  # atno 27210 bound_to 26031
  193.3348   19.9886   52.9385 LP  0  0  0  0  0  0  0  0  0  0  0  0  # atno 27213 bound_to 27102
  192.2641   19.3748   51.8692 LP  0  0  0  0  0  0  0  0  0  0  0  0  # atno 27214 bound_to 27102
  195.9788    8.8817   52.0190 LP  0  0  0  0  0  0  0  0  0  0  0  0  # atno 27224 bound_to 7317
  194.9345    7.5592   51.6184 LP  0  0  0  0  0  0  0  0  0  0  0  0  # atno 27225 bound_to 7317
  196.5903    7.1401   50.5318 LP  0  0  0  0  0  0  0  0  0  0  0  0  # atno 27226 bound_to 7405
  198.0534    4.0149   51.8842 LP  0  0  0  0  0  0  0  0  0  0  0  0  # atno 27227 bound_to 7408
  197.9078    3.8409   53.6013 LP  0  0  0  0  0  0  0  0  0  0  0  0  # atno 27228 bound_to 7408
  195.2543    4.2631   53.1310 LP  0  0  0  0  0  0  0  0  0  0  0  0  # atno 27229 bound_to 7446
  195.8091    2.6909   54.7445 LP  0  0  0  0  0  0  0  0  0  0  0  0  # atno 27230 bound_to 7507
  184.8383    1.4199   49.0003 LP  0  0  0  0  0  0  0  0  0  0  0  0  # atno 27232 bound_to 17117
  185.8197    2.8382   48.8411 LP  0  0  0  0  0  0  0  0  0  0  0  0  # atno 27233 bound_to 17117
  183.0143    4.3922   47.6449 LP  0  0  0  0  0  0  0  0  0  0  0  0  # atno 27234 bound_to 17168
  184.9958    3.6055   44.9803 LP  0  0  0  0  0  0  0  0  0  0  0  0  # atno 27235 bound_to 17210
  187.0115    2.1969   45.7474 LP  0  0  0  0  0  0  0  0  0  0  0  0  # atno 27236 bound_to 18193
  185.5511    1.6667   44.9818 LP  0  0  0  0  0  0  0  0  0  0  0  0  # atno 27237 bound_to 18193
  187.6182   -1.2732   46.0268 LP  0  0  0  0  0  0  0  0  0  0  0  0  # atno 27238 bound_to 18265
  186.9584   -2.8815   47.9763 LP  0  0  0  0  0  0  0  0  0  0  0  0  # atno 27239 bound_to 18268
  188.4743   -2.2991   48.5787 LP  0  0  0  0  0  0  0  0  0  0  0  0  # atno 27240 bound_to 18268
  186.5531    0.4544   49.7761 LP  0  0  0  0  0  0  0  0  0  0  0  0  # atno 27241 bound_to 18307
  184.4900   -0.7543   51.8644 LP  0  0  0  0  0  0  0  0  0  0  0  0  # atno 27242 bound_to 18310
  185.1449   -2.3050   51.4562 LP  0  0  0  0  0  0  0  0  0  0  0  0  # atno 27243 bound_to 18310
  186.6994   -1.2089   52.6327 LP  0  0  0  0  0  0  0  0  0  0  0  0  # atno 27244 bound_to 18345
  187.5949    2.7599   54.9050 LP  0  0  0  0  0  0  0  0  0  0  0  0  # atno 27245 bound_to 18348
  187.9968    1.3839   53.9329 LP  0  0  0  0  0  0  0  0  0  0  0  0  # atno 27246 bound_to 18348
  184.5788    1.8176   54.7764 LP  0  0  0  0  0  0  0  0  0  0  0  0  # atno 27247 bound_to 18439
  186.2635    4.4044   57.0626 LP  0  0  0  0  0  0  0  0  0  0  0  0  # atno 27248 bound_to 18519
  182.7079    4.3148   44.5608 LP  0  0  0  0  0  0  0  0  0  0  0  0  # atno 27253 bound_to 17171
  183.6840    5.7288   44.7797 LP  0  0  0  0  0  0  0  0  0  0  0  0  # atno 27254 bound_to 17171
  186.6939    3.3996   41.6324 LP  0  0  0  0  0  0  0  0  0  0  0  0  # atno 27255 bound_to 17213
  187.0850    3.0639   43.2860 LP  0  0  0  0  0  0  0  0  0  0  0  0  # atno 27256 bound_to 17213
  179.5251    3.0637   49.3910 LP  0  0  0  0  0  0  0  0  0  0  0  0  # atno 27257 bound_to 17042
  181.0633    3.6059   48.8081 LP  0  0  0  0  0  0  0  0  0  0  0  0  # atno 27258 bound_to 17042
  186.5565    5.3534   42.4558 LP  0  0  0  0  0  0  0  0  0  0  0  0  # atno 27259 bound_to 17273
  181.3113    7.8553   52.4952 LP  0  0  0  0  0  0  0  0  0  0  0  0  # atno 27260 bound_to 18450
  181.6477    6.7040   51.3871 LP  0  0  0  0  0  0  0  0  0  0  0  0  # atno 27261 bound_to 18450
  186.8600    0.3608   41.8774 LP  0  0  0  0  0  0  0  0  0  0  0  0  # atno 27262 bound_to 18190
  184.7408   -2.4495   48.0856 LP  0  0  0  0  0  0  0  0  0  0  0  0  # atno 27263 bound_to 18270
  185.3188   -2.3109   46.5646 LP  0  0  0  0  0  0  0  0  0  0  0  0  # atno 27264 bound_to 18270
  190.6021   -4.2340   51.1250 LP  0  0  0  0  0  0  0  0  0  0  0  0  # atno 27265 bound_to 10086
  189.1325   -4.6938   51.6686 LP  0  0  0  0  0  0  0  0  0  0  0  0  # atno 27266 bound_to 10086
  188.2987   -2.4709   44.8116 LP  0  0  0  0  0  0  0  0  0  0  0  0  # atno 27267 bound_to 10127
  186.6570   -2.8092   45.2476 LP  0  0  0  0  0  0  0  0  0  0  0  0  # atno 27268 bound_to 10127
  185.4337    8.6844   42.4122 LP  0  0  0  0  0  0  0  0  0  0  0  0  # atno 27269 bound_to 11404
  184.5352    7.3001   42.9380 LP  0  0  0  0  0  0  0  0  0  0  0  0  # atno 27270 bound_to 11404
  180.3858    8.5929   48.8246 LP  0  0  0  0  0  0  0  0  0  0  0  0  # atno 27271 bound_to 16942
  181.0861    8.4898   50.2962 LP  0  0  0  0  0  0  0  0  0  0  0  0  # atno 27272 bound_to 16942
  181.5402    9.0598   42.7744 LP  0  0  0  0  0  0  0  0  0  0  0  0  # atno 27273 bound_to 11448
  181.0530    5.6022   44.2840 LP  0  0  0  0  0  0  0  0  0  0  0  0  # atno 27274 bound_to 11515
  179.6130    7.3848   47.0119 LP  0  0  0  0  0  0  0  0  0  0  0  0  # atno 27275 bound_to 11594
  178.5316    6.8865   48.2698 LP  0  0  0  0  0  0  0  0  0  0  0  0  # atno 27276 bound_to 11594
  179.6892    4.9587   45.4524 LP  0  0  0  0  0  0  0  0  0  0  0  0  # atno 27277 bound_to 11591
  182.5548   11.2524   43.8173 LP  0  0  0  0  0  0  0  0  0  0  0  0  # atno 27282 bound_to 11406
  181.6443   11.4159   42.4717 LP  0  0  0  0  0  0  0  0  0  0  0  0  # atno 27283 bound_to 11406
  184.4439   11.7339   54.6738 LP  0  0  0  0  0  0  0  0  0  0  0  0  # atno 27284 bound_to 18675
  184.1767   12.6727   56.1047 LP  0  0  0  0  0  0  0  0  0  0  0  0  # atno 27285 bound_to 18675

> <Gold.Score>
     Fitness  S(hb_ext) S(vdw_ext)  S(hb_int)    S(int)      intcor
     31.71       2.94      21.48       0.00      -0.76      -0.80

> <Gold.Goldscore.Fitness>
31.7137

> <Gold.Goldscore.Internal.Vdw>
-1.0190

> <Gold.Goldscore.Internal.Torsion>
-0.5442

> <Gold.Goldscore.External.Vdw>
21.4813

> <Gold.Goldscore.Internal.HBond>
0.0000

> <Gold.Goldscore.External.HBond>
2.9399

> <Gold.Goldscore.Internal.Correction>
-0.8003

> <Gold.Goldscore.Hbonds>
donor molecule, donor type, donor heavy atom, donor atom, acceptor molecule, acceptor atom, score
      L1  H    10    23       P1 26833  0.49

> <Gold.Goldscore.Internal.Vdw.Weighted>
-1.0190

> <Gold.Goldscore.Internal.Torsion.Weighted>
-0.5442

> <Gold.Goldscore.External.Vdw.Weighted>
29.5367

> <Gold.Goldscore.Internal.HBond.Weighted>
0.0000

> <Gold.Goldscore.External.HBond.Weighted>
2.9399

> <Gold.Goldscore.Internal.Correction.Weighted>
-0.8003

> <Gold.Rescore>
     Score     S(PLP)   S(hbond)     S(cho)   S(metal)  DE(clash)   DE(tors)     intcor
     29.49     -29.70       0.51       0.00       0.00       0.87       0.44       ----

> <Gold.PLP.Fitness>
29.4876

> <Gold.PLP.PLP>
-29.7006

> <Gold.PLP.part.hbond>
-2.3307

> <Gold.PLP.part.metal>
0.0000

> <Gold.PLP.part.buried>
-2.0388

> <Gold.PLP.part.nonpolar>
-27.9874

> <Gold.PLP.part.repulsive>
2.5893

> <Gold.PLP.ligand.clash>
0.8677

> <Gold.PLP.ligand.torsion>
0.4406

> <Gold.PLP.Chemscore.Hbond>
0.5120

> <Gold.PLP.Chemscore.CHOScore>
0.0000

> <Gold.PLP.Chemscore.Metal>
0.0000

> <Gold.Chemscore.Hbonds>
donor molecule, donor type, donor heavy atom, donor atom, acceptor molecule, acceptor atom, score
      L1  H    10    23       P1 26833  0.41
      P1  H 11455 11490       L1     9  0.01

> <Gold.PLP.Chemscore.Internal.Correction>
   9.000000E+99

#       Name:                CT1002167954
#       Creating user name   hitesit
#       Creation time:       Sun Apr 16 22:56:40 2023


#       File generated by GOLD software.
#

@<TRIPOS>MOLECULE
CT1002167954|ligand_prepared|mol2|1|dock9
    29    30     1
SMALL
NO_CHARGES


@<TRIPOS>ATOM
      1 C1         186.9917  12.3104  49.1822 C.3            1 RES1               0.0000
      2 C2         187.3732  10.8162  49.1559 C.ar           1 RES1               0.0000
      3 C3         185.9229  12.4607  50.2608 C.2            1 RES1               0.0000
      4 C4         188.2792  13.0743  49.4713 C.2            1 RES1               0.0000
      5 C5         186.4167  12.8321  47.8448 C.3            1 RES1               0.0000
      6 C6         188.2414  10.3235  48.1862 C.ar           1 RES1               0.0000
      7 C7         186.8681   9.9205  50.0945 C.ar           1 RES1               0.0000
      8 N8         186.2884  13.0512  51.4345 N.am           1 RES1               0.0000
      9 O9         184.7870  12.0321  50.0989 O.2            1 RES1               0.0000
     10 N10        188.3691  13.7556  50.6569 N.am           1 RES1               0.0000
     11 O11        189.2229  13.0788  48.6906 O.2            1 RES1               0.0000
     12 C12        186.0086  14.2964  47.8825 C.3            1 RES1               0.0000
     13 C13        188.5942   8.9844  48.1577 C.ar           1 RES1               0.0000
     14 C14        187.2220   8.5817  50.0640 C.ar           1 RES1               0.0000
     15 C15        187.4440  13.7534  51.6651 C.2            1 RES1               0.0000
     16 C16        188.0851   8.1128  49.0967 C.ar           1 RES1               0.0000
     17 O17        187.6205  14.3468  52.7253 O.2            1 RES1               0.0000
     18 H18        187.1702  12.6956  47.0593 H              1 RES1               0.0000
     19 H19        185.5407  12.2282  47.5776 H              1 RES1               0.0000
     20 H20        188.6501  10.9939  47.4375 H              1 RES1               0.0000
     21 H21        186.1866  10.2668  50.8641 H              1 RES1               0.0000
     22 H22        185.6429  12.9624  52.2128 H              1 RES1               0.0000
     23 H23        189.2028  14.3163  50.8011 H              1 RES1               0.0000
     24 H24        185.6120  14.6112  46.9195 H              1 RES1               0.0000
     25 H25        185.2417  14.4638  48.6359 H              1 RES1               0.0000
     26 H26        186.8615  14.9285  48.1207 H              1 RES1               0.0000
     27 H27        189.2728   8.6202  47.3934 H              1 RES1               0.0000
     28 H28        186.8184   7.8991  50.8047 H              1 RES1               0.0000
     29 H29        188.3620   7.0640  49.0743 H              1 RES1               0.0000
@<TRIPOS>BOND
    1    1    2 1     
    2    1    3 1     
    3    1    4 1     
    4    1    5 1     
    5    2    6 ar    
    6    2    7 ar    
    7    3    8 1     
    8    3    9 2     
    9    4   10 1     
   10    4   11 2     
   11    5   12 1     
   12    5   18 1     
   13    5   19 1     
   14    6   13 ar    
   15    6   20 1     
   16    7   14 ar    
   17    7   21 1     
   18    8   15 1     
   19    8   22 1     
   20   10   15 1     
   21   10   23 1     
   22   12   24 1     
   23   12   25 1     
   24   12   26 1     
   25   13   16 ar    
   26   13   27 1     
   27   14   16 ar    
   28   14   28 1     
   29   15   17 2     
   30   16   29 1     
@<TRIPOS>SUBSTRUCTURE
      1 RES1           1
@<TRIPOS>SET
DONOR_HYDROGENS      STATIC     ATOMS    <user>   **** ""
2 22 23
ATOM$RED        STATIC     ATOMS    COLORGROUP SYSTEM
2 22 23
@<TRIPOS>COMMENT
> <Gold.Version>
2022.3.0

> <Gold.Id.Protein>
unknown|4v3u_clean|pdb

> <Gold.Protein.RotatedTorsions>
[  549  517  516  515 ] final  -55.52 input   59.99 | X-H torsion
[ 2542 2515 2516 2517 ] final -130.77 input  113.65 | X-H torsion
[ 2618 2585 2586 2587 ] final  150.54 input   46.31 | X-H torsion
[ 26064 26031 26030 26028 ] final   23.46 input   59.98 | X-H torsion
[ 27154 27102 27101 27097 ] final   81.24 input   60.00 | X-H torsion
[ 7430 7405 7406 7407 ] final   96.87 input   81.33 | X-H torsion
[ 7467 7446 7447 7448 ] final -122.06 input   92.53 | X-H torsion
[ 7519 7507 7508 7509 ] final    5.59 input   89.47 | X-H torsion
[ 17183 17168 17169 17170 ] final  138.15 input   55.70 | X-H torsion
[ 17231 17210 17211 17212 ] final  -23.08 input  101.26 | X-H torsion
[ 18283 18265 18266 18267 ] final    4.62 input   32.88 | X-H torsion
[ 18322 18307 18308 18309 ] final  175.46 input   53.35 | X-H torsion
[ 18397 18345 18346 18347 ] final  160.22 input   36.30 | X-H torsion
[ 18484 18439 18440 18441 ] final   16.82 input   98.15 | X-H torsion
[ 18552 18519 18520 18521 ] final -125.42 input   94.34 | X-H torsion
[ 17291 17273 17274 17275 ] final   91.38 input   50.38 | X-H torsion
[ 18492 18450 18449 18447 ] final   28.18 input   59.99 | X-H torsion
[ 18223 18190 18191 18192 ] final  158.32 input   49.82 | X-H torsion
[ 18287 18270 18269 18266 ] final   36.37 input   60.01 | X-H torsion
[ 10108 10086 10085 10082 ] final  176.89 input   60.00 | X-H torsion
[ 16975 16942 16941 16939 ] final   46.41 input   60.00 | X-H torsion
[ 11483 11448 11449 11450 ] final   14.88 input   47.08 | X-H torsion
[ 11550 11515 11516 11517 ] final  -20.30 input  121.60 | X-H torsion
[ 11626 11591 11592 11593 ] final    8.53 input   57.19 | X-H torsion
[ 11428 11406 11405 11402 ] final  -55.22 input   60.00 | X-H torsion
[ 27156 27104 27103 27101 ] final -156.55 input   60.02 | X-H torsion
[ 10144 10124 10125 10126 ] final  130.01 input   16.22 | X-H torsion
[ 17343 17319 17320 17321 ] final -138.58 input   65.41 | X-H torsion
[ 27203 2518 2517 2516 ] final -164.53 input    0.00 | X-H torsion
[ 27224 7317 7316 7315 ] final  112.47 input    0.00 | X-H torsion
[ 27227 7408 7407 7406 ] final -171.72 input   -0.00 | X-H torsion
[ 27232 17117 17116 17115 ] final  129.03 input    0.00 | X-H torsion
[ 27236 18193 18192 18191 ] final  162.85 input    0.00 | X-H torsion
[ 27239 18268 18267 18266 ] final  -48.03 input    0.00 | X-H torsion
[ 27242 18310 18309 18308 ] final -145.59 input   -0.00 | X-H torsion
[ 27245 18348 18347 18346 ] final  100.70 input    0.00 | X-H torsion
[ 27253 17171 17170 17169 ] final   31.56 input   -0.00 | X-H torsion
[ 27255 17213 17212 17211 ] final  -80.86 input    0.00 | X-H torsion
[ 27257 17042 17041 17040 ] final   94.79 input    0.00 | X-H torsion
[ 27267 10127 10126 10125 ] final  139.44 input   -0.00 | X-H torsion
[ 27269 11404 11403 11402 ] final   72.06 input    0.00 | X-H torsion
[ 27275 11594 11593 11592 ] final   76.76 input   -0.00 | X-H torsion
[ 27284 18675 18674 18673 ] final  165.62 input    0.00 | X-H torsion

> <Gold.Protein.ActiveResidues>
 LYS309  TRP311  MET341  HIS342  TRP414  ALA417  ARG419  CYS420  VAL421  GLY422 
 ARG423  SER462  ALA463  SER482  GLN483  LEU484  ILE485  ARG486  ALA502  TRP566 
 TYR567  LEU569  PRO570  ALA571  VAL572  SER573  ASN574  MET575  PHE589  SER590 
 GLY591  TRP592  TYR593  MET594  GLU597  ILE598  ARG601  ASP602  ASP605  ARG608 
 TRP683  HIS697  GLU699  TYR711  HEM750  H4B760 

> <Gold.Protein.RotatedAtoms>
  189.8870   24.0100   41.9018 H   0  0  0  0  0  0  0  0  0  0  0  0  # atno 549  bound_to 517 
  189.2684   23.3534   43.2921 H   0  0  0  0  0  0  0  0  0  0  0  0  # atno 550  bound_to 517 
  188.4153   24.5132   42.4720 H   0  0  0  0  0  0  0  0  0  0  0  0  # atno 551  bound_to 517 
  197.7620   19.5790   47.0239 H   0  0  0  0  0  0  0  0  0  0  0  0  # atno 2542 bound_to 2515
  196.1466   18.3895   43.8354 H   0  0  0  0  0  0  0  0  0  0  0  0  # atno 2618 bound_to 2585
  197.4522    5.8439   49.9913 H   0  0  0  0  0  0  0  0  0  0  0  0  # atno 7430 bound_to 7405
  196.3758    5.2600   53.1294 H   0  0  0  0  0  0  0  0  0  0  0  0  # atno 7467 bound_to 7446
  195.6816    2.6076   53.8790 H   0  0  0  0  0  0  0  0  0  0  0  0  # atno 7519 bound_to 7507
  190.5871   -4.2887   51.1615 H   0  0  0  0  0  0  0  0  0  0  0  0  # atno 10108 bound_to 10086
  186.9397   -5.0583   47.7059 H   0  0  0  0  0  0  0  0  0  0  0  0  # atno 10144 bound_to 10124
  181.6583   11.6950   42.3755 H   0  0  0  0  0  0  0  0  0  0  0  0  # atno 11428 bound_to 11406
  181.5456    8.8189   42.4009 H   0  0  0  0  0  0  0  0  0  0  0  0  # atno 11483 bound_to 11448
  180.8629    6.0607   43.8364 H   0  0  0  0  0  0  0  0  0  0  0  0  # atno 11550 bound_to 11515
  179.6238    5.6226   45.0394 H   0  0  0  0  0  0  0  0  0  0  0  0  # atno 11626 bound_to 11591
  180.1399    9.4685   50.3790 H   0  0  0  0  0  0  0  0  0  0  0  0  # atno 16975 bound_to 16942
  182.5671    3.0275   48.0124 H   0  0  0  0  0  0  0  0  0  0  0  0  # atno 17183 bound_to 17168
  185.0473    3.5609   44.9167 H   0  0  0  0  0  0  0  0  0  0  0  0  # atno 17231 bound_to 17210
  185.0409    6.2106   42.5627 H   0  0  0  0  0  0  0  0  0  0  0  0  # atno 17291 bound_to 17273
  185.7555    6.5238   39.7772 H   0  0  0  0  0  0  0  0  0  0  0  0  # atno 17343 bound_to 17319
  187.6995    0.8934   41.9021 H   0  0  0  0  0  0  0  0  0  0  0  0  # atno 18223 bound_to 18190
  187.6357   -1.2778   46.0334 H   0  0  0  0  0  0  0  0  0  0  0  0  # atno 18283 bound_to 18265
  185.3584   -2.4736   47.6764 H   0  0  0  0  0  0  0  0  0  0  0  0  # atno 18287 bound_to 18270
  187.6612   -0.3433   48.9167 H   0  0  0  0  0  0  0  0  0  0  0  0  # atno 18322 bound_to 18307
  186.8089   -1.2890   52.7935 H   0  0  0  0  0  0  0  0  0  0  0  0  # atno 18397 bound_to 18345
  185.4974    1.2174   56.0533 H   0  0  0  0  0  0  0  0  0  0  0  0  # atno 18484 bound_to 18439
  182.7772    7.6146   51.5638 H   0  0  0  0  0  0  0  0  0  0  0  0  # atno 18492 bound_to 18450
  187.0969    3.4345   57.1675 H   0  0  0  0  0  0  0  0  0  0  0  0  # atno 18552 bound_to 18519
  193.4473   11.9261   45.4769 H   0  0  0  0  0  0  0  0  0  0  0  0  # atno 26064 bound_to 26031
  193.4207   20.2225   52.8582 H   0  0  0  0  0  0  0  0  0  0  0  0  # atno 27154 bound_to 27102
  197.4140   19.7094   51.1323 H   0  0  0  0  0  0  0  0  0  0  0  0  # atno 27156 bound_to 27104
  197.4048   20.1646   45.4185 LP  0  0  0  0  0  0  0  0  0  0  0  0  # atno 27202 bound_to 2515
  197.3370   15.9309   43.6798 LP  0  0  0  0  0  0  0  0  0  0  0  0  # atno 27203 bound_to 2518
  196.4794   15.8057   45.1794 LP  0  0  0  0  0  0  0  0  0  0  0  0  # atno 27204 bound_to 2518
  197.8300   18.7840   44.0789 LP  0  0  0  0  0  0  0  0  0  0  0  0  # atno 27205 bound_to 2585
  193.8355   13.5060   45.4594 LP  0  0  0  0  0  0  0  0  0  0  0  0  # atno 27209 bound_to 26031
  195.0116   12.3731   45.4539 LP  0  0  0  0  0  0  0  0  0  0  0  0  # atno 27210 bound_to 26031
  192.3500   19.2663   52.0925 LP  0  0  0  0  0  0  0  0  0  0  0  0  # atno 27213 bound_to 27102
  192.7632   20.7106   51.4524 LP  0  0  0  0  0  0  0  0  0  0  0  0  # atno 27214 bound_to 27102
  194.8677    7.9283   51.2550 LP  0  0  0  0  0  0  0  0  0  0  0  0  # atno 27224 bound_to 7317
  196.0456    8.5127   52.3824 LP  0  0  0  0  0  0  0  0  0  0  0  0  # atno 27225 bound_to 7317
  196.9046    7.1528   51.0064 LP  0  0  0  0  0  0  0  0  0  0  0  0  # atno 27226 bound_to 7405
  197.8315    3.6947   53.5633 LP  0  0  0  0  0  0  0  0  0  0  0  0  # atno 27227 bound_to 7408
  198.1297    4.1610   51.9221 LP  0  0  0  0  0  0  0  0  0  0  0  0  # atno 27228 bound_to 7408
  194.7115    4.8614   53.4966 LP  0  0  0  0  0  0  0  0  0  0  0  0  # atno 27229 bound_to 7446
  194.4088    3.1806   54.9282 LP  0  0  0  0  0  0  0  0  0  0  0  0  # atno 27230 bound_to 7507
  184.9895    1.5587   48.3643 LP  0  0  0  0  0  0  0  0  0  0  0  0  # atno 27232 bound_to 17117
  185.6684    2.6994   49.4770 LP  0  0  0  0  0  0  0  0  0  0  0  0  # atno 27233 bound_to 17117
  183.8062    4.2538   48.0785 LP  0  0  0  0  0  0  0  0  0  0  0  0  # atno 27234 bound_to 17168
  185.9677    4.2151   46.2563 LP  0  0  0  0  0  0  0  0  0  0  0  0  # atno 27235 bound_to 17210
  185.8199    1.6446   46.0388 LP  0  0  0  0  0  0  0  0  0  0  0  0  # atno 27236 bound_to 18193
  186.7427    2.2190   44.6903 LP  0  0  0  0  0  0  0  0  0  0  0  0  # atno 27237 bound_to 18193
  186.5983   -0.0837   45.2937 LP  0  0  0  0  0  0  0  0  0  0  0  0  # atno 27238 bound_to 18265
  186.9953   -2.8472   47.8725 LP  0  0  0  0  0  0  0  0  0  0  0  0  # atno 27239 bound_to 18268
  188.4375   -2.3334   48.6825 LP  0  0  0  0  0  0  0  0  0  0  0  0  # atno 27240 bound_to 18268
  186.1156   -0.0376   49.6762 LP  0  0  0  0  0  0  0  0  0  0  0  0  # atno 27241 bound_to 18307
  184.4873   -0.8688   52.1124 LP  0  0  0  0  0  0  0  0  0  0  0  0  # atno 27242 bound_to 18310
  185.1476   -2.1904   51.2082 LP  0  0  0  0  0  0  0  0  0  0  0  0  # atno 27243 bound_to 18310
  187.3942    0.3551   52.6842 LP  0  0  0  0  0  0  0  0  0  0  0  0  # atno 27244 bound_to 18345
  187.4735    2.6113   53.8230 LP  0  0  0  0  0  0  0  0  0  0  0  0  # atno 27245 bound_to 18348
  188.1183    1.5325   55.0148 LP  0  0  0  0  0  0  0  0  0  0  0  0  # atno 27246 bound_to 18348
  184.9648    1.8624   54.5173 LP  0  0  0  0  0  0  0  0  0  0  0  0  # atno 27247 bound_to 18439
  187.0469    5.0318   56.4575 LP  0  0  0  0  0  0  0  0  0  0  0  0  # atno 27248 bound_to 18519
  182.6657    4.9163   45.3469 LP  0  0  0  0  0  0  0  0  0  0  0  0  # atno 27253 bound_to 17171
  183.7261    5.1274   43.9937 LP  0  0  0  0  0  0  0  0  0  0  0  0  # atno 27254 bound_to 17171
  187.6828    3.5787   42.4421 LP  0  0  0  0  0  0  0  0  0  0  0  0  # atno 27255 bound_to 17213
  186.0961    2.8849   42.4762 LP  0  0  0  0  0  0  0  0  0  0  0  0  # atno 27256 bound_to 17213
  180.0738    3.8718   49.7423 LP  0  0  0  0  0  0  0  0  0  0  0  0  # atno 27257 bound_to 17042
  180.5146    2.7979   48.4568 LP  0  0  0  0  0  0  0  0  0  0  0  0  # atno 27258 bound_to 17042
  186.5339    5.3108   42.4763 LP  0  0  0  0  0  0  0  0  0  0  0  0  # atno 27259 bound_to 17273
  181.5377    8.0376   52.5296 LP  0  0  0  0  0  0  0  0  0  0  0  0  # atno 27260 bound_to 18450
  181.4029    6.7435   51.5428 LP  0  0  0  0  0  0  0  0  0  0  0  0  # atno 27261 bound_to 18450
  186.2413    1.2355   42.8055 LP  0  0  0  0  0  0  0  0  0  0  0  0  # atno 27262 bound_to 18190
  184.6662   -2.1729   46.2352 LP  0  0  0  0  0  0  0  0  0  0  0  0  # atno 27263 bound_to 18270
  183.7509   -2.2402   47.5859 LP  0  0  0  0  0  0  0  0  0  0  0  0  # atno 27264 bound_to 18270
  189.0793   -4.6557   51.6520 LP  0  0  0  0  0  0  0  0  0  0  0  0  # atno 27265 bound_to 10086
  189.3421   -3.3326   50.7318 LP  0  0  0  0  0  0  0  0  0  0  0  0  # atno 27266 bound_to 10086
  188.1851   -2.4315   44.5753 LP  0  0  0  0  0  0  0  0  0  0  0  0  # atno 27267 bound_to 10127
  186.7707   -2.8486   45.4839 LP  0  0  0  0  0  0  0  0  0  0  0  0  # atno 27268 bound_to 10127
  185.2781    8.6663   43.1328 LP  0  0  0  0  0  0  0  0  0  0  0  0  # atno 27269 bound_to 11404
  184.6908    7.3183   42.2175 LP  0  0  0  0  0  0  0  0  0  0  0  0  # atno 27270 bound_to 11404
  180.0822    8.9085   48.8525 LP  0  0  0  0  0  0  0  0  0  0  0  0  # atno 27271 bound_to 16942
  181.1460    8.2759   49.9179 LP  0  0  0  0  0  0  0  0  0  0  0  0  # atno 27272 bound_to 16942
  183.2032    9.0003   42.9220 LP  0  0  0  0  0  0  0  0  0  0  0  0  # atno 27273 bound_to 11448
  181.9643    4.8578   43.2067 LP  0  0  0  0  0  0  0  0  0  0  0  0  # atno 27274 bound_to 11515
  179.6684    7.1415   47.0127 LP  0  0  0  0  0  0  0  0  0  0  0  0  # atno 27275 bound_to 11594
  178.4761    7.1297   48.2690 LP  0  0  0  0  0  0  0  0  0  0  0  0  # atno 27276 bound_to 11594
  178.7324    4.2234   44.4898 LP  0  0  0  0  0  0  0  0  0  0  0  0  # atno 27277 bound_to 11591
  182.5966   12.6296   43.3210 LP  0  0  0  0  0  0  0  0  0  0  0  0  # atno 27282 bound_to 11406
  182.3946   11.0481   43.6744 LP  0  0  0  0  0  0  0  0  0  0  0  0  # atno 27283 bound_to 11406
  183.4695   12.0286   55.5013 LP  0  0  0  0  0  0  0  0  0  0  0  0  # atno 27284 bound_to 18675
  185.1511   12.3781   55.2773 LP  0  0  0  0  0  0  0  0  0  0  0  0  # atno 27285 bound_to 18675

> <Gold.Score>
     Fitness  S(hb_ext) S(vdw_ext)  S(hb_int)    S(int)      intcor
     29.66       6.00      18.69       0.00      -2.03      -0.76

> <Gold.Goldscore.Fitness>
29.6625

> <Gold.Goldscore.Internal.Vdw>
-2.4187

> <Gold.Goldscore.Internal.Torsion>
-0.3715

> <Gold.Goldscore.External.Vdw>
18.6867

> <Gold.Goldscore.Internal.HBond>
0.0000

> <Gold.Goldscore.External.HBond>
6.0000

> <Gold.Goldscore.Internal.Correction>
-0.7585

> <Gold.Goldscore.Hbonds>
donor molecule, donor type, donor heavy atom, donor atom, acceptor molecule, acceptor atom, score
      L1  H    10    23       P1 27095  1.00

> <Gold.Goldscore.Internal.Vdw.Weighted>
-2.4187

> <Gold.Goldscore.Internal.Torsion.Weighted>
-0.3715

> <Gold.Goldscore.External.Vdw.Weighted>
25.6942

> <Gold.Goldscore.Internal.HBond.Weighted>
0.0000

> <Gold.Goldscore.External.HBond.Weighted>
6.0000

> <Gold.Goldscore.Internal.Correction.Weighted>
-0.7585

> <Gold.Rescore>
     Score     S(PLP)   S(hbond)     S(cho)   S(metal)  DE(clash)   DE(tors)     intcor
     19.01     -18.62       0.59       0.00       0.00       1.34       0.02       ----

> <Gold.PLP.Fitness>
19.0141

> <Gold.PLP.PLP>
-18.6197

> <Gold.PLP.part.hbond>
-3.1944

> <Gold.PLP.part.metal>
0.0000

> <Gold.PLP.part.buried>
-4.0723

> <Gold.PLP.part.nonpolar>
-12.9826

> <Gold.PLP.part.repulsive>
0.4514

> <Gold.PLP.ligand.clash>
1.3449

> <Gold.PLP.ligand.torsion>
0.0226

> <Gold.PLP.Chemscore.Hbond>
0.5949

> <Gold.PLP.Chemscore.CHOScore>
0.0000

> <Gold.PLP.Chemscore.Metal>
0.0000

> <Gold.Chemscore.Hbonds>
donor molecule, donor type, donor heavy atom, donor atom, acceptor molecule, acceptor atom, score
      L1  H    10    23       P1 27095  0.70

> <Gold.PLP.Chemscore.Internal.Correction>
   9.000000E+99

#       Name:                CT1002167954
#       Creating user name   hitesit
#       Creation time:       Sun Apr 16 22:56:38 2023


#       File generated by GOLD software.
#

@<TRIPOS>MOLECULE
CT1002167954|ligand_prepared|mol2|1|dock6
    29    30     1
SMALL
NO_CHARGES


@<TRIPOS>ATOM
      1 C1         186.9621  13.3573  49.2832 C.3            1 RES1               0.0000
      2 C2         187.2936  12.1905  48.3306 C.ar           1 RES1               0.0000
      3 C3         186.3333  12.7315  50.5246 C.2            1 RES1               0.0000
      4 C4         188.2790  14.0783  49.5490 C.2            1 RES1               0.0000
      5 C5         185.9667  14.3828  48.6923 C.3            1 RES1               0.0000
      6 C6         186.2786  11.5054  47.6693 C.ar           1 RES1               0.0000
      7 C7         188.6072  11.7902  48.1013 C.ar           1 RES1               0.0000
      8 N8         187.0885  12.6828  51.6592 N.am           1 RES1               0.0000
      9 O9         185.2064  12.2522  50.4976 O.2            1 RES1               0.0000
     10 N10        188.7807  14.0497  50.8238 N.am           1 RES1               0.0000
     11 O11        188.8951  14.6568  48.6624 O.2            1 RES1               0.0000
     12 C12        185.8267  15.6495  49.5219 C.3            1 RES1               0.0000
     13 C13        186.5666  10.4599  46.8077 C.ar           1 RES1               0.0000
     14 C14        188.8931  10.7442  47.2395 C.ar           1 RES1               0.0000
     15 C15        188.2607  13.3587  51.8842 C.2            1 RES1               0.0000
     16 C16        187.8739  10.0789  46.5919 C.ar           1 RES1               0.0000
     17 O17        188.7993  13.3373  52.9872 O.2            1 RES1               0.0000
     18 H18        186.2991  14.6565  47.6833 H              1 RES1               0.0000
     19 H19        184.9817  13.9082  48.6037 H              1 RES1               0.0000
     20 H20        185.2437  11.7895  47.8285 H              1 RES1               0.0000
     21 H21        189.4251  12.2984  48.6008 H              1 RES1               0.0000
     22 H22        186.7504  12.0889  52.4097 H              1 RES1               0.0000
     23 H23        189.6194  14.5942  50.9986 H              1 RES1               0.0000
     24 H24        185.1169  16.3346  49.0630 H              1 RES1               0.0000
     25 H25        185.4736  15.4169  50.5244 H              1 RES1               0.0000
     26 H26        186.7831  16.1608  49.6095 H              1 RES1               0.0000
     27 H27        185.7608   9.9386  46.3016 H              1 RES1               0.0000
     28 H28        189.9233  10.4473  47.0732 H              1 RES1               0.0000
     29 H29        188.0993   9.2601  45.9167 H              1 RES1               0.0000
@<TRIPOS>BOND
    1    1    2 1     
    2    1    3 1     
    3    1    4 1     
    4    1    5 1     
    5    2    6 ar    
    6    2    7 ar    
    7    3    8 1     
    8    3    9 2     
    9    4   10 1     
   10    4   11 2     
   11    5   12 1     
   12    5   18 1     
   13    5   19 1     
   14    6   13 ar    
   15    6   20 1     
   16    7   14 ar    
   17    7   21 1     
   18    8   15 1     
   19    8   22 1     
   20   10   15 1     
   21   10   23 1     
   22   12   24 1     
   23   12   25 1     
   24   12   26 1     
   25   13   16 ar    
   26   13   27 1     
   27   14   16 ar    
   28   14   28 1     
   29   15   17 2     
   30   16   29 1     
@<TRIPOS>SUBSTRUCTURE
      1 RES1           1
@<TRIPOS>SET
DONOR_HYDROGENS      STATIC     ATOMS    <user>   **** ""
2 22 23
ATOM$RED        STATIC     ATOMS    COLORGROUP SYSTEM
2 22 23
@<TRIPOS>COMMENT
> <Gold.Version>
2022.3.0

> <Gold.Id.Protein>
unknown|4v3u_clean|pdb

> <Gold.Protein.RotatedTorsions>
[  549  517  516  515 ] final  172.91 input   59.99 | X-H torsion
[ 2542 2515 2516 2517 ] final  -53.25 input  113.65 | X-H torsion
[ 2618 2585 2586 2587 ] final   66.55 input   46.31 | X-H torsion
[ 26064 26031 26030 26028 ] final    6.50 input   59.98 | X-H torsion
[ 27154 27102 27101 27097 ] final -111.58 input   60.00 | X-H torsion
[ 7430 7405 7406 7407 ] final  -87.45 input   81.33 | X-H torsion
[ 7467 7446 7447 7448 ] final -150.66 input   92.53 | X-H torsion
[ 7519 7507 7508 7509 ] final -118.61 input   89.47 | X-H torsion
[ 17183 17168 17169 17170 ] final  117.64 input   55.70 | X-H torsion
[ 17231 17210 17211 17212 ] final  -94.25 input  101.26 | X-H torsion
[ 18283 18265 18266 18267 ] final   96.12 input   32.88 | X-H torsion
[ 18322 18307 18308 18309 ] final  -81.71 input   53.35 | X-H torsion
[ 18397 18345 18346 18347 ] final   10.94 input   36.30 | X-H torsion
[ 18484 18439 18440 18441 ] final  115.03 input   98.15 | X-H torsion
[ 18552 18519 18520 18521 ] final  -53.35 input   94.34 | X-H torsion
[ 17291 17273 17274 17275 ] final  -53.72 input   50.38 | X-H torsion
[ 18492 18450 18449 18447 ] final  -29.93 input   59.99 | X-H torsion
[ 18223 18190 18191 18192 ] final -130.04 input   49.82 | X-H torsion
[ 18287 18270 18269 18266 ] final  -77.81 input   60.01 | X-H torsion
[ 10108 10086 10085 10082 ] final -141.18 input   60.00 | X-H torsion
[ 16975 16942 16941 16939 ] final  173.74 input   60.00 | X-H torsion
[ 11483 11448 11449 11450 ] final  158.20 input   47.08 | X-H torsion
[ 11550 11515 11516 11517 ] final  138.49 input  121.60 | X-H torsion
[ 11626 11591 11592 11593 ] final -137.02 input   57.19 | X-H torsion
[ 11428 11406 11405 11402 ] final  -38.42 input   60.00 | X-H torsion
[ 27156 27104 27103 27101 ] final  177.98 input   60.02 | X-H torsion
[ 10144 10124 10125 10126 ] final   39.90 input   16.22 | X-H torsion
[ 17343 17319 17320 17321 ] final -111.97 input   65.41 | X-H torsion
[ 27203 2518 2517 2516 ] final  -87.15 input    0.00 | X-H torsion
[ 27224 7317 7316 7315 ] final  -57.68 input    0.00 | X-H torsion
[ 27227 7408 7407 7406 ] final    8.29 input   -0.00 | X-H torsion
[ 27232 17117 17116 17115 ] final  -28.08 input    0.00 | X-H torsion
[ 27236 18193 18192 18191 ] final  -56.46 input    0.00 | X-H torsion
[ 27239 18268 18267 18266 ] final   94.02 input    0.00 | X-H torsion
[ 27242 18310 18309 18308 ] final -153.38 input   -0.00 | X-H torsion
[ 27245 18348 18347 18346 ] final -132.37 input    0.00 | X-H torsion
[ 27253 17171 17170 17169 ] final    9.28 input   -0.00 | X-H torsion
[ 27255 17213 17212 17211 ] final  -74.71 input    0.00 | X-H torsion
[ 27257 17042 17041 17040 ] final -166.31 input    0.00 | X-H torsion
[ 27267 10127 10126 10125 ] final  132.64 input   -0.00 | X-H torsion
[ 27269 11404 11403 11402 ] final  113.58 input    0.00 | X-H torsion
[ 27275 11594 11593 11592 ] final  167.00 input   -0.00 | X-H torsion
[ 27284 18675 18674 18673 ] final   -0.70 input    0.00 | X-H torsion

> <Gold.Protein.ActiveResidues>
 LYS309  TRP311  MET341  HIS342  TRP414  ALA417  ARG419  CYS420  VAL421  GLY422 
 ARG423  SER462  ALA463  SER482  GLN483  LEU484  ILE485  ARG486  ALA502  TRP566 
 TYR567  LEU569  PRO570  ALA571  VAL572  SER573  ASN574  MET575  PHE589  SER590 
 GLY591  TRP592  TYR593  MET594  GLU597  ILE598  ARG601  ASP602  ASP605  ARG608 
 TRP683  HIS697  GLU699  TYR711  HEM750  H4B760 

> <Gold.Protein.RotatedAtoms>
  188.3592   24.4262   42.6349 H   0  0  0  0  0  0  0  0  0  0  0  0  # atno 549  bound_to 517 
  189.7740   24.1429   41.8197 H   0  0  0  0  0  0  0  0  0  0  0  0  # atno 550  bound_to 517 
  189.4373   23.3080   43.2108 H   0  0  0  0  0  0  0  0  0  0  0  0  # atno 551  bound_to 517 
  198.3177   19.4075   46.0870 H   0  0  0  0  0  0  0  0  0  0  0  0  # atno 2542 bound_to 2515
  196.7768   19.3520   43.5765 H   0  0  0  0  0  0  0  0  0  0  0  0  # atno 2618 bound_to 2585
  196.8629    7.1817   50.9618 H   0  0  0  0  0  0  0  0  0  0  0  0  # atno 7430 bound_to 7405
  196.2114    5.6290   53.3018 H   0  0  0  0  0  0  0  0  0  0  0  0  # atno 7467 bound_to 7446
  195.1236    2.9978   55.2800 H   0  0  0  0  0  0  0  0  0  0  0  0  # atno 7519 bound_to 7507
  190.4533   -3.7317   50.8137 H   0  0  0  0  0  0  0  0  0  0  0  0  # atno 10108 bound_to 10086
  187.2958   -3.9578   47.2463 H   0  0  0  0  0  0  0  0  0  0  0  0  # atno 10144 bound_to 10124
  181.6486   11.4371   42.4659 H   0  0  0  0  0  0  0  0  0  0  0  0  # atno 11428 bound_to 11406
  182.8935    9.2575   43.2969 H   0  0  0  0  0  0  0  0  0  0  0  0  # atno 11483 bound_to 11448
  181.9418    4.7365   43.5047 H   0  0  0  0  0  0  0  0  0  0  0  0  # atno 11550 bound_to 11515
  178.6171    4.5982   44.1514 H   0  0  0  0  0  0  0  0  0  0  0  0  # atno 11626 bound_to 11591
  181.1296    8.2426   49.8034 H   0  0  0  0  0  0  0  0  0  0  0  0  # atno 16975 bound_to 16942
  182.4278    3.2562   47.8507 H   0  0  0  0  0  0  0  0  0  0  0  0  # atno 17183 bound_to 17168
  184.7342    4.3225   45.5507 H   0  0  0  0  0  0  0  0  0  0  0  0  # atno 17231 bound_to 17210
  186.6425    5.7877   42.2891 H   0  0  0  0  0  0  0  0  0  0  0  0  # atno 17291 bound_to 17273
  186.0511    6.2721   39.6597 H   0  0  0  0  0  0  0  0  0  0  0  0  # atno 17343 bound_to 17319
  186.8289    0.3265   41.8886 H   0  0  0  0  0  0  0  0  0  0  0  0  # atno 18223 bound_to 18190
  186.4838   -1.2762   45.5168 H   0  0  0  0  0  0  0  0  0  0  0  0  # atno 18283 bound_to 18265
  184.7593   -2.1856   46.2528 H   0  0  0  0  0  0  0  0  0  0  0  0  # atno 18287 bound_to 18270
  186.4092   -0.9124   49.0940 H   0  0  0  0  0  0  0  0  0  0  0  0  # atno 18322 bound_to 18307
  187.6497    0.1803   53.0297 H   0  0  0  0  0  0  0  0  0  0  0  0  # atno 18397 bound_to 18345
  184.3610    1.6039   55.4554 H   0  0  0  0  0  0  0  0  0  0  0  0  # atno 18484 bound_to 18439
  182.4331    8.1738   52.1931 H   0  0  0  0  0  0  0  0  0  0  0  0  # atno 18492 bound_to 18450
  186.2919    4.0965   57.2025 H   0  0  0  0  0  0  0  0  0  0  0  0  # atno 18552 bound_to 18519
  193.2789   12.1448   45.4771 H   0  0  0  0  0  0  0  0  0  0  0  0  # atno 26064 bound_to 26031
  192.3408   20.0973   51.3490 H   0  0  0  0  0  0  0  0  0  0  0  0  # atno 27154 bound_to 27102
  197.3755   19.9835   50.8265 H   0  0  0  0  0  0  0  0  0  0  0  0  # atno 27156 bound_to 27104
  196.8589   20.3331   46.3389 LP  0  0  0  0  0  0  0  0  0  0  0  0  # atno 27202 bound_to 2515
  197.7356   15.8786   44.6852 LP  0  0  0  0  0  0  0  0  0  0  0  0  # atno 27203 bound_to 2518
  196.0808   15.8580   44.1740 LP  0  0  0  0  0  0  0  0  0  0  0  0  # atno 27204 bound_to 2518
  197.2116   17.8396   44.3330 LP  0  0  0  0  0  0  0  0  0  0  0  0  # atno 27205 bound_to 2585
  194.1111   13.5428   45.4553 LP  0  0  0  0  0  0  0  0  0  0  0  0  # atno 27209 bound_to 26031
  194.9056   12.1161   45.4578 LP  0  0  0  0  0  0  0  0  0  0  0  0  # atno 27210 bound_to 26031
  193.4130   20.7860   52.3605 LP  0  0  0  0  0  0  0  0  0  0  0  0  # atno 27213 bound_to 27102
  192.7881   19.3171   52.7048 LP  0  0  0  0  0  0  0  0  0  0  0  0  # atno 27214 bound_to 27102
  196.0489    8.6339   52.2965 LP  0  0  0  0  0  0  0  0  0  0  0  0  # atno 27224 bound_to 7317
  194.8644    7.8070   51.3409 LP  0  0  0  0  0  0  0  0  0  0  0  0  # atno 27225 bound_to 7317
  197.4863    5.8324   50.0484 LP  0  0  0  0  0  0  0  0  0  0  0  0  # atno 27226 bound_to 7405
  198.1298    4.1611   51.9222 LP  0  0  0  0  0  0  0  0  0  0  0  0  # atno 27227 bound_to 7408
  197.8314    3.6946   53.5633 LP  0  0  0  0  0  0  0  0  0  0  0  0  # atno 27228 bound_to 7408
  194.8708    4.5041   53.3296 LP  0  0  0  0  0  0  0  0  0  0  0  0  # atno 27229 bound_to 7446
  194.9564    2.7976   53.5533 LP  0  0  0  0  0  0  0  0  0  0  0  0  # atno 27230 bound_to 7507
  185.5038    2.4858   49.6902 LP  0  0  0  0  0  0  0  0  0  0  0  0  # atno 27232 bound_to 17117
  185.1541    1.7722   48.1512 LP  0  0  0  0  0  0  0  0  0  0  0  0  # atno 27233 bound_to 17117
  183.9435    4.0284   48.2379 LP  0  0  0  0  0  0  0  0  0  0  0  0  # atno 27234 bound_to 17168
  186.2688    3.4825   45.6465 LP  0  0  0  0  0  0  0  0  0  0  0  0  # atno 27235 bound_to 17210
  187.0494    2.2872   45.1810 LP  0  0  0  0  0  0  0  0  0  0  0  0  # atno 27236 bound_to 18193
  185.5132    1.5764   45.5481 LP  0  0  0  0  0  0  0  0  0  0  0  0  # atno 27237 bound_to 18193
  187.7289   -0.0853   45.8007 LP  0  0  0  0  0  0  0  0  0  0  0  0  # atno 27238 bound_to 18265
  188.4852   -2.2186   48.1333 LP  0  0  0  0  0  0  0  0  0  0  0  0  # atno 27239 bound_to 18268
  186.9476   -2.9620   48.4217 LP  0  0  0  0  0  0  0  0  0  0  0  0  # atno 27240 bound_to 18268
  187.3324    0.5155   49.5039 LP  0  0  0  0  0  0  0  0  0  0  0  0  # atno 27241 bound_to 18307
  184.4964   -0.9391   52.2064 LP  0  0  0  0  0  0  0  0  0  0  0  0  # atno 27242 bound_to 18310
  185.1385   -2.1202   51.1143 LP  0  0  0  0  0  0  0  0  0  0  0  0  # atno 27243 bound_to 18310
  186.5762   -1.0743   52.4544 LP  0  0  0  0  0  0  0  0  0  0  0  0  # atno 27244 bound_to 18345
  187.8771    2.2228   55.2678 LP  0  0  0  0  0  0  0  0  0  0  0  0  # atno 27245 bound_to 18348
  187.7147    1.9210   53.5700 LP  0  0  0  0  0  0  0  0  0  0  0  0  # atno 27246 bound_to 18348
  186.0692    1.4868   55.0985 LP  0  0  0  0  0  0  0  0  0  0  0  0  # atno 27247 bound_to 18439
  187.8302    4.3877   56.4234 LP  0  0  0  0  0  0  0  0  0  0  0  0  # atno 27248 bound_to 18519
  182.5822    4.6532   45.1576 LP  0  0  0  0  0  0  0  0  0  0  0  0  # atno 27253 bound_to 17171
  183.8097    5.3904   44.1830 LP  0  0  0  0  0  0  0  0  0  0  0  0  # atno 27254 bound_to 17171
  187.6899    3.5545   42.5314 LP  0  0  0  0  0  0  0  0  0  0  0  0  # atno 27255 bound_to 17213
  186.0890    2.9091   42.3869 LP  0  0  0  0  0  0  0  0  0  0  0  0  # atno 27256 bound_to 17213
  181.0563    3.6866   48.8864 LP  0  0  0  0  0  0  0  0  0  0  0  0  # atno 27257 bound_to 17042
  179.5321    2.9830   49.3127 LP  0  0  0  0  0  0  0  0  0  0  0  0  # atno 27258 bound_to 17042
  184.9589    5.7267   42.7453 LP  0  0  0  0  0  0  0  0  0  0  0  0  # atno 27259 bound_to 17273
  181.0360    7.3396   52.2138 LP  0  0  0  0  0  0  0  0  0  0  0  0  # atno 27260 bound_to 18450
  182.2511    6.8786   51.2250 LP  0  0  0  0  0  0  0  0  0  0  0  0  # atno 27261 bound_to 18450
  187.0862    1.7856   42.8185 LP  0  0  0  0  0  0  0  0  0  0  0  0  # atno 27262 bound_to 18190
  183.7144   -2.2227   47.4991 LP  0  0  0  0  0  0  0  0  0  0  0  0  # atno 27263 bound_to 18270
  185.3063   -2.4806   47.7562 LP  0  0  0  0  0  0  0  0  0  0  0  0  # atno 27264 bound_to 18270
  189.7138   -4.8805   51.6981 LP  0  0  0  0  0  0  0  0  0  0  0  0  # atno 27265 bound_to 10086
  188.8423   -3.6687   51.0358 LP  0  0  0  0  0  0  0  0  0  0  0  0  # atno 27266 bound_to 10086
  188.2376   -2.4445   44.6627 LP  0  0  0  0  0  0  0  0  0  0  0  0  # atno 27267 bound_to 10127
  186.7181   -2.8355   45.3965 LP  0  0  0  0  0  0  0  0  0  0  0  0  # atno 27268 bound_to 10127
  184.9789    8.2712   43.4950 LP  0  0  0  0  0  0  0  0  0  0  0  0  # atno 27269 bound_to 11404
  184.9900    7.7134   41.8552 LP  0  0  0  0  0  0  0  0  0  0  0  0  # atno 27270 bound_to 11404
  180.2200    9.4229   50.4564 LP  0  0  0  0  0  0  0  0  0  0  0  0  # atno 27271 bound_to 16942
  180.0110    8.9967   48.8940 LP  0  0  0  0  0  0  0  0  0  0  0  0  # atno 27272 bound_to 16942
  181.8853    8.5715   42.0459 LP  0  0  0  0  0  0  0  0  0  0  0  0  # atno 27273 bound_to 11448
  180.9121    6.1492   43.5302 LP  0  0  0  0  0  0  0  0  0  0  0  0  # atno 27274 bound_to 11515
  178.9620    7.9897   47.5492 LP  0  0  0  0  0  0  0  0  0  0  0  0  # atno 27275 bound_to 11594
  179.1826    6.2816   47.7326 LP  0  0  0  0  0  0  0  0  0  0  0  0  # atno 27276 bound_to 11594
  179.7160    5.2244   45.3575 LP  0  0  0  0  0  0  0  0  0  0  0  0  # atno 27277 bound_to 11591
  182.4565   12.7017   43.0950 LP  0  0  0  0  0  0  0  0  0  0  0  0  # atno 27282 bound_to 11406
  182.5444   11.2359   43.8093 LP  0  0  0  0  0  0  0  0  0  0  0  0  # atno 27283 bound_to 11406
  185.1296   12.2548   55.1134 LP  0  0  0  0  0  0  0  0  0  0  0  0  # atno 27284 bound_to 18675
  183.4910   12.1519   55.6651 LP  0  0  0  0  0  0  0  0  0  0  0  0  # atno 27285 bound_to 18675

> <Gold.Score>
     Fitness  S(hb_ext) S(vdw_ext)  S(hb_int)    S(int)      intcor
     25.82       6.10      15.53       0.00      -1.63      -0.76

> <Gold.Goldscore.Fitness>
25.8241

> <Gold.Goldscore.Internal.Vdw>
-1.8686

> <Gold.Goldscore.Internal.Torsion>
-0.5244

> <Gold.Goldscore.External.Vdw>
15.5260

> <Gold.Goldscore.Internal.HBond>
0.0000

> <Gold.Goldscore.External.HBond>
6.1038

> <Gold.Goldscore.Internal.Correction>
-0.7650

> <Gold.Goldscore.Hbonds>
donor molecule, donor type, donor heavy atom, donor atom, acceptor molecule, acceptor atom, score
      P1  H 19331 19364       L1     9  0.02
      L1  H    10    23       P1 27095  1.00

> <Gold.Goldscore.Internal.Vdw.Weighted>
-1.8686

> <Gold.Goldscore.Internal.Torsion.Weighted>
-0.5244

> <Gold.Goldscore.External.Vdw.Weighted>
21.3483

> <Gold.Goldscore.Internal.HBond.Weighted>
0.0000

> <Gold.Goldscore.External.HBond.Weighted>
6.1038

> <Gold.Goldscore.Internal.Correction.Weighted>
-0.7650

> <Gold.Rescore>
     Score     S(PLP)   S(hbond)     S(cho)   S(metal)  DE(clash)   DE(tors)     intcor
     17.33     -18.97       0.00       0.00       0.00       1.14       0.25       ----

> <Gold.PLP.Fitness>
17.3253

> <Gold.PLP.PLP>
-18.9724

> <Gold.PLP.part.hbond>
-2.0000

> <Gold.PLP.part.metal>
0.0000

> <Gold.PLP.part.buried>
-3.2463

> <Gold.PLP.part.nonpolar>
-14.4694

> <Gold.PLP.part.repulsive>
0.3443

> <Gold.PLP.ligand.clash>
1.1395

> <Gold.PLP.ligand.torsion>
0.2538

> <Gold.PLP.Chemscore.Hbond>
0.0000

> <Gold.PLP.Chemscore.CHOScore>
0.0000

> <Gold.PLP.Chemscore.Metal>
0.0000

> <Gold.Chemscore.Hbonds>
donor molecule, donor type, donor heavy atom, donor atom, acceptor molecule, acceptor atom, score
      L1  H    10    23       P1 27095  1.00

> <Gold.PLP.Chemscore.Internal.Correction>
   9.000000E+99

